# generated using pymatgen
data_Pr2Mn3(SbS3)4
_symmetry_space_group_name_H-M   'P 1'
_cell_length_a   20.02960800
_cell_length_b   3.90410600
_cell_length_c   14.95364829
_cell_angle_alpha   90.00000000
_cell_angle_beta   126.33350609
_cell_angle_gamma   90.00000000
_symmetry_Int_Tables_number   1
_chemical_formula_structural   Pr2Mn3(SbS3)4
_chemical_formula_sum   'Pr4 Mn6 Sb8 S24'
_cell_volume   942.00006694
_cell_formula_units_Z   2
loop_
 _symmetry_equiv_pos_site_id
 _symmetry_equiv_pos_as_xyz
  1  'x, y, z'
loop_
 _atom_site_type_symbol
 _atom_site_label
 _atom_site_symmetry_multiplicity
 _atom_site_fract_x
 _atom_site_fract_y
 _atom_site_fract_z
 _atom_site_occupancy
  Pr  Pr0  1  0.25954200  0.50000000  0.86277500  1
  Pr  Pr1  1  0.74045800  0.50000000  0.13722500  1
  Pr  Pr2  1  0.75954200  0.00000000  0.86277500  1
  Pr  Pr3  1  0.24045800  0.00000000  0.13722500  1
  Mn  Mn4  1  0.30069600  0.50000000  0.62027200  1
  Mn  Mn5  1  0.69930400  0.50000000  0.37972800  1
  Mn  Mn6  1  0.00000000  0.00000000  0.00000000  1
  Mn  Mn7  1  0.80069600  0.00000000  0.62027200  1
  Mn  Mn8  1  0.19930400  0.00000000  0.37972800  1
  Mn  Mn9  1  0.50000000  0.50000000  0.00000000  1
  Sb  Sb10  1  0.89356300  0.00000000  0.45212700  1
  Sb  Sb11  1  0.10643700  0.00000000  0.54787300  1
  Sb  Sb12  1  0.03845900  0.50000000  0.81454400  1
  Sb  Sb13  1  0.96154100  0.50000000  0.18545600  1
  Sb  Sb14  1  0.39356300  0.50000000  0.45212700  1
  Sb  Sb15  1  0.60643700  0.50000000  0.54787300  1
  Sb  Sb16  1  0.53845900  0.00000000  0.81454400  1
  Sb  Sb17  1  0.46154100  0.00000000  0.18545600  1
  S  S18  1  0.94182400  0.00000000  0.80208200  1
  S  S19  1  0.05817600  0.00000000  0.19791800  1
  S  S20  1  0.40043400  0.00000000  0.97895600  1
  S  S21  1  0.59956600  0.00000000  0.02104400  1
  S  S22  1  0.16752300  0.00000000  0.89490200  1
  S  S23  1  0.83247700  0.00000000  0.10509800  1
  S  S24  1  0.08883400  0.50000000  0.65004500  1
  S  S25  1  0.91116600  0.50000000  0.34995500  1
  S  S26  1  0.74257100  0.00000000  0.29309700  1
  S  S27  1  0.25742900  0.00000000  0.70690300  1
  S  S28  1  0.15718300  0.50000000  0.45243800  1
  S  S29  1  0.84281700  0.50000000  0.54756200  1
  S  S30  1  0.44182400  0.50000000  0.80208200  1
  S  S31  1  0.55817600  0.50000000  0.19791800  1
  S  S32  1  0.90043400  0.50000000  0.97895600  1
  S  S33  1  0.09956600  0.50000000  0.02104400  1
  S  S34  1  0.66752300  0.50000000  0.89490200  1
  S  S35  1  0.33247700  0.50000000  0.10509800  1
  S  S36  1  0.58883400  0.00000000  0.65004500  1
  S  S37  1  0.41116600  0.00000000  0.34995500  1
  S  S38  1  0.24257100  0.50000000  0.29309700  1
  S  S39  1  0.75742900  0.50000000  0.70690300  1
  S  S40  1  0.65718300  0.00000000  0.45243800  1
  S  S41  1  0.34281700  0.00000000  0.54756200  1
