# generated using pymatgen
data_Pr2Mn3(SbS3)4
_symmetry_space_group_name_H-M   'P 1'
_cell_length_a   20.02960800
_cell_length_b   3.90410600
_cell_length_c   14.95364829
_cell_angle_alpha   90.00000000
_cell_angle_beta   126.33350609
_cell_angle_gamma   90.00000000
_symmetry_Int_Tables_number   1
_chemical_formula_structural   Pr2Mn3(SbS3)4
_chemical_formula_sum   'Pr4 Mn6 Sb8 S24'
_cell_volume   942.00006694
_cell_formula_units_Z   2
loop_
 _symmetry_equiv_pos_site_id
 _symmetry_equiv_pos_as_xyz
  1  'x, y, z'
loop_
 _atom_site_type_symbol
 _atom_site_label
 _atom_site_symmetry_multiplicity
 _atom_site_fract_x
 _atom_site_fract_y
 _atom_site_fract_z
 _atom_site_occupancy
  Pr  Pr0  1  0.25968938  0.49976159  0.86289829  1
  Pr  Pr1  1  0.74049156  0.49972191  0.13722819  1
  Pr  Pr2  1  0.75968210  0.00061921  0.86274900  1
  Pr  Pr3  1  0.24039507  0.99963885  0.13729165  1
  Mn  Mn4  1  0.30079605  0.50079949  0.62061595  1
  Mn  Mn5  1  0.69919006  0.50010314  0.37951923  1
  Mn  Mn6  1  0.99986564  0.99991126  0.99998402  1
  Mn  Mn7  1  0.80074232  0.00008314  0.62027089  1
  Mn  Mn8  1  0.19932260  0.99940038  0.37975592  1
  Mn  Mn9  1  0.49998959  0.49902336  0.00023371  1
  Sb  Sb10  1  0.89367365  0.99978890  0.45223185  1
  Sb  Sb11  1  0.10649880  0.99996834  0.54799806  1
  Sb  Sb12  1  0.03851861  0.49943753  0.81459643  1
  Sb  Sb13  1  0.96165654  0.49938225  0.18550042  1
  Sb  Sb14  1  0.39368146  0.49999636  0.45240906  1
  Sb  Sb15  1  0.60630439  0.49970348  0.54767639  1
  Sb  Sb16  1  0.53859481  0.99973606  0.81471989  1
  Sb  Sb17  1  0.46165227  0.99966088  0.18548639  1
  S  S18  1  0.94175697  0.99944741  0.80188438  1
  S  S19  1  0.05828976  0.99970136  0.19786324  1
  S  S20  1  0.40050639  0.99899748  0.97917110  1
  S  S21  1  0.59965061  0.99980774  0.02096084  1
  S  S22  1  0.16750227  0.99948388  0.89502128  1
  S  S23  1  0.83214881  0.99983872  0.10468597  1
  S  S24  1  0.08903450  0.50025501  0.65038627  1
  S  S25  1  0.91125088  0.49956322  0.35018181  1
  S  S26  1  0.74268084  0.99907152  0.29324523  1
  S  S27  1  0.25741026  0.00041598  0.70680691  1
  S  S28  1  0.15719168  0.49920840  0.45234000  1
  S  S29  1  0.84297299  0.50024453  0.54774136  1
  S  S30  1  0.44200926  0.49954030  0.80194814  1
  S  S31  1  0.55820950  0.50010703  0.19800341  1
  S  S32  1  0.90056062  0.49947481  0.97898752  1
  S  S33  1  0.09969414  0.49910746  0.02118558  1
  S  S34  1  0.66741722  0.50050890  0.89496744  1
  S  S35  1  0.33291263  0.49987489  0.10551627  1
  S  S36  1  0.58871995  0.00031005  0.64977692  1
  S  S37  1  0.41130959  0.99921185  0.35013520  1
  S  S38  1  0.24285952  0.49928301  0.29316252  1
  S  S39  1  0.75745165  0.50009530  0.70721614  1
  S  S40  1  0.65708987  0.99966986  0.45242416  1
  S  S41  1  0.34287570  0.99970170  0.54751962  1
