# generated using pymatgen
data_Pr2Mn3(SbS3)4
_symmetry_space_group_name_H-M   'P 1'
_cell_length_a   20.02960800
_cell_length_b   3.90410600
_cell_length_c   14.95364829
_cell_angle_alpha   90.00000000
_cell_angle_beta   126.33350609
_cell_angle_gamma   90.00000000
_symmetry_Int_Tables_number   1
_chemical_formula_structural   Pr2Mn3(SbS3)4
_chemical_formula_sum   'Pr4 Mn6 Sb8 S24'
_cell_volume   942.00006694
_cell_formula_units_Z   2
loop_
 _symmetry_equiv_pos_site_id
 _symmetry_equiv_pos_as_xyz
  1  'x, y, z'
loop_
 _atom_site_type_symbol
 _atom_site_label
 _atom_site_symmetry_multiplicity
 _atom_site_fract_x
 _atom_site_fract_y
 _atom_site_fract_z
 _atom_site_occupancy
  Pr  Pr0  1  0.26118978  0.49882285  0.86401234  1
  Pr  Pr1  1  0.74013360  0.49886377  0.13699047  1
  Pr  Pr2  1  0.76026742  0.00445936  0.86240827  1
  Pr  Pr3  1  0.24034726  0.99334565  0.13774822  1
  Mn  Mn4  1  0.30010152  0.50596701  0.62059600  1
  Mn  Mn5  1  0.69810104  0.50093796  0.37928453  1
  Mn  Mn6  1  0.00011447  0.99717248  0.00036898  1
  Mn  Mn7  1  0.80153750  0.99684931  0.61989308  1
  Mn  Mn8  1  0.19894331  0.99559963  0.37908477  1
  Mn  Mn9  1  0.49983300  0.49104108  0.00090914  1
  Sb  Sb10  1  0.89474159  0.00217143  0.45360614  1
  Sb  Sb11  1  0.10674832  0.99667616  0.54921074  1
  Sb  Sb12  1  0.03819362  0.49565096  0.81440250  1
  Sb  Sb13  1  0.96229962  0.49652995  0.18686820  1
  Sb  Sb14  1  0.39437593  0.49580577  0.45502316  1
  Sb  Sb15  1  0.60560869  0.49797625  0.54729593  1
  Sb  Sb16  1  0.53889603  0.99753411  0.81527483  1
  Sb  Sb17  1  0.46238148  0.99997301  0.18537409  1
  S  S18  1  0.94028247  0.99786771  0.79933276  1
  S  S19  1  0.05774336  0.99412208  0.19583567  1
  S  S20  1  0.40187995  0.98942453  0.98008817  1
  S  S21  1  0.59911715  0.99844628  0.01913750  1
  S  S22  1  0.16868428  0.98981277  0.89788957  1
  S  S23  1  0.82970642  0.00286877  0.10258238  1
  S  S24  1  0.08942314  0.49582635  0.64955558  1
  S  S25  1  0.91006280  0.49710365  0.34905809  1
  S  S26  1  0.74348395  0.99175361  0.29511690  1
  S  S27  1  0.25662315  0.00819903  0.70338620  1
  S  S28  1  0.15652534  0.49202631  0.44996561  1
  S  S29  1  0.84130148  0.50399693  0.54735415  1
  S  S30  1  0.44202931  0.49585961  0.79997864  1
  S  S31  1  0.56005805  0.49677040  0.19972066  1
  S  S32  1  0.90243565  0.49503395  0.97982850  1
  S  S33  1  0.09802957  0.49218967  0.02116154  1
  S  S34  1  0.66606393  0.50735203  0.89442511  1
  S  S35  1  0.33412361  0.49932108  0.10596907  1
  S  S36  1  0.58773443  0.00990942  0.64730450  1
  S  S37  1  0.41318476  0.99377698  0.35349963  1
  S  S38  1  0.24374839  0.48973567  0.29263361  1
  S  S39  1  0.75994877  0.49944573  0.70735038  1
  S  S40  1  0.65774390  0.99476995  0.45343538  1
  S  S41  1  0.34278599  0.99375181  0.54618035  1
