# generated using pymatgen
data_Pr2Mn3(SbS3)4
_symmetry_space_group_name_H-M   'P 1'
_cell_length_a   20.02960800
_cell_length_b   3.90410600
_cell_length_c   14.95364829
_cell_angle_alpha   90.00000000
_cell_angle_beta   126.33350609
_cell_angle_gamma   90.00000000
_symmetry_Int_Tables_number   1
_chemical_formula_structural   Pr2Mn3(SbS3)4
_chemical_formula_sum   'Pr4 Mn6 Sb8 S24'
_cell_volume   942.00006694
_cell_formula_units_Z   2
loop_
 _symmetry_equiv_pos_site_id
 _symmetry_equiv_pos_as_xyz
  1  'x, y, z'
loop_
 _atom_site_type_symbol
 _atom_site_label
 _atom_site_symmetry_multiplicity
 _atom_site_fract_x
 _atom_site_fract_y
 _atom_site_fract_z
 _atom_site_occupancy
  Pr  Pr0  1  0.26435382  0.47075484  0.86809426  1
  Pr  Pr1  1  0.73715703  0.52437047  0.13771271  1
  Pr  Pr2  1  0.76442038  0.01111782  0.86466994  1
  Pr  Pr3  1  0.23715363  0.00609927  0.13818777  1
  Mn  Mn4  1  0.29288932  0.48393568  0.60164195  1
  Mn  Mn5  1  0.69318572  0.51879144  0.38054087  1
  Mn  Mn6  1  0.00832196  0.99519233  0.01130390  1
  Mn  Mn7  1  0.80381204  0.00948501  0.61390671  1
  Mn  Mn8  1  0.19564692  0.97479080  0.37671945  1
  Mn  Mn9  1  0.49785954  0.45167825  0.98905128  1
  Sb  Sb10  1  0.89031838  0.99278482  0.45229942  1
  Sb  Sb11  1  0.11147991  0.96904954  0.55019306  1
  Sb  Sb12  1  0.03900634  0.51793765  0.81762746  1
  Sb  Sb13  1  0.96371721  0.51049822  0.18595989  1
  Sb  Sb14  1  0.39601434  0.50989883  0.45562734  1
  Sb  Sb15  1  0.60647070  0.48205123  0.54709598  1
  Sb  Sb16  1  0.53496478  0.00994311  0.81204064  1
  Sb  Sb17  1  0.46145280  0.01457928  0.18242714  1
  S  S18  1  0.93433272  0.98929873  0.80437475  1
  S  S19  1  0.06598288  0.97585888  0.18507963  1
  S  S20  1  0.41081278  0.00676951  0.97944629  1
  S  S21  1  0.59075037  0.99554384  0.02200511  1
  S  S22  1  0.17123002  0.99483634  0.89599749  1
  S  S23  1  0.82542056  0.01742485  0.09489484  1
  S  S24  1  0.08735755  0.48299141  0.64343250  1
  S  S25  1  0.90816579  0.46908498  0.35372858  1
  S  S26  1  0.73985853  0.96133864  0.29711707  1
  S  S27  1  0.25877299  0.99955033  0.70611423  1
  S  S28  1  0.17060976  0.47855560  0.44204954  1
  S  S29  1  0.82880546  0.48793809  0.54889243  1
  S  S30  1  0.43342529  0.50245455  0.79522388  1
  S  S31  1  0.56120907  0.51131171  0.18105432  1
  S  S32  1  0.91562381  0.50490077  0.99477335  1
  S  S33  1  0.08181983  0.49279332  0.01285073  1
  S  S34  1  0.66667640  0.48769990  0.88842041  1
  S  S35  1  0.32671348  0.50937679  0.09132394  1
  S  S36  1  0.59642266  0.99627478  0.66125496  1
  S  S37  1  0.40704986  0.97515184  0.34764001  1
  S  S38  1  0.24718109  0.44505835  0.31486133  1
  S  S39  1  0.76338004  0.50557377  0.70240170  1
  S  S40  1  0.67580284  0.02772006  0.45914945  1
  S  S41  1  0.32542326  0.97237432  0.54525158  1
