# generated using pymatgen
data_Pr2Mn3(SbS3)4
_symmetry_space_group_name_H-M   'P 1'
_cell_length_a   20.02960800
_cell_length_b   3.90410600
_cell_length_c   14.95364829
_cell_angle_alpha   90.00000000
_cell_angle_beta   126.33350609
_cell_angle_gamma   90.00000000
_symmetry_Int_Tables_number   1
_chemical_formula_structural   Pr2Mn3(SbS3)4
_chemical_formula_sum   'Pr4 Mn6 Sb8 S24'
_cell_volume   942.00006694
_cell_formula_units_Z   2
loop_
 _symmetry_equiv_pos_site_id
 _symmetry_equiv_pos_as_xyz
  1  'x, y, z'
loop_
 _atom_site_type_symbol
 _atom_site_label
 _atom_site_symmetry_multiplicity
 _atom_site_fract_x
 _atom_site_fract_y
 _atom_site_fract_z
 _atom_site_occupancy
  Pr  Pr0  1  0.27479621  0.47487517  0.87697608  1
  Pr  Pr1  1  0.73449290  0.51056674  0.14210927  1
  Pr  Pr2  1  0.76600319  0.07323436  0.88157254  1
  Pr  Pr3  1  0.23396326  0.90278813  0.12226181  1
  Mn  Mn4  1  0.29772541  0.40758492  0.59917112  1
  Mn  Mn5  1  0.69033792  0.49176891  0.35534184  1
  Mn  Mn6  1  0.00748145  0.97277533  0.02438022  1
  Mn  Mn7  1  0.79467889  0.97044896  0.63768418  1
  Mn  Mn8  1  0.21413220  0.05167278  0.40053750  1
  Mn  Mn9  1  0.47762086  0.48064493  0.97263458  1
  Sb  Sb10  1  0.88133003  0.86060286  0.45586025  1
  Sb  Sb11  1  0.11301005  0.96246474  0.54175991  1
  Sb  Sb12  1  0.03295794  0.49939731  0.82217459  1
  Sb  Sb13  1  0.96549619  0.45826832  0.20153394  1
  Sb  Sb14  1  0.41179843  0.56818962  0.46075642  1
  Sb  Sb15  1  0.60144275  0.57377991  0.53595947  1
  Sb  Sb16  1  0.53411175  0.93800344  0.80358811  1
  Sb  Sb17  1  0.46708175  0.97413054  0.17941470  1
  S  S18  1  0.93681334  0.98875797  0.81089513  1
  S  S19  1  0.06503951  0.02650003  0.20264498  1
  S  S20  1  0.41229379  0.99792344  0.97689596  1
  S  S21  1  0.57237635  0.01749142  0.00334531  1
  S  S22  1  0.16551543  0.95303859  0.88397043  1
  S  S23  1  0.83541989  0.03936192  0.11136771  1
  S  S24  1  0.09982450  0.47855212  0.64154809  1
  S  S25  1  0.89656059  0.44134632  0.35013285  1
  S  S26  1  0.72687196  0.98867639  0.30521758  1
  S  S27  1  0.26492088  0.92654453  0.68213683  1
  S  S28  1  0.16397271  0.47329818  0.45044288  1
  S  S29  1  0.81372860  0.49863923  0.54472616  1
  S  S30  1  0.43219603  0.47593002  0.79554052  1
  S  S31  1  0.55887963  0.49164489  0.19263995  1
  S  S32  1  0.92115680  0.50930500  0.99824066  1
  S  S33  1  0.08226053  0.47089182  0.02555289  1
  S  S34  1  0.68498115  0.56136047  0.91344146  1
  S  S35  1  0.33407093  0.44506548  0.10640312  1
  S  S36  1  0.60672760  0.00006614  0.66622648  1
  S  S37  1  0.40324347  0.04642651  0.34320220  1
  S  S38  1  0.24826747  0.53817100  0.32957909  1
  S  S39  1  0.77099017  0.47994790  0.70434249  1
  S  S40  1  0.66842836  0.00008303  0.44320392  1
  S  S41  1  0.33581075  0.91630251  0.54933249  1
