# generated using pymatgen
data_Pr2Mn3(SbS3)4
_symmetry_space_group_name_H-M   'P 1'
_cell_length_a   20.02960800
_cell_length_b   3.90410600
_cell_length_c   14.95364829
_cell_angle_alpha   90.00000000
_cell_angle_beta   126.33350609
_cell_angle_gamma   90.00000000
_symmetry_Int_Tables_number   1
_chemical_formula_structural   Pr2Mn3(SbS3)4
_chemical_formula_sum   'Pr4 Mn6 Sb8 S24'
_cell_volume   942.00006694
_cell_formula_units_Z   2
loop_
 _symmetry_equiv_pos_site_id
 _symmetry_equiv_pos_as_xyz
  1  'x, y, z'
loop_
 _atom_site_type_symbol
 _atom_site_label
 _atom_site_symmetry_multiplicity
 _atom_site_fract_x
 _atom_site_fract_y
 _atom_site_fract_z
 _atom_site_occupancy
  Pr  Pr0  1  0.27504517  0.47507818  0.87715324  1
  Pr  Pr1  1  0.73451494  0.51066076  0.14213127  1
  Pr  Pr2  1  0.76611636  0.07201280  0.88176769  1
  Pr  Pr3  1  0.23395419  0.90279545  0.12238675  1
  Mn  Mn4  1  0.29752321  0.40770239  0.59892111  1
  Mn  Mn5  1  0.69043703  0.49242631  0.35535303  1
  Mn  Mn6  1  0.00752110  0.97220820  0.02449340  1
  Mn  Mn7  1  0.79473411  0.97011607  0.63789258  1
  Mn  Mn8  1  0.21412011  0.05174311  0.40054215  1
  Mn  Mn9  1  0.47770151  0.48052025  0.97272099  1
  Sb  Sb10  1  0.88126806  0.86045425  0.45585365  1
  Sb  Sb11  1  0.11309317  0.96225836  0.54178934  1
  Sb  Sb12  1  0.03286726  0.49939656  0.82203288  1
  Sb  Sb13  1  0.96554243  0.45803976  0.20147284  1
  Sb  Sb14  1  0.41171868  0.56796373  0.46074215  1
  Sb  Sb15  1  0.60160837  0.57366903  0.53626398  1
  Sb  Sb16  1  0.53414963  0.93819938  0.80355022  1
  Sb  Sb17  1  0.46716206  0.97437974  0.17951907  1
  S  S18  1  0.93688734  0.98943390  0.81129636  1
  S  S19  1  0.06506060  0.02580355  0.20244772  1
  S  S20  1  0.41223326  0.99921749  0.97665470  1
  S  S21  1  0.57240795  0.01936674  0.00320301  1
  S  S22  1  0.16568712  0.95215802  0.88430677  1
  S  S23  1  0.83561121  0.03857256  0.11105574  1
  S  S24  1  0.09992413  0.47937102  0.64172255  1
  S  S25  1  0.89672883  0.43971073  0.35009140  1
  S  S26  1  0.72690788  0.98956021  0.30508704  1
  S  S27  1  0.26478165  0.92567500  0.68173482  1
  S  S28  1  0.16385651  0.47075077  0.44999615  1
  S  S29  1  0.81382723  0.49840469  0.54452297  1
  S  S30  1  0.43232677  0.47591865  0.79545637  1
  S  S31  1  0.55867903  0.49107855  0.19240660  1
  S  S32  1  0.92101181  0.50913578  0.99812667  1
  S  S33  1  0.08212328  0.47035900  0.02509955  1
  S  S34  1  0.68500084  0.55999665  0.91351271  1
  S  S35  1  0.33394950  0.44493617  0.10597170  1
  S  S36  1  0.60654387  0.00119747  0.66572178  1
  S  S37  1  0.40307934  0.04680345  0.34315892  1
  S  S38  1  0.24812454  0.53814999  0.32950224  1
  S  S39  1  0.77108398  0.48048597  0.70465573  1
  S  S40  1  0.66837751  0.99980426  0.44314473  1
  S  S41  1  0.33586380  0.91599352  0.54948944  1
