# generated using pymatgen
data_Pr2Mn3(SbS3)4
_symmetry_space_group_name_H-M   'P 1'
_cell_length_a   20.02960800
_cell_length_b   3.90410600
_cell_length_c   14.95364829
_cell_angle_alpha   90.00000000
_cell_angle_beta   126.33350609
_cell_angle_gamma   90.00000000
_symmetry_Int_Tables_number   1
_chemical_formula_structural   Pr2Mn3(SbS3)4
_chemical_formula_sum   'Pr4 Mn6 Sb8 S24'
_cell_volume   942.00006694
_cell_formula_units_Z   2
loop_
 _symmetry_equiv_pos_site_id
 _symmetry_equiv_pos_as_xyz
  1  'x, y, z'
loop_
 _atom_site_type_symbol
 _atom_site_label
 _atom_site_symmetry_multiplicity
 _atom_site_fract_x
 _atom_site_fract_y
 _atom_site_fract_z
 _atom_site_occupancy
  Pr  Pr0  1  0.27527467  0.47535736  0.87729774  1
  Pr  Pr1  1  0.73455288  0.51067405  0.14217087  1
  Pr  Pr2  1  0.76621996  0.07068449  0.88193083  1
  Pr  Pr3  1  0.23395403  0.90281710  0.12253281  1
  Mn  Mn4  1  0.29734173  0.40788803  0.59866723  1
  Mn  Mn5  1  0.69049704  0.49299661  0.35545493  1
  Mn  Mn6  1  0.00763727  0.97146013  0.02461415  1
  Mn  Mn7  1  0.79485371  0.97008255  0.63816112  1
  Mn  Mn8  1  0.21411579  0.05197903  0.40059323  1
  Mn  Mn9  1  0.47774688  0.48063939  0.97272897  1
  Sb  Sb10  1  0.88128413  0.86030989  0.45587735  1
  Sb  Sb11  1  0.11321467  0.96197200  0.54189569  1
  Sb  Sb12  1  0.03278763  0.49898925  0.82190114  1
  Sb  Sb13  1  0.96558413  0.45787626  0.20148823  1
  Sb  Sb14  1  0.41169911  0.56780983  0.46076880  1
  Sb  Sb15  1  0.60174067  0.57353207  0.53658280  1
  Sb  Sb16  1  0.53418205  0.93822285  0.80346346  1
  Sb  Sb17  1  0.46720836  0.97447754  0.17958998  1
  S  S18  1  0.93705714  0.98956578  0.81174980  1
  S  S19  1  0.06506933  0.02570126  0.20232246  1
  S  S20  1  0.41217595  0.00039921  0.97645968  1
  S  S21  1  0.57239520  0.02061253  0.00306448  1
  S  S22  1  0.16584501  0.95103061  0.88446961  1
  S  S23  1  0.83584530  0.03791153  0.11084046  1
  S  S24  1  0.10004384  0.48007526  0.64197923  1
  S  S25  1  0.89698395  0.43820663  0.35010735  1
  S  S26  1  0.72680939  0.99042254  0.30483935  1
  S  S27  1  0.26474694  0.92491868  0.68140436  1
  S  S28  1  0.16374455  0.46864326  0.44959451  1
  S  S29  1  0.81387461  0.49835367  0.54433108  1
  S  S30  1  0.43233502  0.47550108  0.79533873  1
  S  S31  1  0.55854803  0.49027048  0.19228663  1
  S  S32  1  0.92076242  0.50906787  0.99802975  1
  S  S33  1  0.08198994  0.47012052  0.02456297  1
  S  S34  1  0.68493275  0.55856072  0.91345488  1
  S  S35  1  0.33374356  0.44438299  0.10547325  1
  S  S36  1  0.60645115  0.00202808  0.66515552  1
  S  S37  1  0.40283800  0.04655328  0.34303388  1
  S  S38  1  0.24791379  0.53775301  0.32942593  1
  S  S39  1  0.77127355  0.48137478  0.70499605  1
  S  S40  1  0.66848190  0.99983233  0.44312391  1
  S  S41  1  0.33593133  0.91585154  0.54958424  1
