# generated using pymatgen
data_Pr2Mn3(SbS3)4
_symmetry_space_group_name_H-M   'P 1'
_cell_length_a   20.02960800
_cell_length_b   3.90410600
_cell_length_c   14.95364829
_cell_angle_alpha   90.00000000
_cell_angle_beta   126.33350609
_cell_angle_gamma   90.00000000
_symmetry_Int_Tables_number   1
_chemical_formula_structural   Pr2Mn3(SbS3)4
_chemical_formula_sum   'Pr4 Mn6 Sb8 S24'
_cell_volume   942.00006694
_cell_formula_units_Z   2
loop_
 _symmetry_equiv_pos_site_id
 _symmetry_equiv_pos_as_xyz
  1  'x, y, z'
loop_
 _atom_site_type_symbol
 _atom_site_label
 _atom_site_symmetry_multiplicity
 _atom_site_fract_x
 _atom_site_fract_y
 _atom_site_fract_z
 _atom_site_occupancy
  Pr  Pr0  1  0.27545323  0.47564831  0.87740584  1
  Pr  Pr1  1  0.73457704  0.51084785  0.14220529  1
  Pr  Pr2  1  0.76634281  0.06907146  0.88209678  1
  Pr  Pr3  1  0.23396070  0.90272582  0.12265587  1
  Mn  Mn4  1  0.29718135  0.40817464  0.59844753  1
  Mn  Mn5  1  0.69062760  0.49337663  0.35563580  1
  Mn  Mn6  1  0.00775726  0.97043041  0.02463363  1
  Mn  Mn7  1  0.79499471  0.97003331  0.63843373  1
  Mn  Mn8  1  0.21409852  0.05196852  0.40051177  1
  Mn  Mn9  1  0.47780585  0.48074975  0.97272546  1
  Sb  Sb10  1  0.88128785  0.86000873  0.45588295  1
  Sb  Sb11  1  0.11332044  0.96169449  0.54202170  1
  Sb  Sb12  1  0.03276015  0.49861189  0.82175369  1
  Sb  Sb13  1  0.96564172  0.45781775  0.20154236  1
  Sb  Sb14  1  0.41167198  0.56769140  0.46079896  1
  Sb  Sb15  1  0.60185626  0.57357888  0.53689974  1
  Sb  Sb16  1  0.53418924  0.93841290  0.80330038  1
  Sb  Sb17  1  0.46724717  0.97453417  0.17969197  1
  S  S18  1  0.93726812  0.99002835  0.81231642  1
  S  S19  1  0.06508376  0.02541323  0.20222089  1
  S  S20  1  0.41215728  0.00144161  0.97628792  1
  S  S21  1  0.57233350  0.02157422  0.00296297  1
  S  S22  1  0.16590188  0.95030836  0.88451127  1
  S  S23  1  0.83597759  0.03736970  0.11053308  1
  S  S24  1  0.10028679  0.48106122  0.64246011  1
  S  S25  1  0.89713587  0.43738730  0.35009714  1
  S  S26  1  0.72657119  0.99108187  0.30443983  1
  S  S27  1  0.26485473  0.92448456  0.68120036  1
  S  S28  1  0.16359067  0.46706718  0.44919890  1
  S  S29  1  0.81395982  0.49836671  0.54406119  1
  S  S30  1  0.43234627  0.47505143  0.79524744  1
  S  S31  1  0.55850888  0.48923213  0.19220053  1
  S  S32  1  0.92056163  0.50920381  0.99790260  1
  S  S33  1  0.08187118  0.46990224  0.02407320  1
  S  S34  1  0.68482946  0.55714038  0.91329790  1
  S  S35  1  0.33353272  0.44458124  0.10507479  1
  S  S36  1  0.60639240  0.00272973  0.66461064  1
  S  S37  1  0.40264780  0.04617382  0.34288080  1
  S  S38  1  0.24763017  0.53712660  0.32935128  1
  S  S39  1  0.77152597  0.48206078  0.70533628  1
  S  S40  1  0.66873114  0.99986341  0.44326416  1
  S  S41  1  0.33590440  0.91598336  0.54951984  1
