# generated using pymatgen
data_Pr2Mn3(SbS3)4
_symmetry_space_group_name_H-M   'P 1'
_cell_length_a   20.02960800
_cell_length_b   3.90410600
_cell_length_c   14.95364829
_cell_angle_alpha   90.00000000
_cell_angle_beta   126.33350609
_cell_angle_gamma   90.00000000
_symmetry_Int_Tables_number   1
_chemical_formula_structural   Pr2Mn3(SbS3)4
_chemical_formula_sum   'Pr4 Mn6 Sb8 S24'
_cell_volume   942.00006694
_cell_formula_units_Z   2
loop_
 _symmetry_equiv_pos_site_id
 _symmetry_equiv_pos_as_xyz
  1  'x, y, z'
loop_
 _atom_site_type_symbol
 _atom_site_label
 _atom_site_symmetry_multiplicity
 _atom_site_fract_x
 _atom_site_fract_y
 _atom_site_fract_z
 _atom_site_occupancy
  Pr  Pr0  1  0.27564605  0.47595759  0.87753467  1
  Pr  Pr1  1  0.73461044  0.51098184  0.14231290  1
  Pr  Pr2  1  0.76645686  0.06775562  0.88217201  1
  Pr  Pr3  1  0.23397942  0.90260139  0.12280005  1
  Mn  Mn4  1  0.29694632  0.40846679  0.59807486  1
  Mn  Mn5  1  0.69081582  0.49364774  0.35582275  1
  Mn  Mn6  1  0.00781250  0.96926846  0.02454502  1
  Mn  Mn7  1  0.79517611  0.96972845  0.63866756  1
  Mn  Mn8  1  0.21409769  0.05227852  0.40046496  1
  Mn  Mn9  1  0.47791932  0.48095322  0.97282551  1
  Sb  Sb10  1  0.88127871  0.85978680  0.45584586  1
  Sb  Sb11  1  0.11339305  0.96149956  0.54208871  1
  Sb  Sb12  1  0.03272322  0.49832632  0.82152900  1
  Sb  Sb13  1  0.96577453  0.45780484  0.20162849  1
  Sb  Sb14  1  0.41157451  0.56764579  0.46070156  1
  Sb  Sb15  1  0.60194067  0.57381872  0.53716191  1
  Sb  Sb16  1  0.53422676  0.93869226  0.80318001  1
  Sb  Sb17  1  0.46728406  0.97452922  0.17976758  1
  S  S18  1  0.93748104  0.99044496  0.81278150  1
  S  S19  1  0.06512918  0.02504663  0.20214998  1
  S  S20  1  0.41207363  0.00253896  0.97610283  1
  S  S21  1  0.57228779  0.02248052  0.00272288  1
  S  S22  1  0.16588574  0.94908531  0.88450639  1
  S  S23  1  0.83607978  0.03734934  0.11036716  1
  S  S24  1  0.10043154  0.48166022  0.64281748  1
  S  S25  1  0.89725466  0.43619600  0.35011268  1
  S  S26  1  0.72643053  0.99170428  0.30419645  1
  S  S27  1  0.26496579  0.92368981  0.68086859  1
  S  S28  1  0.16347411  0.46564857  0.44875602  1
  S  S29  1  0.81400975  0.49815694  0.54377315  1
  S  S30  1  0.43208681  0.47462278  0.79496525  1
  S  S31  1  0.55841175  0.48818344  0.19198431  1
  S  S32  1  0.92038579  0.50913431  0.99769923  1
  S  S33  1  0.08177636  0.46970748  0.02373534  1
  S  S34  1  0.68456466  0.55580196  0.91307574  1
  S  S35  1  0.33327271  0.44483785  0.10462945  1
  S  S36  1  0.60632331  0.00314572  0.66408738  1
  S  S37  1  0.40252692  0.04636870  0.34272399  1
  S  S38  1  0.24738205  0.53710771  0.32925251  1
  S  S39  1  0.77166430  0.48275629  0.70561479  1
  S  S40  1  0.66892046  0.00007190  0.44348938  1
  S  S41  1  0.33587921  0.91551117  0.54954321  1
