# generated using pymatgen
data_Pr2Mn3(SbS3)4
_symmetry_space_group_name_H-M   'P 1'
_cell_length_a   20.02960800
_cell_length_b   3.90410600
_cell_length_c   14.95364829
_cell_angle_alpha   90.00000000
_cell_angle_beta   126.33350609
_cell_angle_gamma   90.00000000
_symmetry_Int_Tables_number   1
_chemical_formula_structural   Pr2Mn3(SbS3)4
_chemical_formula_sum   'Pr4 Mn6 Sb8 S24'
_cell_volume   942.00006694
_cell_formula_units_Z   2
loop_
 _symmetry_equiv_pos_site_id
 _symmetry_equiv_pos_as_xyz
  1  'x, y, z'
loop_
 _atom_site_type_symbol
 _atom_site_label
 _atom_site_symmetry_multiplicity
 _atom_site_fract_x
 _atom_site_fract_y
 _atom_site_fract_z
 _atom_site_occupancy
  Pr  Pr0  1  0.27578409  0.47593288  0.87760870  1
  Pr  Pr1  1  0.73456424  0.51120529  0.14234133  1
  Pr  Pr2  1  0.76658211  0.06645624  0.88217775  1
  Pr  Pr3  1  0.23398791  0.90244070  0.12292879  1
  Mn  Mn4  1  0.29661172  0.40862116  0.59759598  1
  Mn  Mn5  1  0.69089040  0.49386824  0.35596804  1
  Mn  Mn6  1  0.00778922  0.96804833  0.02436441  1
  Mn  Mn7  1  0.79524914  0.96930979  0.63874198  1
  Mn  Mn8  1  0.21399423  0.05221422  0.40034384  1
  Mn  Mn9  1  0.47807161  0.48130237  0.97291097  1
  Sb  Sb10  1  0.88126627  0.85956110  0.45584064  1
  Sb  Sb11  1  0.11341370  0.96139095  0.54202958  1
  Sb  Sb12  1  0.03272448  0.49788636  0.82146027  1
  Sb  Sb13  1  0.96585346  0.45787364  0.20171575  1
  Sb  Sb14  1  0.41147101  0.56732069  0.46068627  1
  Sb  Sb15  1  0.60197882  0.57384264  0.53737165  1
  Sb  Sb16  1  0.53423977  0.93886532  0.80303744  1
  Sb  Sb17  1  0.46734856  0.97451145  0.17988525  1
  S  S18  1  0.93767755  0.99089602  0.81313394  1
  S  S19  1  0.06515336  0.02444298  0.20212948  1
  S  S20  1  0.41203476  0.00360896  0.97591909  1
  S  S21  1  0.57234940  0.02393244  0.00260378  1
  S  S22  1  0.16590233  0.94817381  0.88455547  1
  S  S23  1  0.83609713  0.03720340  0.11008979  1
  S  S24  1  0.10057635  0.48239559  0.64318735  1
  S  S25  1  0.89732998  0.43408844  0.35007866  1
  S  S26  1  0.72639533  0.99258754  0.30404776  1
  S  S27  1  0.26520825  0.92304218  0.68065725  1
  S  S28  1  0.16335738  0.46404330  0.44845985  1
  S  S29  1  0.81407222  0.49776337  0.54357276  1
  S  S30  1  0.43182764  0.47486621  0.79474133  1
  S  S31  1  0.55817148  0.48659865  0.19172657  1
  S  S32  1  0.92016392  0.50911410  0.99747874  1
  S  S33  1  0.08170874  0.46949224  0.02340528  1
  S  S34  1  0.68419369  0.55431509  0.91293035  1
  S  S35  1  0.33305458  0.44526122  0.10424673  1
  S  S36  1  0.60620847  0.00292338  0.66348996  1
  S  S37  1  0.40241656  0.04668547  0.34263968  1
  S  S38  1  0.24727331  0.53731182  0.32931422  1
  S  S39  1  0.77184790  0.48321316  0.70580564  1
  S  S40  1  0.66917430  0.00048036  0.44378307  1
  S  S41  1  0.33581555  0.91503454  0.54956552  1
