# generated using pymatgen
data_Pr2Mn3(SbS3)4
_symmetry_space_group_name_H-M   'P 1'
_cell_length_a   20.02960800
_cell_length_b   3.90410600
_cell_length_c   14.95364829
_cell_angle_alpha   90.00000000
_cell_angle_beta   126.33350609
_cell_angle_gamma   90.00000000
_symmetry_Int_Tables_number   1
_chemical_formula_structural   Pr2Mn3(SbS3)4
_chemical_formula_sum   'Pr4 Mn6 Sb8 S24'
_cell_volume   942.00006694
_cell_formula_units_Z   2
loop_
 _symmetry_equiv_pos_site_id
 _symmetry_equiv_pos_as_xyz
  1  'x, y, z'
loop_
 _atom_site_type_symbol
 _atom_site_label
 _atom_site_symmetry_multiplicity
 _atom_site_fract_x
 _atom_site_fract_y
 _atom_site_fract_z
 _atom_site_occupancy
  Pr  Pr0  1  0.27592940  0.47578262  0.87771008  1
  Pr  Pr1  1  0.73447460  0.51106953  0.14234695  1
  Pr  Pr2  1  0.76666159  0.06525763  0.88212763  1
  Pr  Pr3  1  0.23403824  0.90209023  0.12307358  1
  Mn  Mn4  1  0.29629927  0.40855961  0.59721072  1
  Mn  Mn5  1  0.69094475  0.49404797  0.35598145  1
  Mn  Mn6  1  0.00773998  0.96729397  0.02411157  1
  Mn  Mn7  1  0.79534933  0.96902782  0.63893701  1
  Mn  Mn8  1  0.21398325  0.05267588  0.40036404  1
  Mn  Mn9  1  0.47830534  0.48179483  0.97313492  1
  Sb  Sb10  1  0.88126512  0.85934940  0.45585907  1
  Sb  Sb11  1  0.11348920  0.96130305  0.54199473  1
  Sb  Sb12  1  0.03272003  0.49768737  0.82133338  1
  Sb  Sb13  1  0.96587384  0.45796898  0.20173414  1
  Sb  Sb14  1  0.41144974  0.56686893  0.46066768  1
  Sb  Sb15  1  0.60201695  0.57401005  0.53751287  1
  Sb  Sb16  1  0.53423859  0.93918824  0.80291732  1
  Sb  Sb17  1  0.46745929  0.97428888  0.18014177  1
  S  S18  1  0.93791157  0.99123612  0.81333328  1
  S  S19  1  0.06514176  0.02340852  0.20208970  1
  S  S20  1  0.41192857  0.00490723  0.97551988  1
  S  S21  1  0.57238215  0.02520335  0.00246455  1
  S  S22  1  0.16580696  0.94739606  0.88448606  1
  S  S23  1  0.83602814  0.03714402  0.10985522  1
  S  S24  1  0.10063634  0.48333634  0.64341726  1
  S  S25  1  0.89747171  0.43220377  0.35009806  1
  S  S26  1  0.72642770  0.99335432  0.30385272  1
  S  S27  1  0.26533097  0.92274365  0.68050943  1
  S  S28  1  0.16326192  0.46309489  0.44820553  1
  S  S29  1  0.81404050  0.49737219  0.54320844  1
  S  S30  1  0.43175882  0.47472578  0.79458303  1
  S  S31  1  0.55808566  0.48529235  0.19162748  1
  S  S32  1  0.92004297  0.50978809  0.99738316  1
  S  S33  1  0.08177984  0.46905488  0.02317634  1
  S  S34  1  0.68400919  0.55347664  0.91281564  1
  S  S35  1  0.33293579  0.44568600  0.10388974  1
  S  S36  1  0.60609379  0.00283021  0.66296430  1
  S  S37  1  0.40225794  0.04781548  0.34236147  1
  S  S38  1  0.24723359  0.53754599  0.32944501  1
  S  S39  1  0.77196431  0.48370546  0.70586110  1
  S  S40  1  0.66938209  0.00070292  0.44411708  1
  S  S41  1  0.33579890  0.91423953  0.54963362  1
