# generated using pymatgen
data_Pr2Mn3(SbS3)4
_symmetry_space_group_name_H-M   'P 1'
_cell_length_a   20.02960800
_cell_length_b   3.90410600
_cell_length_c   14.95364829
_cell_angle_alpha   90.00000000
_cell_angle_beta   126.33350609
_cell_angle_gamma   90.00000000
_symmetry_Int_Tables_number   1
_chemical_formula_structural   Pr2Mn3(SbS3)4
_chemical_formula_sum   'Pr4 Mn6 Sb8 S24'
_cell_volume   942.00006694
_cell_formula_units_Z   2
loop_
 _symmetry_equiv_pos_site_id
 _symmetry_equiv_pos_as_xyz
  1  'x, y, z'
loop_
 _atom_site_type_symbol
 _atom_site_label
 _atom_site_symmetry_multiplicity
 _atom_site_fract_x
 _atom_site_fract_y
 _atom_site_fract_z
 _atom_site_occupancy
  Pr  Pr0  1  0.27603869  0.47561963  0.87778727  1
  Pr  Pr1  1  0.73438788  0.51095143  0.14235380  1
  Pr  Pr2  1  0.76672125  0.06417988  0.88207895  1
  Pr  Pr3  1  0.23407882  0.90162640  0.12321040  1
  Mn  Mn4  1  0.29598643  0.40839842  0.59689362  1
  Mn  Mn5  1  0.69100632  0.49413976  0.35604027  1
  Mn  Mn6  1  0.00775428  0.96670716  0.02385276  1
  Mn  Mn7  1  0.79547550  0.96874262  0.63908268  1
  Mn  Mn8  1  0.21398918  0.05321922  0.40039387  1
  Mn  Mn9  1  0.47848786  0.48211844  0.97338306  1
  Sb  Sb10  1  0.88123043  0.85923658  0.45593074  1
  Sb  Sb11  1  0.11357088  0.96110447  0.54195094  1
  Sb  Sb12  1  0.03269895  0.49770917  0.82122023  1
  Sb  Sb13  1  0.96587780  0.45801205  0.20177965  1
  Sb  Sb14  1  0.41144446  0.56665673  0.46068065  1
  Sb  Sb15  1  0.60206238  0.57407133  0.53760255  1
  Sb  Sb16  1  0.53421690  0.93957730  0.80275052  1
  Sb  Sb17  1  0.46749978  0.97377311  0.18032949  1
  S  S18  1  0.93821690  0.99123849  0.81357244  1
  S  S19  1  0.06519532  0.02255045  0.20209186  1
  S  S20  1  0.41176953  0.00576883  0.97509124  1
  S  S21  1  0.57243548  0.02667529  0.00234882  1
  S  S22  1  0.16568647  0.94723986  0.88432474  1
  S  S23  1  0.83588178  0.03668065  0.10953799  1
  S  S24  1  0.10067348  0.48403921  0.64355667  1
  S  S25  1  0.89764068  0.42994165  0.35015186  1
  S  S26  1  0.72648245  0.99375039  0.30378078  1
  S  S27  1  0.26543292  0.92246682  0.68051193  1
  S  S28  1  0.16325756  0.46288222  0.44793579  1
  S  S29  1  0.81391498  0.49718949  0.54280567  1
  S  S30  1  0.43169588  0.47445779  0.79448257  1
  S  S31  1  0.55800027  0.48424713  0.19150439  1
  S  S32  1  0.91997477  0.51025595  0.99726695  1
  S  S33  1  0.08191298  0.46860031  0.02302114  1
  S  S34  1  0.68389842  0.55270439  0.91268410  1
  S  S35  1  0.33278695  0.44571475  0.10338014  1
  S  S36  1  0.60597994  0.00302506  0.66251742  1
  S  S37  1  0.40206285  0.04821769  0.34215902  1
  S  S38  1  0.24723941  0.53742582  0.32967400  1
  S  S39  1  0.77196174  0.48370569  0.70574395  1
  S  S40  1  0.66959564  0.00088443  0.44445691  1
  S  S41  1  0.33573899  0.91314368  0.54960455  1
