# generated using pymatgen
data_Pr2Mn3(SbS3)4
_symmetry_space_group_name_H-M   'P 1'
_cell_length_a   20.02960800
_cell_length_b   3.90410600
_cell_length_c   14.95364829
_cell_angle_alpha   90.00000000
_cell_angle_beta   126.33350609
_cell_angle_gamma   90.00000000
_symmetry_Int_Tables_number   1
_chemical_formula_structural   Pr2Mn3(SbS3)4
_chemical_formula_sum   'Pr4 Mn6 Sb8 S24'
_cell_volume   942.00006694
_cell_formula_units_Z   2
loop_
 _symmetry_equiv_pos_site_id
 _symmetry_equiv_pos_as_xyz
  1  'x, y, z'
loop_
 _atom_site_type_symbol
 _atom_site_label
 _atom_site_symmetry_multiplicity
 _atom_site_fract_x
 _atom_site_fract_y
 _atom_site_fract_z
 _atom_site_occupancy
  Pr  Pr0  1  0.27614267  0.47548884  0.87782362  1
  Pr  Pr1  1  0.73426447  0.51090257  0.14237722  1
  Pr  Pr2  1  0.76680583  0.06336125  0.88203533  1
  Pr  Pr3  1  0.23410809  0.90129740  0.12334397  1
  Mn  Mn4  1  0.29570892  0.40815832  0.59655587  1
  Mn  Mn5  1  0.69108441  0.49464874  0.35611476  1
  Mn  Mn6  1  0.00778351  0.96613410  0.02365193  1
  Mn  Mn7  1  0.79552780  0.96832216  0.63906744  1
  Mn  Mn8  1  0.21406141  0.05374030  0.40047840  1
  Mn  Mn9  1  0.47863383  0.48283362  0.97358728  1
  Sb  Sb10  1  0.88121052  0.85949288  0.45592720  1
  Sb  Sb11  1  0.11362151  0.96091477  0.54190094  1
  Sb  Sb12  1  0.03269384  0.49790005  0.82110514  1
  Sb  Sb13  1  0.96590434  0.45796315  0.20183378  1
  Sb  Sb14  1  0.41145805  0.56644051  0.46079174  1
  Sb  Sb15  1  0.60211145  0.57442801  0.53773345  1
  Sb  Sb16  1  0.53415830  0.93984163  0.80255945  1
  Sb  Sb17  1  0.46756878  0.97328340  0.18050685  1
  S  S18  1  0.93834380  0.99143704  0.81359153  1
  S  S19  1  0.06521181  0.02117551  0.20199108  1
  S  S20  1  0.41172722  0.00695984  0.97472700  1
  S  S21  1  0.57246301  0.02769340  0.00208988  1
  S  S22  1  0.16570678  0.94711582  0.88429256  1
  S  S23  1  0.83574850  0.03635259  0.10923034  1
  S  S24  1  0.10063843  0.48423880  0.64360048  1
  S  S25  1  0.89785828  0.42850517  0.35013735  1
  S  S26  1  0.72640162  0.99450557  0.30365905  1
  S  S27  1  0.26564285  0.92237737  0.68067530  1
  S  S28  1  0.16321355  0.46256761  0.44759426  1
  S  S29  1  0.81380177  0.49738726  0.54243492  1
  S  S30  1  0.43175831  0.47383001  0.79443688  1
  S  S31  1  0.55794231  0.48350155  0.19142680  1
  S  S32  1  0.91992417  0.51091322  0.99715421  1
  S  S33  1  0.08204677  0.46812575  0.02277338  1
  S  S34  1  0.68375644  0.55237991  0.91252793  1
  S  S35  1  0.33268562  0.44594859  0.10302178  1
  S  S36  1  0.60605957  0.00343301  0.66232155  1
  S  S37  1  0.40180747  0.04851649  0.34187219  1
  S  S38  1  0.24728202  0.53799269  0.32995358  1
  S  S39  1  0.77178499  0.48381615  0.70558021  1
  S  S40  1  0.66980271  0.00086471  0.44481946  1
  S  S41  1  0.33572417  0.91274709  0.54963715  1
