# generated using pymatgen
data_Pr2Mn3(SbS3)4
_symmetry_space_group_name_H-M   'P 1'
_cell_length_a   20.02960800
_cell_length_b   3.90410600
_cell_length_c   14.95364829
_cell_angle_alpha   90.00000000
_cell_angle_beta   126.33350609
_cell_angle_gamma   90.00000000
_symmetry_Int_Tables_number   1
_chemical_formula_structural   Pr2Mn3(SbS3)4
_chemical_formula_sum   'Pr4 Mn6 Sb8 S24'
_cell_volume   942.00006694
_cell_formula_units_Z   2
loop_
 _symmetry_equiv_pos_site_id
 _symmetry_equiv_pos_as_xyz
  1  'x, y, z'
loop_
 _atom_site_type_symbol
 _atom_site_label
 _atom_site_symmetry_multiplicity
 _atom_site_fract_x
 _atom_site_fract_y
 _atom_site_fract_z
 _atom_site_occupancy
  Pr  Pr0  1  0.27620015  0.47512058  0.87782566  1
  Pr  Pr1  1  0.73417471  0.51050957  0.14236676  1
  Pr  Pr2  1  0.76685034  0.06264484  0.88194691  1
  Pr  Pr3  1  0.23404690  0.90101761  0.12336293  1
  Mn  Mn4  1  0.29536752  0.40834271  0.59618794  1
  Mn  Mn5  1  0.69115042  0.49515404  0.35619639  1
  Mn  Mn6  1  0.00777821  0.96559836  0.02342841  1
  Mn  Mn7  1  0.79563885  0.96794371  0.63920997  1
  Mn  Mn8  1  0.21412115  0.05397404  0.40051968  1
  Mn  Mn9  1  0.47882493  0.48347338  0.97383894  1
  Sb  Sb10  1  0.88109503  0.85969480  0.45589806  1
  Sb  Sb11  1  0.11365662  0.96064797  0.54179026  1
  Sb  Sb12  1  0.03269457  0.49818263  0.82101360  1
  Sb  Sb13  1  0.96593519  0.45770921  0.20180153  1
  Sb  Sb14  1  0.41144675  0.56611551  0.46083548  1
  Sb  Sb15  1  0.60216579  0.57464487  0.53780108  1
  Sb  Sb16  1  0.53416965  0.94004526  0.80245416  1
  Sb  Sb17  1  0.46760945  0.97282582  0.18069030  1
  S  S18  1  0.93846302  0.99209467  0.81364716  1
  S  S19  1  0.06521642  0.01964235  0.20200661  1
  S  S20  1  0.41166614  0.00815537  0.97438751  1
  S  S21  1  0.57250772  0.02867873  0.00202310  1
  S  S22  1  0.16572792  0.94737435  0.88406394  1
  S  S23  1  0.83561071  0.03592078  0.10906897  1
  S  S24  1  0.10048560  0.48489639  0.64355992  1
  S  S25  1  0.89804852  0.42746699  0.35007189  1
  S  S26  1  0.72636319  0.99565353  0.30351822  1
  S  S27  1  0.26567489  0.92231343  0.68062918  1
  S  S28  1  0.16329570  0.46228043  0.44745727  1
  S  S29  1  0.81373716  0.49752136  0.54214883  1
  S  S30  1  0.43180871  0.47327367  0.79450143  1
  S  S31  1  0.55780134  0.48279890  0.19117146  1
  S  S32  1  0.91992196  0.51165113  0.99716472  1
  S  S33  1  0.08224330  0.46789915  0.02256120  1
  S  S34  1  0.68365844  0.55221930  0.91236976  1
  S  S35  1  0.33268026  0.44636251  0.10279337  1
  S  S36  1  0.60606712  0.00383443  0.66213958  1
  S  S37  1  0.40159987  0.04884895  0.34157773  1
  S  S38  1  0.24728248  0.53838476  0.33028333  1
  S  S39  1  0.77161402  0.48357498  0.70551680  1
  S  S40  1  0.66992969  0.00075057  0.44513286  1
  S  S41  1  0.33576254  0.91291785  0.54979248  1
