# generated using pymatgen
data_Pr2Mn3(SbS3)4
_symmetry_space_group_name_H-M   'P 1'
_cell_length_a   20.02960800
_cell_length_b   3.90410600
_cell_length_c   14.95364829
_cell_angle_alpha   90.00000000
_cell_angle_beta   126.33350609
_cell_angle_gamma   90.00000000
_symmetry_Int_Tables_number   1
_chemical_formula_structural   Pr2Mn3(SbS3)4
_chemical_formula_sum   'Pr4 Mn6 Sb8 S24'
_cell_volume   942.00006694
_cell_formula_units_Z   2
loop_
 _symmetry_equiv_pos_site_id
 _symmetry_equiv_pos_as_xyz
  1  'x, y, z'
loop_
 _atom_site_type_symbol
 _atom_site_label
 _atom_site_symmetry_multiplicity
 _atom_site_fract_x
 _atom_site_fract_y
 _atom_site_fract_z
 _atom_site_occupancy
  Pr  Pr0  1  0.26431995  0.47113907  0.86794109  1
  Pr  Pr1  1  0.73706640  0.52433644  0.13760513  1
  Pr  Pr2  1  0.76448468  0.01088534  0.86469022  1
  Pr  Pr3  1  0.23718302  0.00606070  0.13815083  1
  Mn  Mn4  1  0.29294996  0.48390396  0.60166501  1
  Mn  Mn5  1  0.69299113  0.51842779  0.38055708  1
  Mn  Mn6  1  0.00853846  0.99534954  0.01193783  1
  Mn  Mn7  1  0.80390736  0.01005391  0.61385260  1
  Mn  Mn8  1  0.19571842  0.97466001  0.37669416  1
  Mn  Mn9  1  0.49750115  0.45117043  0.98890865  1
  Sb  Sb10  1  0.89030185  0.99237947  0.45224209  1
  Sb  Sb11  1  0.11142974  0.96971880  0.55007159  1
  Sb  Sb12  1  0.03901006  0.51826247  0.81760107  1
  Sb  Sb13  1  0.96385515  0.51036064  0.18592168  1
  Sb  Sb14  1  0.39582607  0.51052889  0.45556578  1
  Sb  Sb15  1  0.60646111  0.48141259  0.54704005  1
  Sb  Sb16  1  0.53504921  0.00970501  0.81205155  1
  Sb  Sb17  1  0.46126383  0.01484811  0.18225186  1
  S  S18  1  0.93397684  0.98934975  0.80408693  1
  S  S19  1  0.06616263  0.97648294  0.18538455  1
  S  S20  1  0.41076224  0.00561159  0.97950707  1
  S  S21  1  0.59074655  0.99582400  0.02173342  1
  S  S22  1  0.17104924  0.99645371  0.89611017  1
  S  S23  1  0.82520965  0.01671977  0.09479053  1
  S  S24  1  0.08748083  0.48387727  0.64326372  1
  S  S25  1  0.90809962  0.46786211  0.35363539  1
  S  S26  1  0.73987856  0.96166601  0.29691285  1
  S  S27  1  0.25877928  0.99978179  0.70619062  1
  S  S28  1  0.17050524  0.47730070  0.44182456  1
  S  S29  1  0.82886287  0.48843103  0.54863162  1
  S  S30  1  0.43353357  0.50267181  0.79518791  1
  S  S31  1  0.56132920  0.51133841  0.18102571  1
  S  S32  1  0.91555884  0.50556590  0.99442308  1
  S  S33  1  0.08194874  0.49275900  0.01290334  1
  S  S34  1  0.66682016  0.48927098  0.88851791  1
  S  S35  1  0.32696514  0.50942738  0.09142493  1
  S  S36  1  0.59664418  0.99570900  0.66140585  1
  S  S37  1  0.40701879  0.97570480  0.34756294  1
  S  S38  1  0.24713931  0.44358742  0.31488897  1
  S  S39  1  0.76371907  0.50544092  0.70271020  1
  S  S40  1  0.67539562  0.02829409  0.45864242  1
  S  S41  1  0.32528133  0.97125818  0.54513800  1
