# generated using pymatgen
data_Pr2Mn3(SbS3)4
_symmetry_space_group_name_H-M   'P 1'
_cell_length_a   20.02960800
_cell_length_b   3.90410600
_cell_length_c   14.95364829
_cell_angle_alpha   90.00000000
_cell_angle_beta   126.33350609
_cell_angle_gamma   90.00000000
_symmetry_Int_Tables_number   1
_chemical_formula_structural   Pr2Mn3(SbS3)4
_chemical_formula_sum   'Pr4 Mn6 Sb8 S24'
_cell_volume   942.00006694
_cell_formula_units_Z   2
loop_
 _symmetry_equiv_pos_site_id
 _symmetry_equiv_pos_as_xyz
  1  'x, y, z'
loop_
 _atom_site_type_symbol
 _atom_site_label
 _atom_site_symmetry_multiplicity
 _atom_site_fract_x
 _atom_site_fract_y
 _atom_site_fract_z
 _atom_site_occupancy
  Pr  Pr0  1  0.27627123  0.47508023  0.87787890  1
  Pr  Pr1  1  0.73405428  0.50997025  0.14234299  1
  Pr  Pr2  1  0.76693797  0.06191052  0.88189260  1
  Pr  Pr3  1  0.23396192  0.90087214  0.12339308  1
  Mn  Mn4  1  0.29506232  0.40856610  0.59580090  1
  Mn  Mn5  1  0.69121001  0.49520673  0.35620666  1
  Mn  Mn6  1  0.00770863  0.96507486  0.02315731  1
  Mn  Mn7  1  0.79582580  0.96821706  0.63934838  1
  Mn  Mn8  1  0.21412755  0.05414979  0.40059604  1
  Mn  Mn9  1  0.47906764  0.48403299  0.97411281  1
  Sb  Sb10  1  0.88093426  0.86000935  0.45595244  1
  Sb  Sb11  1  0.11362940  0.96030228  0.54156312  1
  Sb  Sb12  1  0.03266375  0.49852036  0.82090289  1
  Sb  Sb13  1  0.96600654  0.45770828  0.20176863  1
  Sb  Sb14  1  0.41144969  0.56576146  0.46091087  1
  Sb  Sb15  1  0.60223060  0.57484304  0.53786002  1
  Sb  Sb16  1  0.53417382  0.94034641  0.80228251  1
  Sb  Sb17  1  0.46763538  0.97256868  0.18078864  1
  S  S18  1  0.93853615  0.99266325  0.81371950  1
  S  S19  1  0.06511969  0.01806202  0.20194045  1
  S  S20  1  0.41165505  0.00951000  0.97423939  1
  S  S21  1  0.57257125  0.02935905  0.00199533  1
  S  S22  1  0.16567880  0.94763779  0.88378814  1
  S  S23  1  0.83533756  0.03507469  0.10870215  1
  S  S24  1  0.10014412  0.48574369  0.64335587  1
  S  S25  1  0.89823837  0.42615341  0.35000070  1
  S  S26  1  0.72627538  0.99672461  0.30335522  1
  S  S27  1  0.26567939  0.92246264  0.68058698  1
  S  S28  1  0.16327457  0.46153008  0.44720743  1
  S  S29  1  0.81355797  0.49784683  0.54164607  1
  S  S30  1  0.43196948  0.47324753  0.79468872  1
  S  S31  1  0.55768599  0.48207107  0.19094888  1
  S  S32  1  0.91990697  0.51231954  0.99723656  1
  S  S33  1  0.08254265  0.46769396  0.02236268  1
  S  S34  1  0.68340871  0.55195063  0.91215034  1
  S  S35  1  0.33258170  0.44679563  0.10246968  1
  S  S36  1  0.60615199  0.00389196  0.66187259  1
  S  S37  1  0.40136038  0.04884962  0.34130202  1
  S  S38  1  0.24744833  0.53869629  0.33068753  1
  S  S39  1  0.77147175  0.48305389  0.70533643  1
  S  S40  1  0.67018823  0.00017186  0.44554134  1
  S  S41  1  0.33591556  0.91298570  0.54998876  1
