# generated using pymatgen
data_Pr2Mn3(SbS3)4
_symmetry_space_group_name_H-M   'P 1'
_cell_length_a   20.02960800
_cell_length_b   3.90410600
_cell_length_c   14.95364829
_cell_angle_alpha   90.00000000
_cell_angle_beta   126.33350609
_cell_angle_gamma   90.00000000
_symmetry_Int_Tables_number   1
_chemical_formula_structural   Pr2Mn3(SbS3)4
_chemical_formula_sum   'Pr4 Mn6 Sb8 S24'
_cell_volume   942.00006694
_cell_formula_units_Z   2
loop_
 _symmetry_equiv_pos_site_id
 _symmetry_equiv_pos_as_xyz
  1  'x, y, z'
loop_
 _atom_site_type_symbol
 _atom_site_label
 _atom_site_symmetry_multiplicity
 _atom_site_fract_x
 _atom_site_fract_y
 _atom_site_fract_z
 _atom_site_occupancy
  Pr  Pr0  1  0.27627419  0.47505452  0.87789194  1
  Pr  Pr1  1  0.73396660  0.50961373  0.14240497  1
  Pr  Pr2  1  0.76703929  0.06118034  0.88182245  1
  Pr  Pr3  1  0.23389119  0.90077402  0.12346462  1
  Mn  Mn4  1  0.29477430  0.40878063  0.59543436  1
  Mn  Mn5  1  0.69126442  0.49494364  0.35628157  1
  Mn  Mn6  1  0.00771753  0.96482585  0.02292333  1
  Mn  Mn7  1  0.79586710  0.96841582  0.63945094  1
  Mn  Mn8  1  0.21414120  0.05433328  0.40059357  1
  Mn  Mn9  1  0.47932434  0.48465832  0.97439929  1
  Sb  Sb10  1  0.88084095  0.86016039  0.45597819  1
  Sb  Sb11  1  0.11361363  0.95992938  0.54142471  1
  Sb  Sb12  1  0.03268648  0.49868778  0.82075043  1
  Sb  Sb13  1  0.96600648  0.45790272  0.20172027  1
  Sb  Sb14  1  0.41148104  0.56537060  0.46100255  1
  Sb  Sb15  1  0.60231525  0.57498695  0.53790636  1
  Sb  Sb16  1  0.53418460  0.94032881  0.80217137  1
  Sb  Sb17  1  0.46768062  0.97213906  0.18090857  1
  S  S18  1  0.93862528  0.99275455  0.81374567  1
  S  S19  1  0.06506409  0.01650328  0.20192919  1
  S  S20  1  0.41159061  0.01023174  0.97401715  1
  S  S21  1  0.57266175  0.03006949  0.00202145  1
  S  S22  1  0.16551923  0.94816416  0.88328720  1
  S  S23  1  0.83506114  0.03455252  0.10848503  1
  S  S24  1  0.09986431  0.48561849  0.64332792  1
  S  S25  1  0.89841187  0.42463002  0.34989586  1
  S  S26  1  0.72631448  0.99778030  0.30327697  1
  S  S27  1  0.26561190  0.92307774  0.68039662  1
  S  S28  1  0.16330922  0.46118979  0.44685743  1
  S  S29  1  0.81353897  0.49823843  0.54142436  1
  S  S30  1  0.43216430  0.47317855  0.79489363  1
  S  S31  1  0.55749508  0.48209086  0.19049535  1
  S  S32  1  0.91991669  0.51313080  0.99729755  1
  S  S33  1  0.08289097  0.46799095  0.02247995  1
  S  S34  1  0.68321742  0.55172197  0.91185271  1
  S  S35  1  0.33239062  0.44750119  0.10216999  1
  S  S36  1  0.60631081  0.00347914  0.66162736  1
  S  S37  1  0.40119465  0.04882408  0.34097854  1
  S  S38  1  0.24757076  0.53925540  0.33110942  1
  S  S39  1  0.77131520  0.48270348  0.70503858  1
  S  S40  1  0.67045156  0.99992245  0.44588532  1
  S  S41  1  0.33612204  0.91293942  0.55013925  1
