# generated using pymatgen
data_Pr2Mn3(SbS3)4
_symmetry_space_group_name_H-M   'P 1'
_cell_length_a   20.02960800
_cell_length_b   3.90410600
_cell_length_c   14.95364829
_cell_angle_alpha   90.00000000
_cell_angle_beta   126.33350609
_cell_angle_gamma   90.00000000
_symmetry_Int_Tables_number   1
_chemical_formula_structural   Pr2Mn3(SbS3)4
_chemical_formula_sum   'Pr4 Mn6 Sb8 S24'
_cell_volume   942.00006694
_cell_formula_units_Z   2
loop_
 _symmetry_equiv_pos_site_id
 _symmetry_equiv_pos_as_xyz
  1  'x, y, z'
loop_
 _atom_site_type_symbol
 _atom_site_label
 _atom_site_symmetry_multiplicity
 _atom_site_fract_x
 _atom_site_fract_y
 _atom_site_fract_z
 _atom_site_occupancy
  Pr  Pr0  1  0.27629191  0.47498676  0.87791644  1
  Pr  Pr1  1  0.73383767  0.50942221  0.14240297  1
  Pr  Pr2  1  0.76711956  0.06036564  0.88171973  1
  Pr  Pr3  1  0.23383826  0.90072955  0.12355384  1
  Mn  Mn4  1  0.29449303  0.40896153  0.59507458  1
  Mn  Mn5  1  0.69139536  0.49469358  0.35647748  1
  Mn  Mn6  1  0.00771081  0.96470632  0.02259876  1
  Mn  Mn7  1  0.79597550  0.96860176  0.63956919  1
  Mn  Mn8  1  0.21416868  0.05443331  0.40047022  1
  Mn  Mn9  1  0.47948900  0.48529159  0.97466922  1
  Sb  Sb10  1  0.88075078  0.86053122  0.45607873  1
  Sb  Sb11  1  0.11361848  0.95951088  0.54137013  1
  Sb  Sb12  1  0.03267910  0.49874448  0.82057913  1
  Sb  Sb13  1  0.96598393  0.45813504  0.20165473  1
  Sb  Sb14  1  0.41145452  0.56488396  0.46102096  1
  Sb  Sb15  1  0.60237527  0.57527543  0.53794600  1
  Sb  Sb16  1  0.53416951  0.94050812  0.80211269  1
  Sb  Sb17  1  0.46773346  0.97173584  0.18107744  1
  S  S18  1  0.93865392  0.99324391  0.81366519  1
  S  S19  1  0.06506210  0.01526131  0.20175798  1
  S  S20  1  0.41155251  0.01101328  0.97387185  1
  S  S21  1  0.57276327  0.03103226  0.00208244  1
  S  S22  1  0.16529396  0.94934530  0.88259316  1
  S  S23  1  0.83486552  0.03371740  0.10826620  1
  S  S24  1  0.09958059  0.48517826  0.64322102  1
  S  S25  1  0.89871239  0.42325076  0.34992727  1
  S  S26  1  0.72625112  0.99851612  0.30317989  1
  S  S27  1  0.26556362  0.92388816  0.68025283  1
  S  S28  1  0.16350078  0.46084603  0.44648442  1
  S  S29  1  0.81353788  0.49875311  0.54132515  1
  S  S30  1  0.43236014  0.47261283  0.79519057  1
  S  S31  1  0.55728278  0.48242999  0.19000130  1
  S  S32  1  0.91983836  0.51355027  0.99734986  1
  S  S33  1  0.08310516  0.46852992  0.02240372  1
  S  S34  1  0.68289025  0.55118932  0.91152224  1
  S  S35  1  0.33221403  0.44828400  0.10194094  1
  S  S36  1  0.60654257  0.00353171  0.66148130  1
  S  S37  1  0.40100313  0.04874343  0.34064299  1
  S  S38  1  0.24763862  0.53934174  0.33150999  1
  S  S39  1  0.77113926  0.48269538  0.70476550  1
  S  S40  1  0.67061918  0.99976091  0.44603797  1
  S  S41  1  0.33622494  0.91324816  0.55014942  1
