# generated using pymatgen
data_Pr2Mn3(SbS3)4
_symmetry_space_group_name_H-M   'P 1'
_cell_length_a   20.02960800
_cell_length_b   3.90410600
_cell_length_c   14.95364829
_cell_angle_alpha   90.00000000
_cell_angle_beta   126.33350609
_cell_angle_gamma   90.00000000
_symmetry_Int_Tables_number   1
_chemical_formula_structural   Pr2Mn3(SbS3)4
_chemical_formula_sum   'Pr4 Mn6 Sb8 S24'
_cell_volume   942.00006694
_cell_formula_units_Z   2
loop_
 _symmetry_equiv_pos_site_id
 _symmetry_equiv_pos_as_xyz
  1  'x, y, z'
loop_
 _atom_site_type_symbol
 _atom_site_label
 _atom_site_symmetry_multiplicity
 _atom_site_fract_x
 _atom_site_fract_y
 _atom_site_fract_z
 _atom_site_occupancy
  Pr  Pr0  1  0.27626819  0.47508073  0.87790967  1
  Pr  Pr1  1  0.73373424  0.50911225  0.14238973  1
  Pr  Pr2  1  0.76719376  0.05957363  0.88162923  1
  Pr  Pr3  1  0.23377518  0.90064853  0.12365236  1
  Mn  Mn4  1  0.29421473  0.40853009  0.59476096  1
  Mn  Mn5  1  0.69150522  0.49375392  0.35661151  1
  Mn  Mn6  1  0.00765316  0.96494785  0.02214510  1
  Mn  Mn7  1  0.79599920  0.96856056  0.63960195  1
  Mn  Mn8  1  0.21423999  0.05457755  0.40042514  1
  Mn  Mn9  1  0.47954379  0.48586896  0.97489647  1
  Sb  Sb10  1  0.88075751  0.86062584  0.45622620  1
  Sb  Sb11  1  0.11362908  0.95951615  0.54139682  1
  Sb  Sb12  1  0.03278917  0.49875485  0.82051216  1
  Sb  Sb13  1  0.96598490  0.45830041  0.20157263  1
  Sb  Sb14  1  0.41146279  0.56440022  0.46098028  1
  Sb  Sb15  1  0.60238968  0.57562071  0.53797415  1
  Sb  Sb16  1  0.53416366  0.94078505  0.80206254  1
  Sb  Sb17  1  0.46775854  0.97127833  0.18122630  1
  S  S18  1  0.93876297  0.99372232  0.81366721  1
  S  S19  1  0.06498667  0.01415126  0.20151631  1
  S  S20  1  0.41156376  0.01159526  0.97394491  1
  S  S21  1  0.57292891  0.03221819  0.00216865  1
  S  S22  1  0.16506204  0.95044285  0.88195287  1
  S  S23  1  0.83453973  0.03258956  0.10789357  1
  S  S24  1  0.09930052  0.48478820  0.64312311  1
  S  S25  1  0.89890294  0.42177982  0.34994042  1
  S  S26  1  0.72621206  0.99895442  0.30304220  1
  S  S27  1  0.26560759  0.92456841  0.68003075  1
  S  S28  1  0.16361781  0.46105940  0.44619536  1
  S  S29  1  0.81344651  0.49996216  0.54116950  1
  S  S30  1  0.43250763  0.47179923  0.79550643  1
  S  S31  1  0.55694625  0.48296761  0.18938702  1
  S  S32  1  0.91964169  0.51408772  0.99738495  1
  S  S33  1  0.08335282  0.46927807  0.02235129  1
  S  S34  1  0.68267997  0.55049591  0.91131725  1
  S  S35  1  0.33208427  0.44920459  0.10177666  1
  S  S36  1  0.60680839  0.00384281  0.66138798  1
  S  S37  1  0.40092551  0.04897230  0.34044907  1
  S  S38  1  0.24757584  0.53936247  0.33186159  1
  S  S39  1  0.77096875  0.48275172  0.70449066  1
  S  S40  1  0.67069410  0.99960973  0.44620919  1
  S  S41  1  0.33640987  0.91326508  0.55022634  1
