# generated using pymatgen
data_Pr2Mn3(SbS3)4
_symmetry_space_group_name_H-M   'P 1'
_cell_length_a   20.02960800
_cell_length_b   3.90410600
_cell_length_c   14.95364829
_cell_angle_alpha   90.00000000
_cell_angle_beta   126.33350609
_cell_angle_gamma   90.00000000
_symmetry_Int_Tables_number   1
_chemical_formula_structural   Pr2Mn3(SbS3)4
_chemical_formula_sum   'Pr4 Mn6 Sb8 S24'
_cell_volume   942.00006694
_cell_formula_units_Z   2
loop_
 _symmetry_equiv_pos_site_id
 _symmetry_equiv_pos_as_xyz
  1  'x, y, z'
loop_
 _atom_site_type_symbol
 _atom_site_label
 _atom_site_symmetry_multiplicity
 _atom_site_fract_x
 _atom_site_fract_y
 _atom_site_fract_z
 _atom_site_occupancy
  Pr  Pr0  1  0.27625492  0.47512684  0.87788995  1
  Pr  Pr1  1  0.73368918  0.50907963  0.14242919  1
  Pr  Pr2  1  0.76730186  0.05871113  0.88146706  1
  Pr  Pr3  1  0.23373229  0.90066811  0.12375397  1
  Mn  Mn4  1  0.29390833  0.40847381  0.59453127  1
  Mn  Mn5  1  0.69173522  0.49295468  0.35686587  1
  Mn  Mn6  1  0.00749645  0.96560564  0.02167807  1
  Mn  Mn7  1  0.79604488  0.96848381  0.63963062  1
  Mn  Mn8  1  0.21431873  0.05469708  0.40035190  1
  Mn  Mn9  1  0.47961440  0.48595767  0.97495815  1
  Sb  Sb10  1  0.88072830  0.86092483  0.45624848  1
  Sb  Sb11  1  0.11362221  0.95926207  0.54143879  1
  Sb  Sb12  1  0.03288026  0.49886078  0.82040473  1
  Sb  Sb13  1  0.96599836  0.45832039  0.20152515  1
  Sb  Sb14  1  0.41144536  0.56402080  0.46095321  1
  Sb  Sb15  1  0.60237791  0.57600841  0.53796740  1
  Sb  Sb16  1  0.53417460  0.94091553  0.80197316  1
  Sb  Sb17  1  0.46776034  0.97100425  0.18130002  1
  S  S18  1  0.93880781  0.99408330  0.81377932  1
  S  S19  1  0.06497880  0.01313521  0.20133569  1
  S  S20  1  0.41145368  0.01216409  0.97381498  1
  S  S21  1  0.57292116  0.03369852  0.00202264  1
  S  S22  1  0.16491078  0.95169243  0.88152006  1
  S  S23  1  0.83421388  0.03167677  0.10747228  1
  S  S24  1  0.09899227  0.48460649  0.64291373  1
  S  S25  1  0.89919328  0.42070838  0.35014835  1
  S  S26  1  0.72620049  0.99898560  0.30292925  1
  S  S27  1  0.26567298  0.92504258  0.67985476  1
  S  S28  1  0.16383807  0.46155478  0.44592091  1
  S  S29  1  0.81332514  0.50137719  0.54097439  1
  S  S30  1  0.43257562  0.47107381  0.79570734  1
  S  S31  1  0.55667411  0.48345571  0.18890280  1
  S  S32  1  0.91949493  0.51467008  0.99732853  1
  S  S33  1  0.08366123  0.46964591  0.02239449  1
  S  S34  1  0.68249806  0.54982655  0.91103396  1
  S  S35  1  0.33197582  0.45009889  0.10158649  1
  S  S36  1  0.60699844  0.00427288  0.66135910  1
  S  S37  1  0.40088350  0.04867252  0.34035034  1
  S  S38  1  0.24747467  0.53906403  0.33223563  1
  S  S39  1  0.77082275  0.48254894  0.70422160  1
  S  S40  1  0.67080727  0.99929259  0.44640034  1
  S  S41  1  0.33644056  0.91323321  0.55016371  1
