# generated using pymatgen
data_Pr2Mn3(SbS3)4
_symmetry_space_group_name_H-M   'P 1'
_cell_length_a   20.02960800
_cell_length_b   3.90410600
_cell_length_c   14.95364829
_cell_angle_alpha   90.00000000
_cell_angle_beta   126.33350609
_cell_angle_gamma   90.00000000
_symmetry_Int_Tables_number   1
_chemical_formula_structural   Pr2Mn3(SbS3)4
_chemical_formula_sum   'Pr4 Mn6 Sb8 S24'
_cell_volume   942.00006694
_cell_formula_units_Z   2
loop_
 _symmetry_equiv_pos_site_id
 _symmetry_equiv_pos_as_xyz
  1  'x, y, z'
loop_
 _atom_site_type_symbol
 _atom_site_label
 _atom_site_symmetry_multiplicity
 _atom_site_fract_x
 _atom_site_fract_y
 _atom_site_fract_z
 _atom_site_occupancy
  Pr  Pr0  1  0.27629912  0.47522995  0.87788636  1
  Pr  Pr1  1  0.73368885  0.50882321  0.14249447  1
  Pr  Pr2  1  0.76743119  0.05806212  0.88130794  1
  Pr  Pr3  1  0.23373277  0.90063810  0.12387537  1
  Mn  Mn4  1  0.29359850  0.40848495  0.59440842  1
  Mn  Mn5  1  0.69194640  0.49226460  0.35703823  1
  Mn  Mn6  1  0.00729515  0.96641689  0.02131463  1
  Mn  Mn7  1  0.79602625  0.96859924  0.63962833  1
  Mn  Mn8  1  0.21447984  0.05487795  0.40036198  1
  Mn  Mn9  1  0.47957741  0.48626081  0.97485189  1
  Sb  Sb10  1  0.88061819  0.86115721  0.45615223  1
  Sb  Sb11  1  0.11355324  0.95946044  0.54143058  1
  Sb  Sb12  1  0.03296007  0.49900274  0.82031169  1
  Sb  Sb13  1  0.96604150  0.45847143  0.20155377  1
  Sb  Sb14  1  0.41149176  0.56371403  0.46099444  1
  Sb  Sb15  1  0.60235622  0.57608023  0.53791944  1
  Sb  Sb16  1  0.53425668  0.94099353  0.80192338  1
  Sb  Sb17  1  0.46773096  0.97088310  0.18136977  1
  S  S18  1  0.93875229  0.99444645  0.81373274  1
  S  S19  1  0.06496960  0.01241607  0.20114965  1
  S  S20  1  0.41136902  0.01228319  0.97372997  1
  S  S21  1  0.57304113  0.03486468  0.00187093  1
  S  S22  1  0.16479415  0.95275111  0.88110471  1
  S  S23  1  0.83393640  0.03095618  0.10711589  1
  S  S24  1  0.09866744  0.48363963  0.64264706  1
  S  S25  1  0.89947430  0.41972143  0.35035455  1
  S  S26  1  0.72613918  0.99925825  0.30280595  1
  S  S27  1  0.26565959  0.92563184  0.67962768  1
  S  S28  1  0.16402353  0.46236641  0.44569999  1
  S  S29  1  0.81312631  0.50246261  0.54070672  1
  S  S30  1  0.43271909  0.47043596  0.79594687  1
  S  S31  1  0.55641578  0.48445022  0.18834749  1
  S  S32  1  0.91940114  0.51495676  0.99712077  1
  S  S33  1  0.08391868  0.46974188  0.02233956  1
  S  S34  1  0.68237924  0.54943490  0.91081285  1
  S  S35  1  0.33182394  0.45097426  0.10127736  1
  S  S36  1  0.60716966  0.00470213  0.66124305  1
  S  S37  1  0.40083964  0.04840336  0.34037917  1
  S  S38  1  0.24739317  0.53897606  0.33262760  1
  S  S39  1  0.77079294  0.48313478  0.70385270  1
  S  S40  1  0.67087712  0.99904824  0.44655338  1
  S  S41  1  0.33639278  0.91349484  0.54985583  1
