# generated using pymatgen
data_Pr2Mn3(SbS3)4
_symmetry_space_group_name_H-M   'P 1'
_cell_length_a   20.02960800
_cell_length_b   3.90410600
_cell_length_c   14.95364829
_cell_angle_alpha   90.00000000
_cell_angle_beta   126.33350609
_cell_angle_gamma   90.00000000
_symmetry_Int_Tables_number   1
_chemical_formula_structural   Pr2Mn3(SbS3)4
_chemical_formula_sum   'Pr4 Mn6 Sb8 S24'
_cell_volume   942.00006694
_cell_formula_units_Z   2
loop_
 _symmetry_equiv_pos_site_id
 _symmetry_equiv_pos_as_xyz
  1  'x, y, z'
loop_
 _atom_site_type_symbol
 _atom_site_label
 _atom_site_symmetry_multiplicity
 _atom_site_fract_x
 _atom_site_fract_y
 _atom_site_fract_z
 _atom_site_occupancy
  Pr  Pr0  1  0.27633441  0.47542925  0.87792343  1
  Pr  Pr1  1  0.73373202  0.50871759  0.14262298  1
  Pr  Pr2  1  0.76760645  0.05774437  0.88115231  1
  Pr  Pr3  1  0.23373647  0.90064779  0.12401610  1
  Mn  Mn4  1  0.29322774  0.40822186  0.59428235  1
  Mn  Mn5  1  0.69211442  0.49162153  0.35720244  1
  Mn  Mn6  1  0.00708546  0.96725223  0.02095340  1
  Mn  Mn7  1  0.79603847  0.96896272  0.63958525  1
  Mn  Mn8  1  0.21471725  0.05520306  0.40050678  1
  Mn  Mn9  1  0.47963479  0.48662935  0.97488795  1
  Sb  Sb10  1  0.88051945  0.86147067  0.45605565  1
  Sb  Sb11  1  0.11345304  0.95969871  0.54137717  1
  Sb  Sb12  1  0.03306552  0.49921412  0.82025629  1
  Sb  Sb13  1  0.96607297  0.45838525  0.20151448  1
  Sb  Sb14  1  0.41153941  0.56336353  0.46102751  1
  Sb  Sb15  1  0.60235051  0.57613128  0.53783678  1
  Sb  Sb16  1  0.53435434  0.94096670  0.80186381  1
  Sb  Sb17  1  0.46765988  0.97062698  0.18142055  1
  S  S18  1  0.93862298  0.99469124  0.81355414  1
  S  S19  1  0.06495945  0.01241758  0.20096297  1
  S  S20  1  0.41130431  0.01189410  0.97372151  1
  S  S21  1  0.57320793  0.03609452  0.00179079  1
  S  S22  1  0.16464814  0.95402364  0.88068090  1
  S  S23  1  0.83376715  0.03051548  0.10690910  1
  S  S24  1  0.09822421  0.48267809  0.64232870  1
  S  S25  1  0.89967054  0.41846451  0.35048637  1
  S  S26  1  0.72614553  0.99857852  0.30268615  1
  S  S27  1  0.26567663  0.92633608  0.67947146  1
  S  S28  1  0.16420629  0.46232820  0.44559614  1
  S  S29  1  0.81311166  0.50480207  0.54063137  1
  S  S30  1  0.43284336  0.46960138  0.79624837  1
  S  S31  1  0.55621684  0.48522746  0.18787960  1
  S  S32  1  0.91933112  0.51562747  0.99687098  1
  S  S33  1  0.08417259  0.47014007  0.02234115  1
  S  S34  1  0.68230674  0.54856799  0.91073942  1
  S  S35  1  0.33155938  0.45173813  0.10086082  1
  S  S36  1  0.60722836  0.00489404  0.66103674  1
  S  S37  1  0.40086455  0.04880002  0.34044563  1
  S  S38  1  0.24728813  0.53848524  0.33318722  1
  S  S39  1  0.77074336  0.48357512  0.70347044  1
  S  S40  1  0.67087975  0.99871998  0.44671044  1
  S  S41  1  0.33642230  0.91417207  0.54958925  1
