# generated using pymatgen
data_Pr2Mn3(SbS3)4
_symmetry_space_group_name_H-M   'P 1'
_cell_length_a   20.02960800
_cell_length_b   3.90410600
_cell_length_c   14.95364829
_cell_angle_alpha   90.00000000
_cell_angle_beta   126.33350609
_cell_angle_gamma   90.00000000
_symmetry_Int_Tables_number   1
_chemical_formula_structural   Pr2Mn3(SbS3)4
_chemical_formula_sum   'Pr4 Mn6 Sb8 S24'
_cell_volume   942.00006694
_cell_formula_units_Z   2
loop_
 _symmetry_equiv_pos_site_id
 _symmetry_equiv_pos_as_xyz
  1  'x, y, z'
loop_
 _atom_site_type_symbol
 _atom_site_label
 _atom_site_symmetry_multiplicity
 _atom_site_fract_x
 _atom_site_fract_y
 _atom_site_fract_z
 _atom_site_occupancy
  Pr  Pr0  1  0.27635961  0.47572307  0.87792804  1
  Pr  Pr1  1  0.73375030  0.50867736  0.14274514  1
  Pr  Pr2  1  0.76777463  0.05747248  0.88100233  1
  Pr  Pr3  1  0.23376362  0.90079124  0.12415127  1
  Mn  Mn4  1  0.29293983  0.40786208  0.59416208  1
  Mn  Mn5  1  0.69227916  0.49061590  0.35746190  1
  Mn  Mn6  1  0.00682893  0.96806596  0.02046911  1
  Mn  Mn7  1  0.79604229  0.96998722  0.63956981  1
  Mn  Mn8  1  0.21496523  0.05551918  0.40056767  1
  Mn  Mn9  1  0.47964976  0.48701725  0.97488167  1
  Sb  Sb10  1  0.88049986  0.86179677  0.45605268  1
  Sb  Sb11  1  0.11332070  0.95993925  0.54125759  1
  Sb  Sb12  1  0.03323139  0.49934080  0.82029013  1
  Sb  Sb13  1  0.96608236  0.45826156  0.20146355  1
  Sb  Sb14  1  0.41166489  0.56312966  0.46109521  1
  Sb  Sb15  1  0.60235937  0.57634106  0.53771694  1
  Sb  Sb16  1  0.53445062  0.94109707  0.80178386  1
  Sb  Sb17  1  0.46761210  0.97047664  0.18151198  1
  S  S18  1  0.93849652  0.99469884  0.81341184  1
  S  S19  1  0.06488565  0.01288331  0.20078816  1
  S  S20  1  0.41125467  0.01211441  0.97375121  1
  S  S21  1  0.57350176  0.03773856  0.00173409  1
  S  S22  1  0.16453734  0.95551798  0.88023591  1
  S  S23  1  0.83353671  0.03029557  0.10672350  1
  S  S24  1  0.09790184  0.48199283  0.64214975  1
  S  S25  1  0.89983901  0.41700275  0.35056820  1
  S  S26  1  0.72623134  0.99900939  0.30257523  1
  S  S27  1  0.26570167  0.92712376  0.67934087  1
  S  S28  1  0.16435995  0.46222387  0.44547826  1
  S  S29  1  0.81318934  0.50689280  0.54052501  1
  S  S30  1  0.43297073  0.46905063  0.79659260  1
  S  S31  1  0.55603383  0.48551079  0.18742655  1
  S  S32  1  0.91936520  0.51599051  0.99659419  1
  S  S33  1  0.08436186  0.47036154  0.02223871  1
  S  S34  1  0.68225129  0.54751979  0.91066268  1
  S  S35  1  0.33129081  0.45234603  0.10042989  1
  S  S36  1  0.60734815  0.00479361  0.66080340  1
  S  S37  1  0.40090212  0.04915621  0.34053872  1
  S  S38  1  0.24709902  0.53776463  0.33360240  1
  S  S39  1  0.77077542  0.48361152  0.70313640  1
  S  S40  1  0.67085783  0.99826274  0.44680850  1
  S  S41  1  0.33660674  0.91488727  0.54946290  1
