# generated using pymatgen
data_Pr2Mn3(SbS3)4
_symmetry_space_group_name_H-M   'P 1'
_cell_length_a   20.02960800
_cell_length_b   3.90410600
_cell_length_c   14.95364829
_cell_angle_alpha   90.00000000
_cell_angle_beta   126.33350609
_cell_angle_gamma   90.00000000
_symmetry_Int_Tables_number   1
_chemical_formula_structural   Pr2Mn3(SbS3)4
_chemical_formula_sum   'Pr4 Mn6 Sb8 S24'
_cell_volume   942.00006694
_cell_formula_units_Z   2
loop_
 _symmetry_equiv_pos_site_id
 _symmetry_equiv_pos_as_xyz
  1  'x, y, z'
loop_
 _atom_site_type_symbol
 _atom_site_label
 _atom_site_symmetry_multiplicity
 _atom_site_fract_x
 _atom_site_fract_y
 _atom_site_fract_z
 _atom_site_occupancy
  Pr  Pr0  1  0.27640626  0.47595322  0.87794352  1
  Pr  Pr1  1  0.73365087  0.50848591  0.14273557  1
  Pr  Pr2  1  0.76793287  0.05717344  0.88092945  1
  Pr  Pr3  1  0.23381778  0.90074524  0.12434065  1
  Mn  Mn4  1  0.29270391  0.40794218  0.59415279  1
  Mn  Mn5  1  0.69246221  0.48977112  0.35774048  1
  Mn  Mn6  1  0.00655545  0.96890546  0.02003994  1
  Mn  Mn7  1  0.79607128  0.97083479  0.63950737  1
  Mn  Mn8  1  0.21510313  0.05576115  0.40054136  1
  Mn  Mn9  1  0.47982042  0.48732776  0.97498662  1
  Sb  Sb10  1  0.88044996  0.86221049  0.45598204  1
  Sb  Sb11  1  0.11322978  0.96006823  0.54113674  1
  Sb  Sb12  1  0.03335570  0.49948417  0.82022587  1
  Sb  Sb13  1  0.96614677  0.45836620  0.20145847  1
  Sb  Sb14  1  0.41180306  0.56271069  0.46118662  1
  Sb  Sb15  1  0.60232118  0.57650901  0.53761498  1
  Sb  Sb16  1  0.53447136  0.94110697  0.80163664  1
  Sb  Sb17  1  0.46762090  0.97041412  0.18155576  1
  S  S18  1  0.93838269  0.99457066  0.81316114  1
  S  S19  1  0.06472037  0.01386098  0.20049268  1
  S  S20  1  0.41109650  0.01207054  0.97349750  1
  S  S21  1  0.57378438  0.03883909  0.00159134  1
  S  S22  1  0.16452929  0.95657049  0.88008808  1
  S  S23  1  0.83323354  0.02999386  0.10639534  1
  S  S24  1  0.09762882  0.48135090  0.64207616  1
  S  S25  1  0.90005087  0.41568650  0.35065928  1
  S  S26  1  0.72613640  0.99921390  0.30237486  1
  S  S27  1  0.26583371  0.92773131  0.67937427  1
  S  S28  1  0.16442699  0.46185964  0.44542535  1
  S  S29  1  0.81323373  0.50852165  0.54045133  1
  S  S30  1  0.43310338  0.46911796  0.79688154  1
  S  S31  1  0.55577216  0.48609406  0.18697707  1
  S  S32  1  0.91932977  0.51622739  0.99629096  1
  S  S33  1  0.08455396  0.47064265  0.02237330  1
  S  S34  1  0.68207433  0.54664731  0.91036236  1
  S  S35  1  0.33107938  0.45247360  0.10002232  1
  S  S36  1  0.60751537  0.00448060  0.66075588  1
  S  S37  1  0.40094619  0.04952214  0.34064049  1
  S  S38  1  0.24682646  0.53692140  0.33402747  1
  S  S39  1  0.77067572  0.48326081  0.70264082  1
  S  S40  1  0.67083287  0.99790065  0.44691091  1
  S  S41  1  0.33679279  0.91553734  0.54948182  1
