# generated using pymatgen
data_Pr2Mn3(SbS3)4
_symmetry_space_group_name_H-M   'P 1'
_cell_length_a   20.02960800
_cell_length_b   3.90410600
_cell_length_c   14.95364829
_cell_angle_alpha   90.00000000
_cell_angle_beta   126.33350609
_cell_angle_gamma   90.00000000
_symmetry_Int_Tables_number   1
_chemical_formula_structural   Pr2Mn3(SbS3)4
_chemical_formula_sum   'Pr4 Mn6 Sb8 S24'
_cell_volume   942.00006694
_cell_formula_units_Z   2
loop_
 _symmetry_equiv_pos_site_id
 _symmetry_equiv_pos_as_xyz
  1  'x, y, z'
loop_
 _atom_site_type_symbol
 _atom_site_label
 _atom_site_symmetry_multiplicity
 _atom_site_fract_x
 _atom_site_fract_y
 _atom_site_fract_z
 _atom_site_occupancy
  Pr  Pr0  1  0.27646420  0.47617098  0.87796295  1
  Pr  Pr1  1  0.73352641  0.50826895  0.14271568  1
  Pr  Pr2  1  0.76803319  0.05683932  0.88081889  1
  Pr  Pr3  1  0.23382113  0.90071352  0.12444825  1
  Mn  Mn4  1  0.29244142  0.40806383  0.59407184  1
  Mn  Mn5  1  0.69261686  0.48880856  0.35804310  1
  Mn  Mn6  1  0.00625850  0.96976843  0.01962124  1
  Mn  Mn7  1  0.79603850  0.97222618  0.63935450  1
  Mn  Mn8  1  0.21516934  0.05604872  0.40046211  1
  Mn  Mn9  1  0.47986051  0.48749224  0.97492012  1
  Sb  Sb10  1  0.88039681  0.86286264  0.45597556  1
  Sb  Sb11  1  0.11317052  0.96014678  0.54104738  1
  Sb  Sb12  1  0.03343817  0.49967110  0.82017972  1
  Sb  Sb13  1  0.96616465  0.45830102  0.20136830  1
  Sb  Sb14  1  0.41187284  0.56238221  0.46119302  1
  Sb  Sb15  1  0.60230350  0.57660545  0.53757558  1
  Sb  Sb16  1  0.53451686  0.94092823  0.80152374  1
  Sb  Sb17  1  0.46759005  0.97035211  0.18152327  1
  S  S18  1  0.93829634  0.99410387  0.81278731  1
  S  S19  1  0.06450792  0.01438500  0.20018041  1
  S  S20  1  0.41109334  0.01179135  0.97354561  1
  S  S21  1  0.57412993  0.03984553  0.00171320  1
  S  S22  1  0.16461636  0.95792182  0.87987228  1
  S  S23  1  0.83295469  0.02945101  0.10635009  1
  S  S24  1  0.09737926  0.48026076  0.64210352  1
  S  S25  1  0.90025859  0.41493722  0.35084693  1
  S  S26  1  0.72631545  0.99929343  0.30241708  1
  S  S27  1  0.26590915  0.92794861  0.67932608  1
  S  S28  1  0.16449689  0.46167541  0.44541653  1
  S  S29  1  0.81324286  0.51013779  0.54041736  1
  S  S30  1  0.43319053  0.46898259  0.79704481  1
  S  S31  1  0.55567130  0.48701698  0.18668545  1
  S  S32  1  0.91923245  0.51623493  0.99595276  1
  S  S33  1  0.08482356  0.47100267  0.02255529  1
  S  S34  1  0.68184376  0.54592614  0.91006802  1
  S  S35  1  0.33096855  0.45197244  0.09982813  1
  S  S36  1  0.60767573  0.00377305  0.66079051  1
  S  S37  1  0.40084551  0.04983040  0.34052638  1
  S  S38  1  0.24659971  0.53593171  0.33460782  1
  S  S39  1  0.77065900  0.48283569  0.70216727  1
  S  S40  1  0.67083098  0.99754876  0.44699205  1
  S  S41  1  0.33709624  0.91553789  0.54966243  1
