# generated using pymatgen
data_Pr2Mn3(SbS3)4
_symmetry_space_group_name_H-M   'P 1'
_cell_length_a   20.02960800
_cell_length_b   3.90410600
_cell_length_c   14.95364829
_cell_angle_alpha   90.00000000
_cell_angle_beta   126.33350609
_cell_angle_gamma   90.00000000
_symmetry_Int_Tables_number   1
_chemical_formula_structural   Pr2Mn3(SbS3)4
_chemical_formula_sum   'Pr4 Mn6 Sb8 S24'
_cell_volume   942.00006694
_cell_formula_units_Z   2
loop_
 _symmetry_equiv_pos_site_id
 _symmetry_equiv_pos_as_xyz
  1  'x, y, z'
loop_
 _atom_site_type_symbol
 _atom_site_label
 _atom_site_symmetry_multiplicity
 _atom_site_fract_x
 _atom_site_fract_y
 _atom_site_fract_z
 _atom_site_occupancy
  Pr  Pr0  1  0.26434425  0.47132075  0.86783004  1
  Pr  Pr1  1  0.73695488  0.52419396  0.13738616  1
  Pr  Pr2  1  0.76455882  0.01080622  0.86469458  1
  Pr  Pr3  1  0.23720655  0.00630148  0.13809755  1
  Mn  Mn4  1  0.29301549  0.48396592  0.60164177  1
  Mn  Mn5  1  0.69283815  0.51801420  0.38058395  1
  Mn  Mn6  1  0.00872455  0.99561900  0.01246734  1
  Mn  Mn7  1  0.80398363  0.01064151  0.61391869  1
  Mn  Mn8  1  0.19589095  0.97477290  0.37678774  1
  Mn  Mn9  1  0.49729933  0.45079517  0.98899801  1
  Sb  Sb10  1  0.89027229  0.99179298  0.45216695  1
  Sb  Sb11  1  0.11145059  0.97027205  0.55003893  1
  Sb  Sb12  1  0.03901216  0.51841434  0.81754328  1
  Sb  Sb13  1  0.96399805  0.51027262  0.18585742  1
  Sb  Sb14  1  0.39568922  0.51095903  0.45555772  1
  Sb  Sb15  1  0.60646857  0.48072415  0.54696174  1
  Sb  Sb16  1  0.53511633  0.00965245  0.81197702  1
  Sb  Sb17  1  0.46106290  0.01501711  0.18203004  1
  S  S18  1  0.93379840  0.98933861  0.80395120  1
  S  S19  1  0.06639429  0.97707863  0.18575823  1
  S  S20  1  0.41065453  0.00393452  0.97953932  1
  S  S21  1  0.59076506  0.99584629  0.02145628  1
  S  S22  1  0.17075557  0.99774522  0.89603424  1
  S  S23  1  0.82511676  0.01609190  0.09482928  1
  S  S24  1  0.08759826  0.48489849  0.64315470  1
  S  S25  1  0.90806299  0.46658101  0.35365432  1
  S  S26  1  0.73989675  0.96199915  0.29675490  1
  S  S27  1  0.25886718  0.00020367  0.70631680  1
  S  S28  1  0.17039392  0.47614728  0.44161696  1
  S  S29  1  0.82873670  0.48903687  0.54821307  1
  S  S30  1  0.43359749  0.50256247  0.79517872  1
  S  S31  1  0.56157053  0.51132397  0.18109157  1
  S  S32  1  0.91547592  0.50667547  0.99415243  1
  S  S33  1  0.08217921  0.49226316  0.01306546  1
  S  S34  1  0.66691505  0.49090590  0.88857640  1
  S  S35  1  0.32712588  0.50912285  0.09144430  1
  S  S36  1  0.59684318  0.99542092  0.66148865  1
  S  S37  1  0.40697042  0.97611482  0.34749569  1
  S  S38  1  0.24706237  0.44280211  0.31488068  1
  S  S39  1  0.76401649  0.50536710  0.70301580  1
  S  S40  1  0.67498797  0.02860337  0.45821935  1
  S  S41  1  0.32508278  0.97036657  0.54498002  1
