# generated using pymatgen
data_Pr2Mn3(SbS3)4
_symmetry_space_group_name_H-M   'P 1'
_cell_length_a   20.02960800
_cell_length_b   3.90410600
_cell_length_c   14.95364829
_cell_angle_alpha   90.00000000
_cell_angle_beta   126.33350609
_cell_angle_gamma   90.00000000
_symmetry_Int_Tables_number   1
_chemical_formula_structural   Pr2Mn3(SbS3)4
_chemical_formula_sum   'Pr4 Mn6 Sb8 S24'
_cell_volume   942.00006694
_cell_formula_units_Z   2
loop_
 _symmetry_equiv_pos_site_id
 _symmetry_equiv_pos_as_xyz
  1  'x, y, z'
loop_
 _atom_site_type_symbol
 _atom_site_label
 _atom_site_symmetry_multiplicity
 _atom_site_fract_x
 _atom_site_fract_y
 _atom_site_fract_z
 _atom_site_occupancy
  Pr  Pr0  1  0.27648397  0.47636901  0.87798544  1
  Pr  Pr1  1  0.73332133  0.50827330  0.14266252  1
  Pr  Pr2  1  0.76813210  0.05627880  0.88067386  1
  Pr  Pr3  1  0.23382029  0.90078953  0.12453612  1
  Mn  Mn4  1  0.29213626  0.40825292  0.59397702  1
  Mn  Mn5  1  0.69276619  0.48780263  0.35833924  1
  Mn  Mn6  1  0.00605475  0.97082238  0.01920361  1
  Mn  Mn7  1  0.79602022  0.97319854  0.63916462  1
  Mn  Mn8  1  0.21516988  0.05664438  0.40036246  1
  Mn  Mn9  1  0.47982033  0.48817428  0.97492448  1
  Sb  Sb10  1  0.88034123  0.86373091  0.45596806  1
  Sb  Sb11  1  0.11311160  0.96016637  0.54095031  1
  Sb  Sb12  1  0.03356409  0.49959878  0.82019609  1
  Sb  Sb13  1  0.96613155  0.45834045  0.20121519  1
  Sb  Sb14  1  0.41191057  0.56192996  0.46121239  1
  Sb  Sb15  1  0.60225694  0.57662064  0.53748028  1
  Sb  Sb16  1  0.53453506  0.94053733  0.80149710  1
  Sb  Sb17  1  0.46751042  0.97003933  0.18144068  1
  S  S18  1  0.93807483  0.99382817  0.81225949  1
  S  S19  1  0.06428607  0.01437931  0.19989855  1
  S  S20  1  0.41109987  0.01155084  0.97363685  1
  S  S21  1  0.57441487  0.04102175  0.00185471  1
  S  S22  1  0.16481684  0.95910889  0.87965467  1
  S  S23  1  0.83275884  0.02916852  0.10643724  1
  S  S24  1  0.09698906  0.47923435  0.64206692  1
  S  S25  1  0.90029156  0.41429959  0.35085602  1
  S  S26  1  0.72638754  0.99954949  0.30235212  1
  S  S27  1  0.26601109  0.92837761  0.67936874  1
  S  S28  1  0.16455469  0.46110828  0.44547862  1
  S  S29  1  0.81327364  0.51168194  0.54018777  1
  S  S30  1  0.43332111  0.46917694  0.79720623  1
  S  S31  1  0.55562573  0.48789020  0.18650102  1
  S  S32  1  0.91917693  0.51667507  0.99569199  1
  S  S33  1  0.08500841  0.47094292  0.02273182  1
  S  S34  1  0.68166370  0.54546883  0.90985989  1
  S  S35  1  0.33079484  0.45116653  0.09965460  1
  S  S36  1  0.60779189  0.00275872  0.66063198  1
  S  S37  1  0.40075282  0.05022363  0.34035798  1
  S  S38  1  0.24640391  0.53499368  0.33508518  1
  S  S39  1  0.77063583  0.48271245  0.70180414  1
  S  S40  1  0.67086020  0.99727737  0.44709235  1
  S  S41  1  0.33724009  0.91562077  0.54967729  1
