# generated using pymatgen
data_Pr2Mn3(SbS3)4
_symmetry_space_group_name_H-M   'P 1'
_cell_length_a   20.02960800
_cell_length_b   3.90410600
_cell_length_c   14.95364829
_cell_angle_alpha   90.00000000
_cell_angle_beta   126.33350609
_cell_angle_gamma   90.00000000
_symmetry_Int_Tables_number   1
_chemical_formula_structural   Pr2Mn3(SbS3)4
_chemical_formula_sum   'Pr4 Mn6 Sb8 S24'
_cell_volume   942.00006694
_cell_formula_units_Z   2
loop_
 _symmetry_equiv_pos_site_id
 _symmetry_equiv_pos_as_xyz
  1  'x, y, z'
loop_
 _atom_site_type_symbol
 _atom_site_label
 _atom_site_symmetry_multiplicity
 _atom_site_fract_x
 _atom_site_fract_y
 _atom_site_fract_z
 _atom_site_occupancy
  Pr  Pr0  1  0.27648457  0.47653157  0.87803696  1
  Pr  Pr1  1  0.73312720  0.50829209  0.14261883  1
  Pr  Pr2  1  0.76825106  0.05608757  0.88058831  1
  Pr  Pr3  1  0.23380227  0.90087836  0.12460573  1
  Mn  Mn4  1  0.29186634  0.40854938  0.59388533  1
  Mn  Mn5  1  0.69297439  0.48674954  0.35860488  1
  Mn  Mn6  1  0.00587424  0.97228336  0.01883388  1
  Mn  Mn7  1  0.79602683  0.97426819  0.63894351  1
  Mn  Mn8  1  0.21523713  0.05732946  0.40029638  1
  Mn  Mn9  1  0.47965848  0.48900735  0.97486574  1
  Sb  Sb10  1  0.88020908  0.86453594  0.45593918  1
  Sb  Sb11  1  0.11306856  0.96025036  0.54090643  1
  Sb  Sb12  1  0.03371358  0.49919707  0.82029915  1
  Sb  Sb13  1  0.96606269  0.45826031  0.20097187  1
  Sb  Sb14  1  0.41192813  0.56148363  0.46119423  1
  Sb  Sb15  1  0.60226318  0.57636198  0.53740098  1
  Sb  Sb16  1  0.53456475  0.94021379  0.80145203  1
  Sb  Sb17  1  0.46737722  0.96961513  0.18128164  1
  S  S18  1  0.93793678  0.99350112  0.81186369  1
  S  S19  1  0.06401742  0.01440202  0.19974764  1
  S  S20  1  0.41090227  0.01076743  0.97373962  1
  S  S21  1  0.57469694  0.04205237  0.00201966  1
  S  S22  1  0.16496429  0.96059523  0.87949889  1
  S  S23  1  0.83259405  0.02932184  0.10644258  1
  S  S24  1  0.09664052  0.47795134  0.64209788  1
  S  S25  1  0.90035616  0.41431993  0.35086007  1
  S  S26  1  0.72642430  0.99965892  0.30222432  1
  S  S27  1  0.26615954  0.92839632  0.67942572  1
  S  S28  1  0.16446815  0.46034747  0.44533565  1
  S  S29  1  0.81319202  0.51305786  0.53993401  1
  S  S30  1  0.43341071  0.46974496  0.79731430  1
  S  S31  1  0.55548825  0.48859799  0.18625583  1
  S  S32  1  0.91924156  0.51736227  0.99550531  1
  S  S33  1  0.08518806  0.47114929  0.02286194  1
  S  S34  1  0.68141832  0.54494627  0.90969630  1
  S  S35  1  0.33058869  0.45043157  0.09959131  1
  S  S36  1  0.60783138  0.00173210  0.66049462  1
  S  S37  1  0.40063363  0.05014417  0.34018486  1
  S  S38  1  0.24632530  0.53424956  0.33556606  1
  S  S39  1  0.77054704  0.48263383  0.70134485  1
  S  S40  1  0.67079018  0.99709468  0.44706387  1
  S  S41  1  0.33722346  0.91569431  0.54961929  1
