# generated using pymatgen
data_Pr2Mn3(SbS3)4
_symmetry_space_group_name_H-M   'P 1'
_cell_length_a   20.02960800
_cell_length_b   3.90410600
_cell_length_c   14.95364829
_cell_angle_alpha   90.00000000
_cell_angle_beta   126.33350609
_cell_angle_gamma   90.00000000
_symmetry_Int_Tables_number   1
_chemical_formula_structural   Pr2Mn3(SbS3)4
_chemical_formula_sum   'Pr4 Mn6 Sb8 S24'
_cell_volume   942.00006694
_cell_formula_units_Z   2
loop_
 _symmetry_equiv_pos_site_id
 _symmetry_equiv_pos_as_xyz
  1  'x, y, z'
loop_
 _atom_site_type_symbol
 _atom_site_label
 _atom_site_symmetry_multiplicity
 _atom_site_fract_x
 _atom_site_fract_y
 _atom_site_fract_z
 _atom_site_occupancy
  Pr  Pr0  1  0.27650834  0.47668621  0.87805300  1
  Pr  Pr1  1  0.73293410  0.50810109  0.14256143  1
  Pr  Pr2  1  0.76836434  0.05590377  0.88053476  1
  Pr  Pr3  1  0.23379272  0.90062082  0.12472299  1
  Mn  Mn4  1  0.29158014  0.40918543  0.59370598  1
  Mn  Mn5  1  0.69308606  0.48598260  0.35881352  1
  Mn  Mn6  1  0.00567609  0.97343404  0.01839393  1
  Mn  Mn7  1  0.79607905  0.97546493  0.63879349  1
  Mn  Mn8  1  0.21523181  0.05780814  0.40025604  1
  Mn  Mn9  1  0.47948144  0.48963935  0.97478164  1
  Sb  Sb10  1  0.88011759  0.86516275  0.45595800  1
  Sb  Sb11  1  0.11293403  0.96022409  0.54078317  1
  Sb  Sb12  1  0.03390333  0.49876764  0.82049710  1
  Sb  Sb13  1  0.96587442  0.45840821  0.20064595  1
  Sb  Sb14  1  0.41190085  0.56108408  0.46117936  1
  Sb  Sb15  1  0.60230555  0.57624131  0.53730169  1
  Sb  Sb16  1  0.53460104  0.94007447  0.80136153  1
  Sb  Sb17  1  0.46723190  0.96919452  0.18112955  1
  S  S18  1  0.93783800  0.99346801  0.81158151  1
  S  S19  1  0.06366389  0.01412621  0.19960521  1
  S  S20  1  0.41084049  0.00978904  0.97383852  1
  S  S21  1  0.57509814  0.04277913  0.00222431  1
  S  S22  1  0.16513718  0.96200220  0.87941012  1
  S  S23  1  0.83251881  0.02931551  0.10652383  1
  S  S24  1  0.09631189  0.47652407  0.64210685  1
  S  S25  1  0.90046870  0.41498074  0.35097123  1
  S  S26  1  0.72644302  0.99912738  0.30207705  1
  S  S27  1  0.26619625  0.92825349  0.67946857  1
  S  S28  1  0.16434636  0.45994040  0.44532552  1
  S  S29  1  0.81308118  0.51520414  0.53975639  1
  S  S30  1  0.43345858  0.47051424  0.79726754  1
  S  S31  1  0.55540765  0.48882180  0.18619399  1
  S  S32  1  0.91941496  0.51800608  0.99546224  1
  S  S33  1  0.08545343  0.47130168  0.02321799  1
  S  S34  1  0.68113473  0.54442598  0.90941518  1
  S  S35  1  0.33032430  0.44927517  0.09942450  1
  S  S36  1  0.60780717  0.00047156  0.66032019  1
  S  S37  1  0.40031425  0.04975350  0.33980431  1
  S  S38  1  0.24620227  0.53335303  0.33598850  1
  S  S39  1  0.77049693  0.48253302  0.70099923  1
  S  S40  1  0.67058765  0.99748705  0.44680888  1
  S  S41  1  0.33718812  0.91549228  0.54936403  1
