# generated using pymatgen
data_Pr2Mn3(SbS3)4
_symmetry_space_group_name_H-M   'P 1'
_cell_length_a   20.02960800
_cell_length_b   3.90410600
_cell_length_c   14.95364829
_cell_angle_alpha   90.00000000
_cell_angle_beta   126.33350609
_cell_angle_gamma   90.00000000
_symmetry_Int_Tables_number   1
_chemical_formula_structural   Pr2Mn3(SbS3)4
_chemical_formula_sum   'Pr4 Mn6 Sb8 S24'
_cell_volume   942.00006694
_cell_formula_units_Z   2
loop_
 _symmetry_equiv_pos_site_id
 _symmetry_equiv_pos_as_xyz
  1  'x, y, z'
loop_
 _atom_site_type_symbol
 _atom_site_label
 _atom_site_symmetry_multiplicity
 _atom_site_fract_x
 _atom_site_fract_y
 _atom_site_fract_z
 _atom_site_occupancy
  Pr  Pr0  1  0.27653411  0.47690871  0.87799112  1
  Pr  Pr1  1  0.73275661  0.50798068  0.14247656  1
  Pr  Pr2  1  0.76847993  0.05560327  0.88046704  1
  Pr  Pr3  1  0.23377470  0.90031182  0.12480767  1
  Mn  Mn4  1  0.29134065  0.40968369  0.59356661  1
  Mn  Mn5  1  0.69314379  0.48498535  0.35902073  1
  Mn  Mn6  1  0.00546464  0.97462899  0.01800560  1
  Mn  Mn7  1  0.79614246  0.97670690  0.63856911  1
  Mn  Mn8  1  0.21521052  0.05846853  0.40026406  1
  Mn  Mn9  1  0.47929437  0.48993848  0.97478366  1
  Sb  Sb10  1  0.88002256  0.86583383  0.45600495  1
  Sb  Sb11  1  0.11278271  0.96047468  0.54060438  1
  Sb  Sb12  1  0.03407838  0.49827371  0.82067115  1
  Sb  Sb13  1  0.96571529  0.45879541  0.20040998  1
  Sb  Sb14  1  0.41185365  0.56072931  0.46113098  1
  Sb  Sb15  1  0.60241862  0.57588250  0.53724281  1
  Sb  Sb16  1  0.53462605  0.94015286  0.80127415  1
  Sb  Sb17  1  0.46708644  0.96889349  0.18089759  1
  S  S18  1  0.93783099  0.99336340  0.81137344  1
  S  S19  1  0.06349019  0.01322713  0.19956134  1
  S  S20  1  0.41082872  0.00887067  0.97400928  1
  S  S21  1  0.57549437  0.04363178  0.00228502  1
  S  S22  1  0.16540252  0.96363071  0.87925271  1
  S  S23  1  0.83242487  0.02873083  0.10655916  1
  S  S24  1  0.09612404  0.47486237  0.64226906  1
  S  S25  1  0.90066698  0.41582006  0.35108477  1
  S  S26  1  0.72645842  0.99842722  0.30198406  1
  S  S27  1  0.26617760  0.92898318  0.67948829  1
  S  S28  1  0.16421487  0.45939129  0.44539028  1
  S  S29  1  0.81301670  0.51734113  0.53961354  1
  S  S30  1  0.43348853  0.47121137  0.79721175  1
  S  S31  1  0.55536407  0.48904127  0.18615211  1
  S  S32  1  0.91947841  0.51893932  0.99532407  1
  S  S33  1  0.08571881  0.47145497  0.02354274  1
  S  S34  1  0.68080779  0.54385860  0.90902277  1
  S  S35  1  0.33009827  0.44866493  0.09944656  1
  S  S36  1  0.60772130  0.99941241  0.66021788  1
  S  S37  1  0.40006029  0.04962043  0.33937354  1
  S  S38  1  0.24596190  0.53250542  0.33612820  1
  S  S39  1  0.77039198  0.48252266  0.70064884  1
  S  S40  1  0.67044466  0.99778765  0.44670566  1
  S  S41  1  0.33713340  0.91552791  0.54908529  1
