# generated using pymatgen
data_Pr2Mn3(SbS3)4
_symmetry_space_group_name_H-M   'P 1'
_cell_length_a   20.02960800
_cell_length_b   3.90410600
_cell_length_c   14.95364829
_cell_angle_alpha   90.00000000
_cell_angle_beta   126.33350609
_cell_angle_gamma   90.00000000
_symmetry_Int_Tables_number   1
_chemical_formula_structural   Pr2Mn3(SbS3)4
_chemical_formula_sum   'Pr4 Mn6 Sb8 S24'
_cell_volume   942.00006694
_cell_formula_units_Z   2
loop_
 _symmetry_equiv_pos_site_id
 _symmetry_equiv_pos_as_xyz
  1  'x, y, z'
loop_
 _atom_site_type_symbol
 _atom_site_label
 _atom_site_symmetry_multiplicity
 _atom_site_fract_x
 _atom_site_fract_y
 _atom_site_fract_z
 _atom_site_occupancy
  Pr  Pr0  1  0.27658025  0.47707031  0.87799590  1
  Pr  Pr1  1  0.73261300  0.50789369  0.14248913  1
  Pr  Pr2  1  0.76855393  0.05543475  0.88035195  1
  Pr  Pr3  1  0.23371022  0.89993484  0.12479148  1
  Mn  Mn4  1  0.29115548  0.41015922  0.59344130  1
  Mn  Mn5  1  0.69340784  0.48395093  0.35935935  1
  Mn  Mn6  1  0.00528795  0.97606348  0.01769685  1
  Mn  Mn7  1  0.79620223  0.97791009  0.63836530  1
  Mn  Mn8  1  0.21524463  0.05923954  0.40039340  1
  Mn  Mn9  1  0.47913218  0.49034802  0.97484370  1
  Sb  Sb10  1  0.87993900  0.86647961  0.45601785  1
  Sb  Sb11  1  0.11266838  0.96079199  0.54052072  1
  Sb  Sb12  1  0.03420390  0.49775899  0.82083452  1
  Sb  Sb13  1  0.96560962  0.45903786  0.20029583  1
  Sb  Sb14  1  0.41180745  0.56049665  0.46106533  1
  Sb  Sb15  1  0.60244325  0.57540479  0.53704674  1
  Sb  Sb16  1  0.53463643  0.94036816  0.80119910  1
  Sb  Sb17  1  0.46694069  0.96870912  0.18067382  1
  S  S18  1  0.93774749  0.99290612  0.81116943  1
  S  S19  1  0.06339759  0.01267113  0.19971657  1
  S  S20  1  0.41073712  0.00802513  0.97400768  1
  S  S21  1  0.57590099  0.04486371  0.00232243  1
  S  S22  1  0.16568278  0.96510250  0.87912130  1
  S  S23  1  0.83235443  0.02798251  0.10650452  1
  S  S24  1  0.09599151  0.47321473  0.64238880  1
  S  S25  1  0.90090859  0.41651112  0.35136065  1
  S  S26  1  0.72651815  0.99791975  0.30178070  1
  S  S27  1  0.26606756  0.92951193  0.67945295  1
  S  S28  1  0.16405905  0.45902054  0.44544696  1
  S  S29  1  0.81306258  0.51942594  0.53946797  1
  S  S30  1  0.43364019  0.47155395  0.79728707  1
  S  S31  1  0.55541038  0.48929948  0.18612510  1
  S  S32  1  0.91957037  0.51993490  0.99518070  1
  S  S33  1  0.08598053  0.47142013  0.02365616  1
  S  S34  1  0.68049930  0.54271779  0.90858461  1
  S  S35  1  0.32993593  0.44814696  0.09937411  1
  S  S36  1  0.60760181  0.99853032  0.66023213  1
  S  S37  1  0.39988062  0.04957021  0.33895321  1
  S  S38  1  0.24583638  0.53175594  0.33643763  1
  S  S39  1  0.77035265  0.48252266  0.70027680  1
  S  S40  1  0.67027582  0.99835585  0.44652064  1
  S  S41  1  0.33707429  0.91562634  0.54887978  1
