# generated using pymatgen
data_Pr2Mn3(SbS3)4
_symmetry_space_group_name_H-M   'P 1'
_cell_length_a   20.02960800
_cell_length_b   3.90410600
_cell_length_c   14.95364829
_cell_angle_alpha   90.00000000
_cell_angle_beta   126.33350609
_cell_angle_gamma   90.00000000
_symmetry_Int_Tables_number   1
_chemical_formula_structural   Pr2Mn3(SbS3)4
_chemical_formula_sum   'Pr4 Mn6 Sb8 S24'
_cell_volume   942.00006694
_cell_formula_units_Z   2
loop_
 _symmetry_equiv_pos_site_id
 _symmetry_equiv_pos_as_xyz
  1  'x, y, z'
loop_
 _atom_site_type_symbol
 _atom_site_label
 _atom_site_symmetry_multiplicity
 _atom_site_fract_x
 _atom_site_fract_y
 _atom_site_fract_z
 _atom_site_occupancy
  Pr  Pr0  1  0.27663854  0.47713483  0.87796336  1
  Pr  Pr1  1  0.73244617  0.50778173  0.14241931  1
  Pr  Pr2  1  0.76863191  0.05526085  0.88025192  1
  Pr  Pr3  1  0.23372228  0.89944874  0.12489033  1
  Mn  Mn4  1  0.29094007  0.41047195  0.59330260  1
  Mn  Mn5  1  0.69378466  0.48310352  0.35972780  1
  Mn  Mn6  1  0.00520338  0.97733722  0.01749135  1
  Mn  Mn7  1  0.79621539  0.97894447  0.63813345  1
  Mn  Mn8  1  0.21523159  0.06034049  0.40049656  1
  Mn  Mn9  1  0.47899041  0.49043288  0.97491135  1
  Sb  Sb10  1  0.87990319  0.86693844  0.45599470  1
  Sb  Sb11  1  0.11254210  0.96111926  0.54040899  1
  Sb  Sb12  1  0.03432028  0.49764115  0.82099544  1
  Sb  Sb13  1  0.96549099  0.45921926  0.20018820  1
  Sb  Sb14  1  0.41182500  0.56042795  0.46107371  1
  Sb  Sb15  1  0.60243595  0.57504596  0.53683680  1
  Sb  Sb16  1  0.53459348  0.94042901  0.80106800  1
  Sb  Sb17  1  0.46682073  0.96827715  0.18049388  1
  S  S18  1  0.93776658  0.99246284  0.81101137  1
  S  S19  1  0.06342805  0.01261817  0.20002259  1
  S  S20  1  0.41053309  0.00702965  0.97390748  1
  S  S21  1  0.57618937  0.04620290  0.00244289  1
  S  S22  1  0.16596435  0.96641494  0.87901115  1
  S  S23  1  0.83225144  0.02765569  0.10649727  1
  S  S24  1  0.09584662  0.47185330  0.64263164  1
  S  S25  1  0.90115590  0.41715406  0.35168177  1
  S  S26  1  0.72677020  0.99724985  0.30169498  1
  S  S27  1  0.26589504  0.93011308  0.67921701  1
  S  S28  1  0.16384853  0.45841543  0.44538555  1
  S  S29  1  0.81301256  0.52124328  0.53917180  1
  S  S30  1  0.43372569  0.47175947  0.79718710  1
  S  S31  1  0.55531241  0.48988377  0.18613041  1
  S  S32  1  0.91961877  0.52106470  0.99492905  1
  S  S33  1  0.08621910  0.47125154  0.02362760  1
  S  S34  1  0.68021489  0.54181024  0.90815495  1
  S  S35  1  0.32965411  0.44777966  0.09922667  1
  S  S36  1  0.60739450  0.99775669  0.66006654  1
  S  S37  1  0.39976877  0.05008091  0.33865522  1
  S  S38  1  0.24584539  0.53067323  0.33686980  1
  S  S39  1  0.77009451  0.48262997  0.69974779  1
  S  S40  1  0.67006520  0.99895121  0.44625211  1
  S  S41  1  0.33715236  0.91613922  0.54872943  1
