# generated using pymatgen
data_Pr2Mn3(SbS3)4
_symmetry_space_group_name_H-M   'P 1'
_cell_length_a   20.02960800
_cell_length_b   3.90410600
_cell_length_c   14.95364829
_cell_angle_alpha   90.00000000
_cell_angle_beta   126.33350609
_cell_angle_gamma   90.00000000
_symmetry_Int_Tables_number   1
_chemical_formula_structural   Pr2Mn3(SbS3)4
_chemical_formula_sum   'Pr4 Mn6 Sb8 S24'
_cell_volume   942.00006694
_cell_formula_units_Z   2
loop_
 _symmetry_equiv_pos_site_id
 _symmetry_equiv_pos_as_xyz
  1  'x, y, z'
loop_
 _atom_site_type_symbol
 _atom_site_label
 _atom_site_symmetry_multiplicity
 _atom_site_fract_x
 _atom_site_fract_y
 _atom_site_fract_z
 _atom_site_occupancy
  Pr  Pr0  1  0.27670673  0.47722113  0.87795763  1
  Pr  Pr1  1  0.73227765  0.50781998  0.14240343  1
  Pr  Pr2  1  0.76873979  0.05503658  0.88024993  1
  Pr  Pr3  1  0.23371098  0.89901062  0.12502362  1
  Mn  Mn4  1  0.29077215  0.41075327  0.59315129  1
  Mn  Mn5  1  0.69412955  0.48202187  0.36009673  1
  Mn  Mn6  1  0.00514672  0.97912047  0.01725934  1
  Mn  Mn7  1  0.79627671  0.97999502  0.63796854  1
  Mn  Mn8  1  0.21526062  0.06147499  0.40066804  1
  Mn  Mn9  1  0.47880318  0.49083119  0.97499066  1
  Sb  Sb10  1  0.87993484  0.86733777  0.45603008  1
  Sb  Sb11  1  0.11250389  0.96157242  0.54038135  1
  Sb  Sb12  1  0.03448387  0.49740363  0.82114293  1
  Sb  Sb13  1  0.96545212  0.45975532  0.20012152  1
  Sb  Sb14  1  0.41184535  0.56021601  0.46110077  1
  Sb  Sb15  1  0.60241968  0.57477975  0.53663284  1
  Sb  Sb16  1  0.53458170  0.94061645  0.80102631  1
  Sb  Sb17  1  0.46665173  0.96789049  0.18023166  1
  S  S18  1  0.93778063  0.99238916  0.81100365  1
  S  S19  1  0.06350151  0.01182287  0.20031673  1
  S  S20  1  0.41043731  0.00619679  0.97391969  1
  S  S21  1  0.57650598  0.04713620  0.00253839  1
  S  S22  1  0.16614652  0.96751622  0.87889655  1
  S  S23  1  0.83196165  0.02721708  0.10656406  1
  S  S24  1  0.09565469  0.47006853  0.64288321  1
  S  S25  1  0.90138061  0.41756849  0.35193048  1
  S  S26  1  0.72701662  0.99656255  0.30155667  1
  S  S27  1  0.26561989  0.93077696  0.67890175  1
  S  S28  1  0.16367632  0.45774905  0.44541223  1
  S  S29  1  0.81303704  0.52398715  0.53902756  1
  S  S30  1  0.43382328  0.47152067  0.79708846  1
  S  S31  1  0.55516932  0.49006299  0.18599682  1
  S  S32  1  0.91980781  0.52218917  0.99474582  1
  S  S33  1  0.08635948  0.47130268  0.02366546  1
  S  S34  1  0.67988518  0.54101532  0.90762378  1
  S  S35  1  0.32936640  0.44762286  0.09914605  1
  S  S36  1  0.60708593  0.99711207  0.65995822  1
  S  S37  1  0.39963781  0.05097274  0.33836863  1
  S  S38  1  0.24581585  0.52990096  0.33724510  1
  S  S39  1  0.76990083  0.48285152  0.69930842  1
  S  S40  1  0.66999069  0.99899073  0.44612001  1
  S  S41  1  0.33735111  0.91610807  0.54861398  1
