# generated using pymatgen
data_Pr2Mn3(SbS3)4
_symmetry_space_group_name_H-M   'P 1'
_cell_length_a   20.02960800
_cell_length_b   3.90410600
_cell_length_c   14.95364829
_cell_angle_alpha   90.00000000
_cell_angle_beta   126.33350609
_cell_angle_gamma   90.00000000
_symmetry_Int_Tables_number   1
_chemical_formula_structural   Pr2Mn3(SbS3)4
_chemical_formula_sum   'Pr4 Mn6 Sb8 S24'
_cell_volume   942.00006694
_cell_formula_units_Z   2
loop_
 _symmetry_equiv_pos_site_id
 _symmetry_equiv_pos_as_xyz
  1  'x, y, z'
loop_
 _atom_site_type_symbol
 _atom_site_label
 _atom_site_symmetry_multiplicity
 _atom_site_fract_x
 _atom_site_fract_y
 _atom_site_fract_z
 _atom_site_occupancy
  Pr  Pr0  1  0.27679072  0.47715535  0.87789891  1
  Pr  Pr1  1  0.73210059  0.50804263  0.14236673  1
  Pr  Pr2  1  0.76882611  0.05493303  0.88020913  1
  Pr  Pr3  1  0.23371578  0.89873682  0.12516372  1
  Mn  Mn4  1  0.29062802  0.41058997  0.59294530  1
  Mn  Mn5  1  0.69440637  0.48112379  0.36034327  1
  Mn  Mn6  1  0.00509871  0.98085149  0.01719968  1
  Mn  Mn7  1  0.79637688  0.98071089  0.63792550  1
  Mn  Mn8  1  0.21519924  0.06235240  0.40079446  1
  Mn  Mn9  1  0.47868700  0.49077513  0.97506759  1
  Sb  Sb10  1  0.87997936  0.86776637  0.45609294  1
  Sb  Sb11  1  0.11250706  0.96201198  0.54038596  1
  Sb  Sb12  1  0.03463962  0.49701106  0.82131597  1
  Sb  Sb13  1  0.96538955  0.46048377  0.20007413  1
  Sb  Sb14  1  0.41189175  0.55991348  0.46111600  1
  Sb  Sb15  1  0.60237695  0.57442758  0.53639095  1
  Sb  Sb16  1  0.53461970  0.94067758  0.80105866  1
  Sb  Sb17  1  0.46649198  0.96744032  0.18002681  1
  S  S18  1  0.93786084  0.99203734  0.81105553  1
  S  S19  1  0.06355319  0.01151829  0.20061600  1
  S  S20  1  0.41026288  0.00528352  0.97391995  1
  S  S21  1  0.57686428  0.04759348  0.00272377  1
  S  S22  1  0.16632679  0.96839388  0.87879677  1
  S  S23  1  0.83173015  0.02728637  0.10672492  1
  S  S24  1  0.09535081  0.46839831  0.64308157  1
  S  S25  1  0.90152167  0.41797598  0.35211449  1
  S  S26  1  0.72721863  0.99557602  0.30136821  1
  S  S27  1  0.26538082  0.93124387  0.67848002  1
  S  S28  1  0.16345236  0.45774230  0.44545608  1
  S  S29  1  0.81305687  0.52637303  0.53897051  1
  S  S30  1  0.43392163  0.47144391  0.79706925  1
  S  S31  1  0.55508281  0.48987492  0.18592861  1
  S  S32  1  0.91996829  0.52329277  0.99464583  1
  S  S33  1  0.08644623  0.47168207  0.02367408  1
  S  S34  1  0.67958346  0.54069748  0.90704687  1
  S  S35  1  0.32924644  0.44770451  0.09928940  1
  S  S36  1  0.60683551  0.99659409  0.65996667  1
  S  S37  1  0.39946086  0.05213165  0.33798780  1
  S  S38  1  0.24566404  0.52875926  0.33748266  1
  S  S39  1  0.76959383  0.48281004  0.69881974  1
  S  S40  1  0.67003342  0.99919262  0.44619712  1
  S  S41  1  0.33760182  0.91585238  0.54854669  1
