# generated using pymatgen
data_Pr2Mn3(SbS3)4
_symmetry_space_group_name_H-M   'P 1'
_cell_length_a   20.02960800
_cell_length_b   3.90410600
_cell_length_c   14.95364829
_cell_angle_alpha   90.00000000
_cell_angle_beta   126.33350609
_cell_angle_gamma   90.00000000
_symmetry_Int_Tables_number   1
_chemical_formula_structural   Pr2Mn3(SbS3)4
_chemical_formula_sum   'Pr4 Mn6 Sb8 S24'
_cell_volume   942.00006694
_cell_formula_units_Z   2
loop_
 _symmetry_equiv_pos_site_id
 _symmetry_equiv_pos_as_xyz
  1  'x, y, z'
loop_
 _atom_site_type_symbol
 _atom_site_label
 _atom_site_symmetry_multiplicity
 _atom_site_fract_x
 _atom_site_fract_y
 _atom_site_fract_z
 _atom_site_occupancy
  Pr  Pr0  1  0.27678957  0.47712780  0.87777687  1
  Pr  Pr1  1  0.73190520  0.50814345  0.14235729  1
  Pr  Pr2  1  0.76898337  0.05503065  0.88031489  1
  Pr  Pr3  1  0.23373148  0.89838532  0.12535825  1
  Mn  Mn4  1  0.29049327  0.41061975  0.59270128  1
  Mn  Mn5  1  0.69466521  0.48039229  0.36050251  1
  Mn  Mn6  1  0.00499537  0.98269890  0.01706984  1
  Mn  Mn7  1  0.79646608  0.98109252  0.63778013  1
  Mn  Mn8  1  0.21503381  0.06321810  0.40078739  1
  Mn  Mn9  1  0.47855641  0.49102967  0.97510953  1
  Sb  Sb10  1  0.88003139  0.86817747  0.45612945  1
  Sb  Sb11  1  0.11255793  0.96235722  0.54046046  1
  Sb  Sb12  1  0.03478722  0.49667638  0.82145169  1
  Sb  Sb13  1  0.96529536  0.46116503  0.20003432  1
  Sb  Sb14  1  0.41188667  0.55940973  0.46107342  1
  Sb  Sb15  1  0.60237815  0.57420513  0.53622297  1
  Sb  Sb16  1  0.53467024  0.94067875  0.80115877  1
  Sb  Sb17  1  0.46636871  0.96690750  0.17985371  1
  S  S18  1  0.93798023  0.99193077  0.81107750  1
  S  S19  1  0.06354425  0.01125216  0.20086586  1
  S  S20  1  0.41013317  0.00450375  0.97397467  1
  S  S21  1  0.57723601  0.04802475  0.00298897  1
  S  S22  1  0.16638123  0.96907789  0.87852276  1
  S  S23  1  0.83158204  0.02776164  0.10696899  1
  S  S24  1  0.09508171  0.46650257  0.64331697  1
  S  S25  1  0.90161612  0.41808944  0.35232566  1
  S  S26  1  0.72741025  0.99518192  0.30140481  1
  S  S27  1  0.26512126  0.93154554  0.67802693  1
  S  S28  1  0.16320499  0.45768639  0.44549519  1
  S  S29  1  0.81312159  0.52870538  0.53888357  1
  S  S30  1  0.43400759  0.47130338  0.79702182  1
  S  S31  1  0.55513721  0.48941700  0.18578915  1
  S  S32  1  0.92007536  0.52386729  0.99448124  1
  S  S33  1  0.08644495  0.47217709  0.02370194  1
  S  S34  1  0.67910076  0.54084383  0.90628357  1
  S  S35  1  0.32905625  0.44821256  0.09934404  1
  S  S36  1  0.60665121  0.99642690  0.65992731  1
  S  S37  1  0.39937226  0.05281648  0.33764978  1
  S  S38  1  0.24553591  0.52799884  0.33778780  1
  S  S39  1  0.76922472  0.48312248  0.69826386  1
  S  S40  1  0.67013570  0.99933351  0.44638953  1
  S  S41  1  0.33780771  0.91582493  0.54860632  1
