# generated using pymatgen
data_Pr2Mn3(SbS3)4
_symmetry_space_group_name_H-M   'P 1'
_cell_length_a   20.02960800
_cell_length_b   3.90410600
_cell_length_c   14.95364829
_cell_angle_alpha   90.00000000
_cell_angle_beta   126.33350609
_cell_angle_gamma   90.00000000
_symmetry_Int_Tables_number   1
_chemical_formula_structural   Pr2Mn3(SbS3)4
_chemical_formula_sum   'Pr4 Mn6 Sb8 S24'
_cell_volume   942.00006694
_cell_formula_units_Z   2
loop_
 _symmetry_equiv_pos_site_id
 _symmetry_equiv_pos_as_xyz
  1  'x, y, z'
loop_
 _atom_site_type_symbol
 _atom_site_label
 _atom_site_symmetry_multiplicity
 _atom_site_fract_x
 _atom_site_fract_y
 _atom_site_fract_z
 _atom_site_occupancy
  Pr  Pr0  1  0.27681750  0.47722866  0.87771100  1
  Pr  Pr1  1  0.73172832  0.50831999  0.14234052  1
  Pr  Pr2  1  0.76912950  0.05520883  0.88037635  1
  Pr  Pr3  1  0.23374091  0.89802783  0.12549667  1
  Mn  Mn4  1  0.29046136  0.41065920  0.59259678  1
  Mn  Mn5  1  0.69497058  0.47946700  0.36069787  1
  Mn  Mn6  1  0.00498561  0.98417395  0.01703337  1
  Mn  Mn7  1  0.79644531  0.98110608  0.63753556  1
  Mn  Mn8  1  0.21499196  0.06375492  0.40079932  1
  Mn  Mn9  1  0.47842002  0.49112738  0.97512953  1
  Sb  Sb10  1  0.88012534  0.86884157  0.45622751  1
  Sb  Sb11  1  0.11264311  0.96285338  0.54057382  1
  Sb  Sb12  1  0.03492655  0.49632372  0.82161357  1
  Sb  Sb13  1  0.96522606  0.46192866  0.19994907  1
  Sb  Sb14  1  0.41197696  0.55889866  0.46104672  1
  Sb  Sb15  1  0.60235710  0.57399769  0.53607045  1
  Sb  Sb16  1  0.53468694  0.94094722  0.80124302  1
  Sb  Sb17  1  0.46625476  0.96673732  0.17971945  1
  S  S18  1  0.93815401  0.99193286  0.81101360  1
  S  S19  1  0.06355824  0.01050895  0.20114612  1
  S  S20  1  0.41006729  0.00402965  0.97395708  1
  S  S21  1  0.57756812  0.04886859  0.00304137  1
  S  S22  1  0.16641038  0.96954803  0.87842918  1
  S  S23  1  0.83152274  0.02879901  0.10718211  1
  S  S24  1  0.09477475  0.46436319  0.64342556  1
  S  S25  1  0.90180801  0.41829304  0.35251035  1
  S  S26  1  0.72753586  0.99546173  0.30138782  1
  S  S27  1  0.26485457  0.93171787  0.67767936  1
  S  S28  1  0.16295968  0.45719109  0.44552172  1
  S  S29  1  0.81312866  0.53105962  0.53875063  1
  S  S30  1  0.43407057  0.47151071  0.79701675  1
  S  S31  1  0.55528565  0.48904805  0.18586146  1
  S  S32  1  0.92008207  0.52399611  0.99417951  1
  S  S33  1  0.08656284  0.47242569  0.02381098  1
  S  S34  1  0.67854212  0.54046618  0.90541055  1
  S  S35  1  0.32884394  0.44840300  0.09937096  1
  S  S36  1  0.60652616  0.99699904  0.65989452  1
  S  S37  1  0.39932301  0.05339093  0.33739441  1
  S  S38  1  0.24544293  0.52738553  0.33817721  1
  S  S39  1  0.76894232  0.48350827  0.69776086  1
  S  S40  1  0.67031706  0.99950984  0.44658079  1
  S  S41  1  0.33813329  0.91536463  0.54874407  1
