# generated using pymatgen
data_Pr2Mn3(SbS3)4
_symmetry_space_group_name_H-M   'P 1'
_cell_length_a   20.02960800
_cell_length_b   3.90410600
_cell_length_c   14.95364829
_cell_angle_alpha   90.00000000
_cell_angle_beta   126.33350609
_cell_angle_gamma   90.00000000
_symmetry_Int_Tables_number   1
_chemical_formula_structural   Pr2Mn3(SbS3)4
_chemical_formula_sum   'Pr4 Mn6 Sb8 S24'
_cell_volume   942.00006694
_cell_formula_units_Z   2
loop_
 _symmetry_equiv_pos_site_id
 _symmetry_equiv_pos_as_xyz
  1  'x, y, z'
loop_
 _atom_site_type_symbol
 _atom_site_label
 _atom_site_symmetry_multiplicity
 _atom_site_fract_x
 _atom_site_fract_y
 _atom_site_fract_z
 _atom_site_occupancy
  Pr  Pr0  1  0.26437642  0.47158571  0.86773096  1
  Pr  Pr1  1  0.73683179  0.52415509  0.13717429  1
  Pr  Pr2  1  0.76463119  0.01089763  0.86469449  1
  Pr  Pr3  1  0.23727234  0.00646133  0.13802377  1
  Mn  Mn4  1  0.29317659  0.48403773  0.60169896  1
  Mn  Mn5  1  0.69277551  0.51760136  0.38079884  1
  Mn  Mn6  1  0.00889362  0.99583336  0.01293430  1
  Mn  Mn7  1  0.80412115  0.01109397  0.61406584  1
  Mn  Mn8  1  0.19604871  0.97455348  0.37690199  1
  Mn  Mn9  1  0.49715591  0.45101882  0.98912616  1
  Sb  Sb10  1  0.89020880  0.99122012  0.45204199  1
  Sb  Sb11  1  0.11141865  0.97079446  0.54983349  1
  Sb  Sb12  1  0.03898472  0.51853229  0.81749963  1
  Sb  Sb13  1  0.96416169  0.51022190  0.18585669  1
  Sb  Sb14  1  0.39557227  0.51157955  0.45551608  1
  Sb  Sb15  1  0.60641989  0.47996556  0.54690346  1
  Sb  Sb16  1  0.53520574  0.00952186  0.81191221  1
  Sb  Sb17  1  0.46087617  0.01506227  0.18180811  1
  S  S18  1  0.93365964  0.98994630  0.80362165  1
  S  S19  1  0.06659390  0.97808404  0.18623031  1
  S  S20  1  0.41038231  0.00229916  0.97965077  1
  S  S21  1  0.59083337  0.99599723  0.02123044  1
  S  S22  1  0.17048461  0.99894010  0.89596276  1
  S  S23  1  0.82491427  0.01531296  0.09500993  1
  S  S24  1  0.08777094  0.48529638  0.64315005  1
  S  S25  1  0.90810192  0.46545548  0.35374118  1
  S  S26  1  0.73990891  0.96170713  0.29666994  1
  S  S27  1  0.25895886  0.00000293  0.70639499  1
  S  S28  1  0.17013753  0.47509579  0.44125533  1
  S  S29  1  0.82867864  0.48960330  0.54792163  1
  S  S30  1  0.43353924  0.50274190  0.79499380  1
  S  S31  1  0.56178632  0.51111025  0.18118924  1
  S  S32  1  0.91534864  0.50746466  0.99377269  1
  S  S33  1  0.08245941  0.49205785  0.01329415  1
  S  S34  1  0.66700879  0.49283497  0.88871331  1
  S  S35  1  0.32730007  0.50873483  0.09147794  1
  S  S36  1  0.59701138  0.99571847  0.66147043  1
  S  S37  1  0.40692410  0.97659511  0.34738469  1
  S  S38  1  0.24697300  0.44207017  0.31481113  1
  S  S39  1  0.76434781  0.50524110  0.70318690  1
  S  S40  1  0.67462088  0.02853898  0.45787492  1
  S  S41  1  0.32491463  0.96972715  0.54482357  1
