# generated using pymatgen
data_Pr2Mn3(SbS3)4
_symmetry_space_group_name_H-M   'P 1'
_cell_length_a   20.02960800
_cell_length_b   3.90410600
_cell_length_c   14.95364829
_cell_angle_alpha   90.00000000
_cell_angle_beta   126.33350609
_cell_angle_gamma   90.00000000
_symmetry_Int_Tables_number   1
_chemical_formula_structural   Pr2Mn3(SbS3)4
_chemical_formula_sum   'Pr4 Mn6 Sb8 S24'
_cell_volume   942.00006694
_cell_formula_units_Z   2
loop_
 _symmetry_equiv_pos_site_id
 _symmetry_equiv_pos_as_xyz
  1  'x, y, z'
loop_
 _atom_site_type_symbol
 _atom_site_label
 _atom_site_symmetry_multiplicity
 _atom_site_fract_x
 _atom_site_fract_y
 _atom_site_fract_z
 _atom_site_occupancy
  Pr  Pr0  1  0.27683600  0.47744954  0.87764419  1
  Pr  Pr1  1  0.73161289  0.50866712  0.14239105  1
  Pr  Pr2  1  0.76927042  0.05553953  0.88041542  1
  Pr  Pr3  1  0.23372953  0.89771547  0.12564925  1
  Mn  Mn4  1  0.29044921  0.41084607  0.59246675  1
  Mn  Mn5  1  0.69518947  0.47819950  0.36091589  1
  Mn  Mn6  1  0.00499727  0.98514762  0.01698646  1
  Mn  Mn7  1  0.79652795  0.98111812  0.63737422  1
  Mn  Mn8  1  0.21483252  0.06465464  0.40066504  1
  Mn  Mn9  1  0.47822431  0.49126460  0.97507032  1
  Sb  Sb10  1  0.88021395  0.86961065  0.45629551  1
  Sb  Sb11  1  0.11275768  0.96359903  0.54063178  1
  Sb  Sb12  1  0.03504273  0.49621825  0.82166237  1
  Sb  Sb13  1  0.96512427  0.46273242  0.19970386  1
  Sb  Sb14  1  0.41201597  0.55825386  0.46101321  1
  Sb  Sb15  1  0.60232273  0.57400789  0.53589489  1
  Sb  Sb16  1  0.53477105  0.94124377  0.80137727  1
  Sb  Sb17  1  0.46615864  0.96677097  0.17962301  1
  S  S18  1  0.93837808  0.99134951  0.81105850  1
  S  S19  1  0.06356786  0.01003666  0.20145066  1
  S  S20  1  0.41012830  0.00324066  0.97414009  1
  S  S21  1  0.57783694  0.04976433  0.00308177  1
  S  S22  1  0.16636448  0.96967614  0.87825287  1
  S  S23  1  0.83143042  0.03002680  0.10748486  1
  S  S24  1  0.09449806  0.46283930  0.64332320  1
  S  S25  1  0.90206945  0.41853537  0.35286436  1
  S  S26  1  0.72766365  0.99540993  0.30131600  1
  S  S27  1  0.26444494  0.93165614  0.67726376  1
  S  S28  1  0.16280839  0.45652704  0.44559518  1
  S  S29  1  0.81317229  0.53280591  0.53855937  1
  S  S30  1  0.43412345  0.47173112  0.79687682  1
  S  S31  1  0.55539573  0.48850241  0.18600361  1
  S  S32  1  0.92013732  0.52442128  0.99406940  1
  S  S33  1  0.08667521  0.47296660  0.02398846  1
  S  S34  1  0.67799691  0.53998564  0.90451854  1
  S  S35  1  0.32873381  0.44897632  0.09959259  1
  S  S36  1  0.60645315  0.99691016  0.65989378  1
  S  S37  1  0.39930250  0.05371377  0.33715411  1
  S  S38  1  0.24508646  0.52627394  0.33821008  1
  S  S39  1  0.76863847  0.48382157  0.69738846  1
  S  S40  1  0.67041947  0.00001869  0.44674784  1
  S  S41  1  0.33835685  0.91508416  0.54881962  1
