# generated using pymatgen
data_Pr2Mn3(SbS3)4
_symmetry_space_group_name_H-M   'P 1'
_cell_length_a   20.02960800
_cell_length_b   3.90410600
_cell_length_c   14.95364829
_cell_angle_alpha   90.00000000
_cell_angle_beta   126.33350609
_cell_angle_gamma   90.00000000
_symmetry_Int_Tables_number   1
_chemical_formula_structural   Pr2Mn3(SbS3)4
_chemical_formula_sum   'Pr4 Mn6 Sb8 S24'
_cell_volume   942.00006694
_cell_formula_units_Z   2
loop_
 _symmetry_equiv_pos_site_id
 _symmetry_equiv_pos_as_xyz
  1  'x, y, z'
loop_
 _atom_site_type_symbol
 _atom_site_label
 _atom_site_symmetry_multiplicity
 _atom_site_fract_x
 _atom_site_fract_y
 _atom_site_fract_z
 _atom_site_occupancy
  Pr  Pr0  1  0.27690553  0.47750858  0.87766856  1
  Pr  Pr1  1  0.73153130  0.50911944  0.14241040  1
  Pr  Pr2  1  0.76942779  0.05580882  0.88053647  1
  Pr  Pr3  1  0.23371445  0.89757192  0.12580742  1
  Mn  Mn4  1  0.29053192  0.41111585  0.59245682  1
  Mn  Mn5  1  0.69539796  0.47713322  0.36119971  1
  Mn  Mn6  1  0.00499328  0.98611465  0.01689590  1
  Mn  Mn7  1  0.79665670  0.98066898  0.63721419  1
  Mn  Mn8  1  0.21466638  0.06577913  0.40043227  1
  Mn  Mn9  1  0.47802396  0.49140969  0.97505216  1
  Sb  Sb10  1  0.88027528  0.87016366  0.45632174  1
  Sb  Sb11  1  0.11286105  0.96408059  0.54062708  1
  Sb  Sb12  1  0.03509691  0.49602367  0.82164494  1
  Sb  Sb13  1  0.96505060  0.46342798  0.19946811  1
  Sb  Sb14  1  0.41203693  0.55749392  0.46089950  1
  Sb  Sb15  1  0.60226496  0.57415585  0.53571534  1
  Sb  Sb16  1  0.53479778  0.94173666  0.80152372  1
  Sb  Sb17  1  0.46608272  0.96663008  0.17949835  1
  S  S18  1  0.93865157  0.99107038  0.81121541  1
  S  S19  1  0.06359685  0.00973864  0.20181644  1
  S  S20  1  0.41017383  0.00244891  0.97418475  1
  S  S21  1  0.57811973  0.05016473  0.00289801  1
  S  S22  1  0.16637689  0.96970583  0.87830016  1
  S  S23  1  0.83126642  0.03073018  0.10763755  1
  S  S24  1  0.09424777  0.46159629  0.64326954  1
  S  S25  1  0.90230971  0.41911918  0.35324794  1
  S  S26  1  0.72763010  0.99573524  0.30100465  1
  S  S27  1  0.26396656  0.93209937  0.67671156  1
  S  S28  1  0.16272420  0.45582097  0.44565747  1
  S  S29  1  0.81306815  0.53434801  0.53833876  1
  S  S30  1  0.43425292  0.47210165  0.79685580  1
  S  S31  1  0.55548940  0.48840779  0.18627629  1
  S  S32  1  0.92019769  0.52448917  0.99398745  1
  S  S33  1  0.08686464  0.47322425  0.02417907  1
  S  S34  1  0.67749212  0.53960838  0.90370829  1
  S  S35  1  0.32853189  0.44947482  0.09958554  1
  S  S36  1  0.60634724  0.99653717  0.65984638  1
  S  S37  1  0.39926562  0.05449540  0.33690071  1
  S  S38  1  0.24480106  0.52511236  0.33837991  1
  S  S39  1  0.76835081  0.48432401  0.69717431  1
  S  S40  1  0.67047400  0.00013787  0.44681572  1
  S  S41  1  0.33852348  0.91515971  0.54873510  1
