# generated using pymatgen
data_Pr2Mn3(SbS3)4
_symmetry_space_group_name_H-M   'P 1'
_cell_length_a   20.02960800
_cell_length_b   3.90410600
_cell_length_c   14.95364829
_cell_angle_alpha   90.00000000
_cell_angle_beta   126.33350609
_cell_angle_gamma   90.00000000
_symmetry_Int_Tables_number   1
_chemical_formula_structural   Pr2Mn3(SbS3)4
_chemical_formula_sum   'Pr4 Mn6 Sb8 S24'
_cell_volume   942.00006694
_cell_formula_units_Z   2
loop_
 _symmetry_equiv_pos_site_id
 _symmetry_equiv_pos_as_xyz
  1  'x, y, z'
loop_
 _atom_site_type_symbol
 _atom_site_label
 _atom_site_symmetry_multiplicity
 _atom_site_fract_x
 _atom_site_fract_y
 _atom_site_fract_z
 _atom_site_occupancy
  Pr  Pr0  1  0.27698825  0.47752303  0.87767904  1
  Pr  Pr1  1  0.73142724  0.50950760  0.14241934  1
  Pr  Pr2  1  0.76958216  0.05600358  0.88066741  1
  Pr  Pr3  1  0.23368678  0.89746340  0.12592390  1
  Mn  Mn4  1  0.29057785  0.41143577  0.59236200  1
  Mn  Mn5  1  0.69557115  0.47635411  0.36151812  1
  Mn  Mn6  1  0.00496433  0.98736856  0.01677044  1
  Mn  Mn7  1  0.79681423  0.98040668  0.63715522  1
  Mn  Mn8  1  0.21457668  0.06701755  0.40015237  1
  Mn  Mn9  1  0.47783357  0.49167449  0.97504591  1
  Sb  Sb10  1  0.88036946  0.87098335  0.45638157  1
  Sb  Sb11  1  0.11293370  0.96464598  0.54062817  1
  Sb  Sb12  1  0.03518091  0.49579057  0.82165672  1
  Sb  Sb13  1  0.96492841  0.46378715  0.19927005  1
  Sb  Sb14  1  0.41201807  0.55685923  0.46083742  1
  Sb  Sb15  1  0.60223905  0.57459164  0.53551805  1
  Sb  Sb16  1  0.53482444  0.94213329  0.80167927  1
  Sb  Sb17  1  0.46597285  0.96665720  0.17933895  1
  S  S18  1  0.93886537  0.99117205  0.81133159  1
  S  S19  1  0.06347766  0.00957061  0.20204245  1
  S  S20  1  0.41005030  0.00174183  0.97403874  1
  S  S21  1  0.57841718  0.05096280  0.00281166  1
  S  S22  1  0.16648408  0.96982165  0.87835326  1
  S  S23  1  0.83111471  0.03161658  0.10773372  1
  S  S24  1  0.09410360  0.46009880  0.64323209  1
  S  S25  1  0.90244676  0.41967317  0.35369706  1
  S  S26  1  0.72760263  0.99600939  0.30078733  1
  S  S27  1  0.26352837  0.93318403  0.67631139  1
  S  S28  1  0.16257874  0.45461225  0.44574685  1
  S  S29  1  0.81309476  0.53590373  0.53818022  1
  S  S30  1  0.43428856  0.47300814  0.79680054  1
  S  S31  1  0.55561482  0.48810383  0.18640972  1
  S  S32  1  0.92034281  0.52485132  0.99398596  1
  S  S33  1  0.08696516  0.47322297  0.02434907  1
  S  S34  1  0.67702720  0.53917825  0.90288729  1
  S  S35  1  0.32835783  0.45021751  0.09956573  1
  S  S36  1  0.60629311  0.99641383  0.65969507  1
  S  S37  1  0.39918975  0.05515521  0.33657889  1
  S  S38  1  0.24447020  0.52423240  0.33852719  1
  S  S39  1  0.76824687  0.48436038  0.69705907  1
  S  S40  1  0.67050265  0.00024748  0.44694676  1
  S  S41  1  0.33878766  0.91535769  0.54875650  1
