# generated using pymatgen
data_Pr2Mn3(SbS3)4
_symmetry_space_group_name_H-M   'P 1'
_cell_length_a   20.02960800
_cell_length_b   3.90410600
_cell_length_c   14.95364829
_cell_angle_alpha   90.00000000
_cell_angle_beta   126.33350609
_cell_angle_gamma   90.00000000
_symmetry_Int_Tables_number   1
_chemical_formula_structural   Pr2Mn3(SbS3)4
_chemical_formula_sum   'Pr4 Mn6 Sb8 S24'
_cell_volume   942.00006694
_cell_formula_units_Z   2
loop_
 _symmetry_equiv_pos_site_id
 _symmetry_equiv_pos_as_xyz
  1  'x, y, z'
loop_
 _atom_site_type_symbol
 _atom_site_label
 _atom_site_symmetry_multiplicity
 _atom_site_fract_x
 _atom_site_fract_y
 _atom_site_fract_z
 _atom_site_occupancy
  Pr  Pr0  1  0.27707656  0.47743887  0.87764011  1
  Pr  Pr1  1  0.73127062  0.50980170  0.14241755  1
  Pr  Pr2  1  0.76977471  0.05643025  0.88077913  1
  Pr  Pr3  1  0.23369183  0.89744095  0.12606508  1
  Mn  Mn4  1  0.29059148  0.41170919  0.59223455  1
  Mn  Mn5  1  0.69570396  0.47551498  0.36183522  1
  Mn  Mn6  1  0.00492428  0.98807338  0.01667172  1
  Mn  Mn7  1  0.79694554  0.98010976  0.63716166  1
  Mn  Mn8  1  0.21451941  0.06807237  0.39980923  1
  Mn  Mn9  1  0.47775346  0.49196028  0.97510585  1
  Sb  Sb10  1  0.88046193  0.87156757  0.45636247  1
  Sb  Sb11  1  0.11301371  0.96530108  0.54057503  1
  Sb  Sb12  1  0.03528938  0.49544727  0.82163434  1
  Sb  Sb13  1  0.96482494  0.46411448  0.19906341  1
  Sb  Sb14  1  0.41197777  0.55647985  0.46070613  1
  Sb  Sb15  1  0.60226704  0.57501376  0.53533354  1
  Sb  Sb16  1  0.53478849  0.94228356  0.80178002  1
  Sb  Sb17  1  0.46585675  0.96662413  0.17923306  1
  S  S18  1  0.93904257  0.99223914  0.81134026  1
  S  S19  1  0.06338959  0.00931162  0.20225880  1
  S  S20  1  0.41004560  0.00109740  0.97402938  1
  S  S21  1  0.57862266  0.05140965  0.00264953  1
  S  S22  1  0.16659418  0.96998861  0.87822346  1
  S  S23  1  0.83105545  0.03252091  0.10783114  1
  S  S24  1  0.09401101  0.45836177  0.64323921  1
  S  S25  1  0.90247150  0.41996595  0.35405514  1
  S  S26  1  0.72748836  0.99638451  0.30054224  1
  S  S27  1  0.26312366  0.93419508  0.67600582  1
  S  S28  1  0.16251360  0.45374442  0.44586031  1
  S  S29  1  0.81300602  0.53746380  0.53784203  1
  S  S30  1  0.43425356  0.47375561  0.79666398  1
  S  S31  1  0.55572903  0.48808395  0.18649059  1
  S  S32  1  0.92045870  0.52512839  0.99407675  1
  S  S33  1  0.08705629  0.47286029  0.02450585  1
  S  S34  1  0.67667852  0.53866025  0.90225483  1
  S  S35  1  0.32830530  0.45167085  0.09959502  1
  S  S36  1  0.60615096  0.99590224  0.65946602  1
  S  S37  1  0.39917820  0.05563682  0.33629620  1
  S  S38  1  0.24429347  0.52383299  0.33889152  1
  S  S39  1  0.76810557  0.48404165  0.69700240  1
  S  S40  1  0.67063093  0.00055006  0.44712185  1
  S  S41  1  0.33905810  0.91547625  0.54884678  1
