# generated using pymatgen
data_Pr2Mn3(SbS3)4
_symmetry_space_group_name_H-M   'P 1'
_cell_length_a   20.02960800
_cell_length_b   3.90410600
_cell_length_c   14.95364829
_cell_angle_alpha   90.00000000
_cell_angle_beta   126.33350609
_cell_angle_gamma   90.00000000
_symmetry_Int_Tables_number   1
_chemical_formula_structural   Pr2Mn3(SbS3)4
_chemical_formula_sum   'Pr4 Mn6 Sb8 S24'
_cell_volume   942.00006694
_cell_formula_units_Z   2
loop_
 _symmetry_equiv_pos_site_id
 _symmetry_equiv_pos_as_xyz
  1  'x, y, z'
loop_
 _atom_site_type_symbol
 _atom_site_label
 _atom_site_symmetry_multiplicity
 _atom_site_fract_x
 _atom_site_fract_y
 _atom_site_fract_z
 _atom_site_occupancy
  Pr  Pr0  1  0.27716083  0.47726443  0.87761271  1
  Pr  Pr1  1  0.73117881  0.51022608  0.14245105  1
  Pr  Pr2  1  0.76987340  0.05671424  0.88075865  1
  Pr  Pr3  1  0.23371129  0.89733647  0.12617792  1
  Mn  Mn4  1  0.29059996  0.41227996  0.59211953  1
  Mn  Mn5  1  0.69567837  0.47427649  0.36206184  1
  Mn  Mn6  1  0.00487324  0.98887159  0.01662582  1
  Mn  Mn7  1  0.79703253  0.98029028  0.63714911  1
  Mn  Mn8  1  0.21449085  0.06925911  0.39954306  1
  Mn  Mn9  1  0.47775176  0.49196824  0.97516225  1
  Sb  Sb10  1  0.88046391  0.87207429  0.45631510  1
  Sb  Sb11  1  0.11311191  0.96617709  0.54054003  1
  Sb  Sb12  1  0.03536144  0.49519958  0.82153230  1
  Sb  Sb13  1  0.96465543  0.46449574  0.19877987  1
  Sb  Sb14  1  0.41196840  0.55626387  0.46062355  1
  Sb  Sb15  1  0.60233443  0.57534086  0.53518819  1
  Sb  Sb16  1  0.53471689  0.94258663  0.80187442  1
  Sb  Sb17  1  0.46577753  0.96692314  0.17911541  1
  S  S18  1  0.93928533  0.99299666  0.81139377  1
  S  S19  1  0.06334411  0.00935799  0.20257898  1
  S  S20  1  0.41015478  0.00000554  0.97415968  1
  S  S21  1  0.57884558  0.05162745  0.00253432  1
  S  S22  1  0.16660109  0.97052616  0.87802902  1
  S  S23  1  0.83099669  0.03311169  0.10799765  1
  S  S24  1  0.09391956  0.45708469  0.64336903  1
  S  S25  1  0.90252722  0.42004651  0.35439012  1
  S  S26  1  0.72736240  0.99680216  0.30021445  1
  S  S27  1  0.26277253  0.93519957  0.67583350  1
  S  S28  1  0.16245435  0.45329306  0.44590941  1
  S  S29  1  0.81292898  0.53893571  0.53757361  1
  S  S30  1  0.43420483  0.47416545  0.79664193  1
  S  S31  1  0.55589974  0.48832861  0.18658659  1
  S  S32  1  0.92060165  0.52562834  0.99424491  1
  S  S33  1  0.08708930  0.47264399  0.02464748  1
  S  S34  1  0.67629646  0.53795042  0.90161215  1
  S  S35  1  0.32835837  0.45313998  0.09978278  1
  S  S36  1  0.60603432  0.99591855  0.65923797  1
  S  S37  1  0.39907946  0.05629938  0.33592598  1
  S  S38  1  0.24400979  0.52368284  0.33906870  1
  S  S39  1  0.76800767  0.48378035  0.69686896  1
  S  S40  1  0.67074822  0.00129608  0.44722313  1
  S  S41  1  0.33909477  0.91601563  0.54888416  1
