# generated using pymatgen
data_Pr2Mn3(SbS3)4
_symmetry_space_group_name_H-M   'P 1'
_cell_length_a   20.02960800
_cell_length_b   3.90410600
_cell_length_c   14.95364829
_cell_angle_alpha   90.00000000
_cell_angle_beta   126.33350609
_cell_angle_gamma   90.00000000
_symmetry_Int_Tables_number   1
_chemical_formula_structural   Pr2Mn3(SbS3)4
_chemical_formula_sum   'Pr4 Mn6 Sb8 S24'
_cell_volume   942.00006694
_cell_formula_units_Z   2
loop_
 _symmetry_equiv_pos_site_id
 _symmetry_equiv_pos_as_xyz
  1  'x, y, z'
loop_
 _atom_site_type_symbol
 _atom_site_label
 _atom_site_symmetry_multiplicity
 _atom_site_fract_x
 _atom_site_fract_y
 _atom_site_fract_z
 _atom_site_occupancy
  Pr  Pr0  1  0.27718209  0.47701487  0.87752330  1
  Pr  Pr1  1  0.73111783  0.51054303  0.14250399  1
  Pr  Pr2  1  0.77003876  0.05719042  0.88084621  1
  Pr  Pr3  1  0.23371648  0.89751653  0.12631166  1
  Mn  Mn4  1  0.29064495  0.41288376  0.59204591  1
  Mn  Mn5  1  0.69557129  0.47316494  0.36218792  1
  Mn  Mn6  1  0.00482258  0.98964855  0.01656671  1
  Mn  Mn7  1  0.79707543  0.98071345  0.63699049  1
  Mn  Mn8  1  0.21448430  0.07011709  0.39938581  1
  Mn  Mn9  1  0.47783398  0.49191429  0.97527804  1
  Sb  Sb10  1  0.88047280  0.87260037  0.45622725  1
  Sb  Sb11  1  0.11324263  0.96698930  0.54051808  1
  Sb  Sb12  1  0.03541216  0.49510483  0.82141514  1
  Sb  Sb13  1  0.96449652  0.46512572  0.19856607  1
  Sb  Sb14  1  0.41194873  0.55615296  0.46056207  1
  Sb  Sb15  1  0.60245236  0.57555216  0.53510654  1
  Sb  Sb16  1  0.53467770  0.94278672  0.80200752  1
  Sb  Sb17  1  0.46574171  0.96725538  0.17898966  1
  S  S18  1  0.93950654  0.99423058  0.81140107  1
  S  S19  1  0.06328458  0.00932413  0.20293852  1
  S  S20  1  0.41031567  0.99850857  0.97431573  1
  S  S21  1  0.57893786  0.05249894  0.00233280  1
  S  S22  1  0.16660230  0.97154123  0.87787302  1
  S  S23  1  0.83093169  0.03389046  0.10808442  1
  S  S24  1  0.09390318  0.45561529  0.64358098  1
  S  S25  1  0.90260546  0.42036783  0.35466290  1
  S  S26  1  0.72718839  0.99706552  0.29982208  1
  S  S27  1  0.26253387  0.93607841  0.67570780  1
  S  S28  1  0.16232140  0.45309936  0.44582476  1
  S  S29  1  0.81284177  0.54066946  0.53727193  1
  S  S30  1  0.43409473  0.47440354  0.79657526  1
  S  S31  1  0.55605741  0.48837469  0.18672763  1
  S  S32  1  0.92072278  0.52598920  0.99439141  1
  S  S33  1  0.08713420  0.47214197  0.02474443  1
  S  S34  1  0.67593379  0.53714134  0.90091689  1
  S  S35  1  0.32843767  0.45440707  0.10009922  1
  S  S36  1  0.60590202  0.99597370  0.65885606  1
  S  S37  1  0.39895824  0.05666675  0.33547036  1
  S  S38  1  0.24376992  0.52304961  0.33939287  1
  S  S39  1  0.76793140  0.48374582  0.69683313  1
  S  S40  1  0.67071139  0.00193968  0.44721517  1
  S  S41  1  0.33909680  0.91634443  0.54884857  1
