# generated using pymatgen
data_Pr2Mn3(SbS3)4
_symmetry_space_group_name_H-M   'P 1'
_cell_length_a   20.02960800
_cell_length_b   3.90410600
_cell_length_c   14.95364829
_cell_angle_alpha   90.00000000
_cell_angle_beta   126.33350609
_cell_angle_gamma   90.00000000
_symmetry_Int_Tables_number   1
_chemical_formula_structural   Pr2Mn3(SbS3)4
_chemical_formula_sum   'Pr4 Mn6 Sb8 S24'
_cell_volume   942.00006694
_cell_formula_units_Z   2
loop_
 _symmetry_equiv_pos_site_id
 _symmetry_equiv_pos_as_xyz
  1  'x, y, z'
loop_
 _atom_site_type_symbol
 _atom_site_label
 _atom_site_symmetry_multiplicity
 _atom_site_fract_x
 _atom_site_fract_y
 _atom_site_fract_z
 _atom_site_occupancy
  Pr  Pr0  1  0.27721746  0.47683164  0.87745129  1
  Pr  Pr1  1  0.73105514  0.51072244  0.14258233  1
  Pr  Pr2  1  0.77017791  0.05767924  0.88091561  1
  Pr  Pr3  1  0.23369493  0.89794008  0.12637300  1
  Mn  Mn4  1  0.29069408  0.41331139  0.59204321  1
  Mn  Mn5  1  0.69534859  0.47171343  0.36220477  1
  Mn  Mn6  1  0.00477847  0.99031033  0.01649063  1
  Mn  Mn7  1  0.79722306  0.98096807  0.63696800  1
  Mn  Mn8  1  0.21445976  0.07082097  0.39914147  1
  Mn  Mn9  1  0.47788255  0.49143701  0.97541388  1
  Sb  Sb10  1  0.88045323  0.87327862  0.45611136  1
  Sb  Sb11  1  0.11335418  0.96756607  0.54054602  1
  Sb  Sb12  1  0.03549014  0.49494511  0.82139005  1
  Sb  Sb13  1  0.96435009  0.46579914  0.19838211  1
  Sb  Sb14  1  0.41204920  0.55616728  0.46061144  1
  Sb  Sb15  1  0.60251480  0.57584671  0.53494465  1
  Sb  Sb16  1  0.53466525  0.94313923  0.80212133  1
  Sb  Sb17  1  0.46570113  0.96778571  0.17884007  1
  S  S18  1  0.93975263  0.99502932  0.81155381  1
  S  S19  1  0.06328012  0.00938232  0.20338134  1
  S  S20  1  0.41044866  0.99685130  0.97449567  1
  S  S21  1  0.57899075  0.05342543  0.00216370  1
  S  S22  1  0.16657980  0.97237526  0.87765784  1
  S  S23  1  0.83078059  0.03452282  0.10818445  1
  S  S24  1  0.09394982  0.45439337  0.64371124  1
  S  S25  1  0.90259716  0.42112884  0.35488961  1
  S  S26  1  0.72701869  0.99755453  0.29945259  1
  S  S27  1  0.26237071  0.93710209  0.67582423  1
  S  S28  1  0.16217553  0.45226253  0.44576796  1
  S  S29  1  0.81270462  0.54202503  0.53699702  1
  S  S30  1  0.43394625  0.47472896  0.79648105  1
  S  S31  1  0.55619411  0.48871917  0.18681728  1
  S  S32  1  0.92077818  0.52589480  0.99452973  1
  S  S33  1  0.08721206  0.47193708  0.02495780  1
  S  S34  1  0.67566437  0.53639475  0.90030465  1
  S  S35  1  0.32853965  0.45593237  0.10031899  1
  S  S36  1  0.60566176  0.99580359  0.65834813  1
  S  S37  1  0.39901941  0.05683327  0.33506831  1
  S  S38  1  0.24357480  0.52288936  0.33970075  1
  S  S39  1  0.76779935  0.48367810  0.69676615  1
  S  S40  1  0.67053994  0.00244374  0.44706632  1
  S  S41  1  0.33908479  0.91626101  0.54871045  1
