# generated using pymatgen
data_Pr2Mn3(SbS3)4
_symmetry_space_group_name_H-M   'P 1'
_cell_length_a   20.02960800
_cell_length_b   3.90410600
_cell_length_c   14.95364829
_cell_angle_alpha   90.00000000
_cell_angle_beta   126.33350609
_cell_angle_gamma   90.00000000
_symmetry_Int_Tables_number   1
_chemical_formula_structural   Pr2Mn3(SbS3)4
_chemical_formula_sum   'Pr4 Mn6 Sb8 S24'
_cell_volume   942.00006694
_cell_formula_units_Z   2
loop_
 _symmetry_equiv_pos_site_id
 _symmetry_equiv_pos_as_xyz
  1  'x, y, z'
loop_
 _atom_site_type_symbol
 _atom_site_label
 _atom_site_symmetry_multiplicity
 _atom_site_fract_x
 _atom_site_fract_y
 _atom_site_fract_z
 _atom_site_occupancy
  Pr  Pr0  1  0.27721859  0.47673859  0.87735697  1
  Pr  Pr1  1  0.73102795  0.51098895  0.14262922  1
  Pr  Pr2  1  0.77028041  0.05822922  0.88090156  1
  Pr  Pr3  1  0.23358998  0.89846208  0.12641314  1
  Mn  Mn4  1  0.29081930  0.41358880  0.59212400  1
  Mn  Mn5  1  0.69514964  0.47066701  0.36215833  1
  Mn  Mn6  1  0.00472818  0.99077145  0.01636740  1
  Mn  Mn7  1  0.79734070  0.98135621  0.63703743  1
  Mn  Mn8  1  0.21431264  0.07156025  0.39878952  1
  Mn  Mn9  1  0.47807995  0.49069916  0.97567343  1
  Sb  Sb10  1  0.88039991  0.87388296  0.45599926  1
  Sb  Sb11  1  0.11346644  0.96830052  0.54063419  1
  Sb  Sb12  1  0.03556934  0.49456672  0.82133753  1
  Sb  Sb13  1  0.96420795  0.46615721  0.19822403  1
  Sb  Sb14  1  0.41215750  0.55597577  0.46067689  1
  Sb  Sb15  1  0.60252577  0.57604889  0.53479529  1
  Sb  Sb16  1  0.53467209  0.94356306  0.80221381  1
  Sb  Sb17  1  0.46568119  0.96839421  0.17876610  1
  S  S18  1  0.93996462  0.99533224  0.81174817  1
  S  S19  1  0.06328430  0.00959264  0.20379589  1
  S  S20  1  0.41061230  0.99584832  0.97473463  1
  S  S21  1  0.57909968  0.05402333  0.00209042  1
  S  S22  1  0.16655689  0.97293932  0.87745895  1
  S  S23  1  0.83055376  0.03552624  0.10819249  1
  S  S24  1  0.09391595  0.45359877  0.64372749  1
  S  S25  1  0.90261653  0.42195278  0.35515424  1
  S  S26  1  0.72699396  0.99807200  0.29905968  1
  S  S27  1  0.26220745  0.93804640  0.67601032  1
  S  S28  1  0.16189033  0.45171425  0.44562941  1
  S  S29  1  0.81261661  0.54285984  0.53677787  1
  S  S30  1  0.43372310  0.47524694  0.79620746  1
  S  S31  1  0.55632411  0.48930197  0.18695300  1
  S  S32  1  0.92073609  0.52619455  0.99442583  1
  S  S33  1  0.08735820  0.47166644  0.02519714  1
  S  S34  1  0.67535891  0.53513493  0.89955256  1
  S  S35  1  0.32862097  0.45736465  0.10047692  1
  S  S36  1  0.60539020  0.99562820  0.65774655  1
  S  S37  1  0.39904744  0.05719244  0.33463601  1
  S  S38  1  0.24340310  0.52237136  0.33996010  1
  S  S39  1  0.76763520  0.48308140  0.69677651  1
  S  S40  1  0.67037533  0.00321792  0.44685515  1
  S  S41  1  0.33898142  0.91676381  0.54846364  1
