# generated using pymatgen
data_Pr2Mn3(SbS3)4
_symmetry_space_group_name_H-M   'P 1'
_cell_length_a   20.02960800
_cell_length_b   3.90410600
_cell_length_c   14.95364829
_cell_angle_alpha   90.00000000
_cell_angle_beta   126.33350609
_cell_angle_gamma   90.00000000
_symmetry_Int_Tables_number   1
_chemical_formula_structural   Pr2Mn3(SbS3)4
_chemical_formula_sum   'Pr4 Mn6 Sb8 S24'
_cell_volume   942.00006694
_cell_formula_units_Z   2
loop_
 _symmetry_equiv_pos_site_id
 _symmetry_equiv_pos_as_xyz
  1  'x, y, z'
loop_
 _atom_site_type_symbol
 _atom_site_label
 _atom_site_symmetry_multiplicity
 _atom_site_fract_x
 _atom_site_fract_y
 _atom_site_fract_z
 _atom_site_occupancy
  Pr  Pr0  1  0.27722829  0.47680502  0.87729266  1
  Pr  Pr1  1  0.73108676  0.51113109  0.14273867  1
  Pr  Pr2  1  0.77036480  0.05876130  0.88092656  1
  Pr  Pr3  1  0.23348892  0.89864690  0.12650874  1
  Mn  Mn4  1  0.29096545  0.41368732  0.59224195  1
  Mn  Mn5  1  0.69499452  0.46979669  0.36210322  1
  Mn  Mn6  1  0.00475066  0.99111115  0.01626552  1
  Mn  Mn7  1  0.79748571  0.98151053  0.63712317  1
  Mn  Mn8  1  0.21412176  0.07240594  0.39851144  1
  Mn  Mn9  1  0.47821710  0.49019977  0.97581238  1
  Sb  Sb10  1  0.88040581  0.87414830  0.45585672  1
  Sb  Sb11  1  0.11357569  0.96912270  0.54077180  1
  Sb  Sb12  1  0.03560562  0.49406846  0.82130071  1
  Sb  Sb13  1  0.96410283  0.46632736  0.19809889  1
  Sb  Sb14  1  0.41228596  0.55565092  0.46070397  1
  Sb  Sb15  1  0.60254784  0.57635929  0.53466291  1
  Sb  Sb16  1  0.53468170  0.94383100  0.80226721  1
  Sb  Sb17  1  0.46571080  0.96882555  0.17875179  1
  S  S18  1  0.94009542  0.99525850  0.81183420  1
  S  S19  1  0.06325968  0.00988783  0.20417921  1
  S  S20  1  0.41076809  0.99546778  0.97475079  1
  S  S21  1  0.57921215  0.05441227  0.00205775  1
  S  S22  1  0.16647789  0.97305023  0.87728364  1
  S  S23  1  0.83030249  0.03619893  0.10805309  1
  S  S24  1  0.09392563  0.45320370  0.64380918  1
  S  S25  1  0.90270614  0.42260879  0.35542361  1
  S  S26  1  0.72688438  0.99816601  0.29880922  1
  S  S27  1  0.26200162  0.93904876  0.67611009  1
  S  S28  1  0.16167233  0.45132566  0.44557062  1
  S  S29  1  0.81266835  0.54328714  0.53665148  1
  S  S30  1  0.43340361  0.47530009  0.79595940  1
  S  S31  1  0.55653346  0.48953517  0.18723023  1
  S  S32  1  0.92068930  0.52575589  0.99443191  1
  S  S33  1  0.08737622  0.47127449  0.02541589  1
  S  S34  1  0.67512571  0.53400511  0.89891319  1
  S  S35  1  0.32863276  0.45866113  0.10074066  1
  S  S36  1  0.60519672  0.99542267  0.65731522  1
  S  S37  1  0.39910956  0.05776194  0.33422173  1
  S  S38  1  0.24328879  0.52166367  0.34011012  1
  S  S39  1  0.76747245  0.48236086  0.69660179  1
  S  S40  1  0.67018461  0.00407511  0.44666292  1
  S  S41  1  0.33894050  0.91679319  0.54824003  1
