# generated using pymatgen
data_Pr2Mn3(SbS3)4
_symmetry_space_group_name_H-M   'P 1'
_cell_length_a   20.02960800
_cell_length_b   3.90410600
_cell_length_c   14.95364829
_cell_angle_alpha   90.00000000
_cell_angle_beta   126.33350609
_cell_angle_gamma   90.00000000
_symmetry_Int_Tables_number   1
_chemical_formula_structural   Pr2Mn3(SbS3)4
_chemical_formula_sum   'Pr4 Mn6 Sb8 S24'
_cell_volume   942.00006694
_cell_formula_units_Z   2
loop_
 _symmetry_equiv_pos_site_id
 _symmetry_equiv_pos_as_xyz
  1  'x, y, z'
loop_
 _atom_site_type_symbol
 _atom_site_label
 _atom_site_symmetry_multiplicity
 _atom_site_fract_x
 _atom_site_fract_y
 _atom_site_fract_z
 _atom_site_occupancy
  Pr  Pr0  1  0.27723048  0.47692456  0.87712392  1
  Pr  Pr1  1  0.73122275  0.51134861  0.14292295  1
  Pr  Pr2  1  0.77045834  0.05915471  0.88089980  1
  Pr  Pr3  1  0.23340601  0.89901533  0.12661840  1
  Mn  Mn4  1  0.29105948  0.41435312  0.59228570  1
  Mn  Mn5  1  0.69485941  0.46897967  0.36205258  1
  Mn  Mn6  1  0.00477969  0.99116431  0.01623411  1
  Mn  Mn7  1  0.79760568  0.98203596  0.63721552  1
  Mn  Mn8  1  0.21389969  0.07315799  0.39827710  1
  Mn  Mn9  1  0.47837608  0.48960905  0.97592351  1
  Sb  Sb10  1  0.88045533  0.87427613  0.45579486  1
  Sb  Sb11  1  0.11363060  0.96990138  0.54092247  1
  Sb  Sb12  1  0.03565848  0.49375902  0.82127909  1
  Sb  Sb13  1  0.96393982  0.46635130  0.19795696  1
  Sb  Sb14  1  0.41233842  0.55525095  0.46059469  1
  Sb  Sb15  1  0.60264861  0.57646123  0.53460659  1
  Sb  Sb16  1  0.53466645  0.94430383  0.80231894  1
  Sb  Sb17  1  0.46570433  0.96910357  0.17867013  1
  S  S18  1  0.94022399  0.99553462  0.81210704  1
  S  S19  1  0.06322713  0.01001786  0.20448195  1
  S  S20  1  0.41101482  0.99508823  0.97477083  1
  S  S21  1  0.57940059  0.05479073  0.00200282  1
  S  S22  1  0.16649704  0.97303490  0.87726000  1
  S  S23  1  0.83019546  0.03669354  0.10797878  1
  S  S24  1  0.09392082  0.45290287  0.64387854  1
  S  S25  1  0.90270862  0.42306615  0.35570663  1
  S  S26  1  0.72681812  0.99802435  0.29858650  1
  S  S27  1  0.26170289  0.93990943  0.67613738  1
  S  S28  1  0.16152420  0.45101326  0.44552231  1
  S  S29  1  0.81284165  0.54342339  0.53679961  1
  S  S30  1  0.43325846  0.47530784  0.79595289  1
  S  S31  1  0.55682002  0.48981656  0.18769362  1
  S  S32  1  0.92071246  0.52513782  0.99438185  1
  S  S33  1  0.08732933  0.47102410  0.02565502  1
  S  S34  1  0.67492420  0.53341360  0.89830151  1
  S  S35  1  0.32861764  0.45959665  0.10087080  1
  S  S36  1  0.60513638  0.99545904  0.65702891  1
  S  S37  1  0.39908404  0.05845125  0.33376971  1
  S  S38  1  0.24315611  0.52090398  0.34032541  1
  S  S39  1  0.76723303  0.48197051  0.69641476  1
  S  S40  1  0.67013456  0.00430995  0.44659996  1
  S  S41  1  0.33879910  0.91667329  0.54795247  1
