# generated using pymatgen
data_Pr2Mn3(SbS3)4
_symmetry_space_group_name_H-M   'P 1'
_cell_length_a   20.02960800
_cell_length_b   3.90410600
_cell_length_c   14.95364829
_cell_angle_alpha   90.00000000
_cell_angle_beta   126.33350609
_cell_angle_gamma   90.00000000
_symmetry_Int_Tables_number   1
_chemical_formula_structural   Pr2Mn3(SbS3)4
_chemical_formula_sum   'Pr4 Mn6 Sb8 S24'
_cell_volume   942.00006694
_cell_formula_units_Z   2
loop_
 _symmetry_equiv_pos_site_id
 _symmetry_equiv_pos_as_xyz
  1  'x, y, z'
loop_
 _atom_site_type_symbol
 _atom_site_label
 _atom_site_symmetry_multiplicity
 _atom_site_fract_x
 _atom_site_fract_y
 _atom_site_fract_z
 _atom_site_occupancy
  Pr  Pr0  1  0.26450317  0.47160559  0.86763408  1
  Pr  Pr1  1  0.73674220  0.52413994  0.13710709  1
  Pr  Pr2  1  0.76466114  0.01091873  0.86469020  1
  Pr  Pr3  1  0.23730649  0.00669000  0.13791371  1
  Mn  Mn4  1  0.29334334  0.48424173  0.60176974  1
  Mn  Mn5  1  0.69275929  0.51666134  0.38099250  1
  Mn  Mn6  1  0.00897895  0.99589194  0.01330708  1
  Mn  Mn7  1  0.80426134  0.01162415  0.61421471  1
  Mn  Mn8  1  0.19622406  0.97438313  0.37703376  1
  Mn  Mn9  1  0.49698067  0.45145930  0.98932883  1
  Sb  Sb10  1  0.89013675  0.99070797  0.45194976  1
  Sb  Sb11  1  0.11140083  0.97112741  0.54965296  1
  Sb  Sb12  1  0.03895624  0.51852120  0.81753559  1
  Sb  Sb13  1  0.96436102  0.51028142  0.18592099  1
  Sb  Sb14  1  0.39542046  0.51223245  0.45543327  1
  Sb  Sb15  1  0.60638452  0.47911961  0.54687739  1
  Sb  Sb16  1  0.53529168  0.00902613  0.81189494  1
  Sb  Sb17  1  0.46070898  0.01532228  0.18164327  1
  S  S18  1  0.93356944  0.99021701  0.80347056  1
  S  S19  1  0.06673396  0.97909888  0.18652626  1
  S  S20  1  0.41012897  0.00082924  0.97964550  1
  S  S21  1  0.59089054  0.99589582  0.02106029  1
  S  S22  1  0.17022436  0.99956067  0.89588067  1
  S  S23  1  0.82477436  0.01436385  0.09520111  1
  S  S24  1  0.08783831  0.48523138  0.64301326  1
  S  S25  1  0.90812746  0.46463757  0.35377083  1
  S  S26  1  0.73991519  0.96120068  0.29660733  1
  S  S27  1  0.25913067  0.00027162  0.70647456  1
  S  S28  1  0.16980731  0.47429188  0.44079956  1
  S  S29  1  0.82860952  0.48993044  0.54768864  1
  S  S30  1  0.43346031  0.50285102  0.79488252  1
  S  S31  1  0.56198513  0.51085196  0.18124746  1
  S  S32  1  0.91522416  0.50832855  0.99336935  1
  S  S33  1  0.08257633  0.49123496  0.01333688  1
  S  S34  1  0.66708882  0.49432759  0.88883250  1
  S  S35  1  0.32746433  0.50868542  0.09140576  1
  S  S36  1  0.59727070  0.99587541  0.66158371  1
  S  S37  1  0.40680695  0.97649161  0.34720332  1
  S  S38  1  0.24683857  0.44108154  0.31456778  1
  S  S39  1  0.76464865  0.50472845  0.70335162  1
  S  S40  1  0.67418791  0.02856514  0.45742597  1
  S  S41  1  0.32471440  0.96954365  0.54453209  1
