# generated using pymatgen
data_Pr2Mn3(SbS3)4
_symmetry_space_group_name_H-M   'P 1'
_cell_length_a   20.02960800
_cell_length_b   3.90410600
_cell_length_c   14.95364829
_cell_angle_alpha   90.00000000
_cell_angle_beta   126.33350609
_cell_angle_gamma   90.00000000
_symmetry_Int_Tables_number   1
_chemical_formula_structural   Pr2Mn3(SbS3)4
_chemical_formula_sum   'Pr4 Mn6 Sb8 S24'
_cell_volume   942.00006694
_cell_formula_units_Z   2
loop_
 _symmetry_equiv_pos_site_id
 _symmetry_equiv_pos_as_xyz
  1  'x, y, z'
loop_
 _atom_site_type_symbol
 _atom_site_label
 _atom_site_symmetry_multiplicity
 _atom_site_fract_x
 _atom_site_fract_y
 _atom_site_fract_z
 _atom_site_occupancy
  Pr  Pr0  1  0.27719340  0.47703880  0.87689537  1
  Pr  Pr1  1  0.73138723  0.51143453  0.14311314  1
  Pr  Pr2  1  0.77064796  0.05955461  0.88095093  1
  Pr  Pr3  1  0.23333753  0.89921370  0.12664482  1
  Mn  Mn4  1  0.29107744  0.41494295  0.59239207  1
  Mn  Mn5  1  0.69482099  0.46829241  0.36203270  1
  Mn  Mn6  1  0.00475267  0.99132151  0.01620753  1
  Mn  Mn7  1  0.79784927  0.98227872  0.63743642  1
  Mn  Mn8  1  0.21370270  0.07388815  0.39800448  1
  Mn  Mn9  1  0.47862241  0.48907500  0.97608937  1
  Sb  Sb10  1  0.88048687  0.87444170  0.45577939  1
  Sb  Sb11  1  0.11368871  0.97089974  0.54106163  1
  Sb  Sb12  1  0.03565113  0.49350761  0.82123660  1
  Sb  Sb13  1  0.96376729  0.46652518  0.19781193  1
  Sb  Sb14  1  0.41233530  0.55468805  0.46040309  1
  Sb  Sb15  1  0.60273066  0.57650095  0.53460405  1
  Sb  Sb16  1  0.53465515  0.94490824  0.80239099  1
  Sb  Sb17  1  0.46577482  0.96961424  0.17867954  1
  S  S18  1  0.94030708  0.99653660  0.81236300  1
  S  S19  1  0.06296978  0.01032439  0.20453322  1
  S  S20  1  0.41113410  0.99404364  0.97470214  1
  S  S21  1  0.57941021  0.05462306  0.00194509  1
  S  S22  1  0.16652003  0.97288534  0.87747872  1
  S  S23  1  0.83005090  0.03718164  0.10786007  1
  S  S24  1  0.09396540  0.45290340  0.64392316  1
  S  S25  1  0.90274831  0.42368190  0.35600693  1
  S  S26  1  0.72674023  0.99772554  0.29836634  1
  S  S27  1  0.26159984  0.94060571  0.67607613  1
  S  S28  1  0.16140873  0.45075031  0.44550252  1
  S  S29  1  0.81300644  0.54363577  0.53716355  1
  S  S30  1  0.43325897  0.47591407  0.79605564  1
  S  S31  1  0.55713048  0.48997226  0.18816400  1
  S  S32  1  0.92061604  0.52525131  0.99420919  1
  S  S33  1  0.08732476  0.47148498  0.02569828  1
  S  S34  1  0.67459909  0.53255861  0.89767127  1
  S  S35  1  0.32874428  0.46032276  0.10096784  1
  S  S36  1  0.60508199  0.99525667  0.65678455  1
  S  S37  1  0.39914531  0.05879027  0.33339562  1
  S  S38  1  0.24290945  0.52016645  0.34047554  1
  S  S39  1  0.76695170  0.48220508  0.69622742  1
  S  S40  1  0.66991128  0.00504079  0.44636454  1
  S  S41  1  0.33876250  0.91670541  0.54793020  1
