# generated using pymatgen
data_Pr2Mn3(SbS3)4
_symmetry_space_group_name_H-M   'P 1'
_cell_length_a   20.02960800
_cell_length_b   3.90410600
_cell_length_c   14.95364829
_cell_angle_alpha   90.00000000
_cell_angle_beta   126.33350609
_cell_angle_gamma   90.00000000
_symmetry_Int_Tables_number   1
_chemical_formula_structural   Pr2Mn3(SbS3)4
_chemical_formula_sum   'Pr4 Mn6 Sb8 S24'
_cell_volume   942.00006694
_cell_formula_units_Z   2
loop_
 _symmetry_equiv_pos_site_id
 _symmetry_equiv_pos_as_xyz
  1  'x, y, z'
loop_
 _atom_site_type_symbol
 _atom_site_label
 _atom_site_symmetry_multiplicity
 _atom_site_fract_x
 _atom_site_fract_y
 _atom_site_fract_z
 _atom_site_occupancy
  Pr  Pr0  1  0.27717499  0.47737347  0.87666253  1
  Pr  Pr1  1  0.73153204  0.51145504  0.14327102  1
  Pr  Pr2  1  0.77085241  0.05997415  0.88098570  1
  Pr  Pr3  1  0.23324762  0.89983684  0.12665864  1
  Mn  Mn4  1  0.29116872  0.41576307  0.59247344  1
  Mn  Mn5  1  0.69481403  0.46794595  0.36195726  1
  Mn  Mn6  1  0.00485274  0.99158673  0.01630755  1
  Mn  Mn7  1  0.79807006  0.98251718  0.63770196  1
  Mn  Mn8  1  0.21343924  0.07460809  0.39759043  1
  Mn  Mn9  1  0.47889202  0.48864536  0.97623661  1
  Sb  Sb10  1  0.88054733  0.87456763  0.45576698  1
  Sb  Sb11  1  0.11373183  0.97156944  0.54118917  1
  Sb  Sb12  1  0.03559563  0.49311562  0.82117271  1
  Sb  Sb13  1  0.96361797  0.46656099  0.19769918  1
  Sb  Sb14  1  0.41227381  0.55411816  0.46021742  1
  Sb  Sb15  1  0.60282742  0.57664881  0.53457660  1
  Sb  Sb16  1  0.53460328  0.94549159  0.80238839  1
  Sb  Sb17  1  0.46590221  0.97001496  0.17873620  1
  S  S18  1  0.94039483  0.99802050  0.81250319  1
  S  S19  1  0.06286263  0.01051592  0.20477841  1
  S  S20  1  0.41125565  0.99273967  0.97473737  1
  S  S21  1  0.57943542  0.05493949  0.00194967  1
  S  S22  1  0.16662877  0.97287985  0.87784790  1
  S  S23  1  0.83002006  0.03781384  0.10775305  1
  S  S24  1  0.09414567  0.45318907  0.64399100  1
  S  S25  1  0.90283386  0.42440906  0.35626320  1
  S  S26  1  0.72665106  0.99793723  0.29821920  1
  S  S27  1  0.26157425  0.94104003  0.67603292  1
  S  S28  1  0.16125594  0.45081037  0.44531624  1
  S  S29  1  0.81328516  0.54370477  0.53761517  1
  S  S30  1  0.43325710  0.47611924  0.79628294  1
  S  S31  1  0.55740264  0.48971124  0.18856938  1
  S  S32  1  0.92055118  0.52549103  0.99405014  1
  S  S33  1  0.08754072  0.47205482  0.02586791  1
  S  S34  1  0.67438311  0.53161261  0.89723268  1
  S  S35  1  0.32876429  0.46088025  0.10087087  1
  S  S36  1  0.60505208  0.99493857  0.65660290  1
  S  S37  1  0.39915660  0.05920606  0.33305656  1
  S  S38  1  0.24273551  0.51959160  0.34057598  1
  S  S39  1  0.76663374  0.48254070  0.69589222  1
  S  S40  1  0.66960565  0.00586874  0.44601376  1
  S  S41  1  0.33889904  0.91744262  0.54810677  1
