# generated using pymatgen
data_Pr2Mn3(SbS3)4
_symmetry_space_group_name_H-M   'P 1'
_cell_length_a   20.02960800
_cell_length_b   3.90410600
_cell_length_c   14.95364829
_cell_angle_alpha   90.00000000
_cell_angle_beta   126.33350609
_cell_angle_gamma   90.00000000
_symmetry_Int_Tables_number   1
_chemical_formula_structural   Pr2Mn3(SbS3)4
_chemical_formula_sum   'Pr4 Mn6 Sb8 S24'
_cell_volume   942.00006694
_cell_formula_units_Z   2
loop_
 _symmetry_equiv_pos_site_id
 _symmetry_equiv_pos_as_xyz
  1  'x, y, z'
loop_
 _atom_site_type_symbol
 _atom_site_label
 _atom_site_symmetry_multiplicity
 _atom_site_fract_x
 _atom_site_fract_y
 _atom_site_fract_z
 _atom_site_occupancy
  Pr  Pr0  1  0.27720254  0.47781354  0.87659022  1
  Pr  Pr1  1  0.73165730  0.51147155  0.14343351  1
  Pr  Pr2  1  0.77105649  0.06038365  0.88106320  1
  Pr  Pr3  1  0.23315454  0.90028686  0.12662146  1
  Mn  Mn4  1  0.29132689  0.41654213  0.59250602  1
  Mn  Mn5  1  0.69482593  0.46796895  0.36187026  1
  Mn  Mn6  1  0.00496943  0.99154520  0.01639431  1
  Mn  Mn7  1  0.79828366  0.98300747  0.63800237  1
  Mn  Mn8  1  0.21321929  0.07495182  0.39723087  1
  Mn  Mn9  1  0.47914977  0.48800255  0.97640831  1
  Sb  Sb10  1  0.88062321  0.87457353  0.45576541  1
  Sb  Sb11  1  0.11374377  0.97247360  0.54121187  1
  Sb  Sb12  1  0.03552993  0.49267000  0.82100973  1
  Sb  Sb13  1  0.96349869  0.46660576  0.19758594  1
  Sb  Sb14  1  0.41227718  0.55364592  0.46020420  1
  Sb  Sb15  1  0.60293461  0.57700306  0.53465831  1
  Sb  Sb16  1  0.53458834  0.94593765  0.80242693  1
  Sb  Sb17  1  0.46594973  0.97043277  0.17872668  1
  S  S18  1  0.94049551  0.99895043  0.81247984  1
  S  S19  1  0.06272593  0.01104243  0.20487914  1
  S  S20  1  0.41139659  0.99132923  0.97483820  1
  S  S21  1  0.57953054  0.05539431  0.00204459  1
  S  S22  1  0.16675602  0.97287523  0.87821676  1
  S  S23  1  0.83012674  0.03824090  0.10769264  1
  S  S24  1  0.09430363  0.45364937  0.64388990  1
  S  S25  1  0.90305521  0.42509649  0.35653432  1
  S  S26  1  0.72657607  0.99818453  0.29807358  1
  S  S27  1  0.26158463  0.94110696  0.67614672  1
  S  S28  1  0.16104938  0.45171209  0.44517659  1
  S  S29  1  0.81355516  0.54357230  0.53810603  1
  S  S30  1  0.43325064  0.47633787  0.79647903  1
  S  S31  1  0.55767136  0.49009417  0.18901969  1
  S  S32  1  0.92056878  0.52529260  0.99392385  1
  S  S33  1  0.08786731  0.47232896  0.02617060  1
  S  S34  1  0.67417227  0.53089987  0.89688763  1
  S  S35  1  0.32878794  0.46212953  0.10072454  1
  S  S36  1  0.60500065  0.99505928  0.65641408  1
  S  S37  1  0.39913433  0.05952983  0.33291557  1
  S  S38  1  0.24266841  0.51880352  0.34066080  1
  S  S39  1  0.76632569  0.48247458  0.69545864  1
  S  S40  1  0.66921950  0.00676258  0.44562167  1
  S  S41  1  0.33898922  0.91828002  0.54826818  1
