# generated using pymatgen
data_Pr2Mn3(SbS3)4
_symmetry_space_group_name_H-M   'P 1'
_cell_length_a   20.02960800
_cell_length_b   3.90410600
_cell_length_c   14.95364829
_cell_angle_alpha   90.00000000
_cell_angle_beta   126.33350609
_cell_angle_gamma   90.00000000
_symmetry_Int_Tables_number   1
_chemical_formula_structural   Pr2Mn3(SbS3)4
_chemical_formula_sum   'Pr4 Mn6 Sb8 S24'
_cell_volume   942.00006694
_cell_formula_units_Z   2
loop_
 _symmetry_equiv_pos_site_id
 _symmetry_equiv_pos_as_xyz
  1  'x, y, z'
loop_
 _atom_site_type_symbol
 _atom_site_label
 _atom_site_symmetry_multiplicity
 _atom_site_fract_x
 _atom_site_fract_y
 _atom_site_fract_z
 _atom_site_occupancy
  Pr  Pr0  1  0.27723773  0.47823877  0.87655664  1
  Pr  Pr1  1  0.73176207  0.51157350  0.14359990  1
  Pr  Pr2  1  0.77125580  0.06054020  0.88118612  1
  Pr  Pr3  1  0.23311869  0.90089774  0.12660733  1
  Mn  Mn4  1  0.29144825  0.41705947  0.59255761  1
  Mn  Mn5  1  0.69480632  0.46832857  0.36172673  1
  Mn  Mn6  1  0.00505462  0.99134936  0.01648813  1
  Mn  Mn7  1  0.79849257  0.98358385  0.63820395  1
  Mn  Mn8  1  0.21298091  0.07524517  0.39687754  1
  Mn  Mn9  1  0.47941464  0.48718964  0.97655236  1
  Sb  Sb10  1  0.88074933  0.87432010  0.45576115  1
  Sb  Sb11  1  0.11381989  0.97334116  0.54130945  1
  Sb  Sb12  1  0.03545055  0.49207567  0.82089002  1
  Sb  Sb13  1  0.96332599  0.46651057  0.19751073  1
  Sb  Sb14  1  0.41226920  0.55346045  0.46012258  1
  Sb  Sb15  1  0.60309775  0.57725238  0.53482988  1
  Sb  Sb16  1  0.53458293  0.94616675  0.80246764  1
  Sb  Sb17  1  0.46601986  0.97074203  0.17874615  1
  S  S18  1  0.94060066  0.99916404  0.81255727  1
  S  S19  1  0.06241601  0.01121318  0.20469129  1
  S  S20  1  0.41154313  0.98988296  0.97493054  1
  S  S21  1  0.57951116  0.05583837  0.00189434  1
  S  S22  1  0.16679243  0.97323659  0.87836123  1
  S  S23  1  0.83023386  0.03856505  0.10758657  1
  S  S24  1  0.09435982  0.45405144  0.64375109  1
  S  S25  1  0.90331552  0.42613548  0.35677887  1
  S  S26  1  0.72651385  0.99817309  0.29797362  1
  S  S27  1  0.26162720  0.94134505  0.67624191  1
  S  S28  1  0.16088865  0.45279397  0.44492875  1
  S  S29  1  0.81383438  0.54325571  0.53859382  1
  S  S30  1  0.43329051  0.47658936  0.79674739  1
  S  S31  1  0.55801160  0.49059896  0.18964647  1
  S  S32  1  0.92043648  0.52527845  0.99375147  1
  S  S33  1  0.08802142  0.47333294  0.02627878  1
  S  S34  1  0.67405591  0.53022146  0.89665398  1
  S  S35  1  0.32874096  0.46322547  0.10048597  1
  S  S36  1  0.60498897  0.99563285  0.65636610  1
  S  S37  1  0.39905399  0.06035439  0.33264398  1
  S  S38  1  0.24256885  0.51822503  0.34068636  1
  S  S39  1  0.76611029  0.48218822  0.69520022  1
  S  S40  1  0.66884563  0.00825808  0.44521365  1
  S  S41  1  0.33906801  0.91926753  0.54839273  1
