# generated using pymatgen
data_Pr2Mn3(SbS3)4
_symmetry_space_group_name_H-M   'P 1'
_cell_length_a   20.02960800
_cell_length_b   3.90410600
_cell_length_c   14.95364829
_cell_angle_alpha   90.00000000
_cell_angle_beta   126.33350609
_cell_angle_gamma   90.00000000
_symmetry_Int_Tables_number   1
_chemical_formula_structural   Pr2Mn3(SbS3)4
_chemical_formula_sum   'Pr4 Mn6 Sb8 S24'
_cell_volume   942.00006694
_cell_formula_units_Z   2
loop_
 _symmetry_equiv_pos_site_id
 _symmetry_equiv_pos_as_xyz
  1  'x, y, z'
loop_
 _atom_site_type_symbol
 _atom_site_label
 _atom_site_symmetry_multiplicity
 _atom_site_fract_x
 _atom_site_fract_y
 _atom_site_fract_z
 _atom_site_occupancy
  Pr  Pr0  1  0.27723204  0.47882063  0.87656689  1
  Pr  Pr1  1  0.73185299  0.51186412  0.14370753  1
  Pr  Pr2  1  0.77141520  0.06043289  0.88120821  1
  Pr  Pr3  1  0.23306445  0.90151883  0.12655274  1
  Mn  Mn4  1  0.29146944  0.41759556  0.59265429  1
  Mn  Mn5  1  0.69478419  0.46909843  0.36161100  1
  Mn  Mn6  1  0.00519881  0.99084567  0.01659425  1
  Mn  Mn7  1  0.79866924  0.98420066  0.63844764  1
  Mn  Mn8  1  0.21277712  0.07534980  0.39661413  1
  Mn  Mn9  1  0.47969701  0.48610514  0.97666141  1
  Sb  Sb10  1  0.88088019  0.87423270  0.45574445  1
  Sb  Sb11  1  0.11388090  0.97428310  0.54139902  1
  Sb  Sb12  1  0.03542843  0.49158638  0.82078624  1
  Sb  Sb13  1  0.96322476  0.46665151  0.19745908  1
  Sb  Sb14  1  0.41228052  0.55316346  0.46006348  1
  Sb  Sb15  1  0.60323030  0.57742940  0.53495538  1
  Sb  Sb16  1  0.53459987  0.94615815  0.80254303  1
  Sb  Sb17  1  0.46612189  0.97116659  0.17874084  1
  S  S18  1  0.94074421  0.99961850  0.81271423  1
  S  S19  1  0.06219800  0.01200271  0.20451309  1
  S  S20  1  0.41171557  0.98873506  0.97496518  1
  S  S21  1  0.57948602  0.05619311  0.00165010  1
  S  S22  1  0.16686484  0.97341408  0.87846007  1
  S  S23  1  0.83039700  0.03832377  0.10741332  1
  S  S24  1  0.09442554  0.45486255  0.64357334  1
  S  S25  1  0.90354674  0.42684239  0.35696648  1
  S  S26  1  0.72649764  0.99790169  0.29780423  1
  S  S27  1  0.26173997  0.94175715  0.67627995  1
  S  S28  1  0.16081018  0.45336584  0.44475804  1
  S  S29  1  0.81409693  0.54310764  0.53899622  1
  S  S30  1  0.43344470  0.47724795  0.79728373  1
  S  S31  1  0.55832975  0.49098454  0.19020256  1
  S  S32  1  0.92029539  0.52522202  0.99351199  1
  S  S33  1  0.08807644  0.47403665  0.02641862  1
  S  S34  1  0.67392234  0.53000970  0.89642092  1
  S  S35  1  0.32866864  0.46379269  0.10017037  1
  S  S36  1  0.60493290  0.99642845  0.65626508  1
  S  S37  1  0.39902257  0.06091410  0.33254520  1
  S  S38  1  0.24250306  0.51773563  0.34065780  1
  S  S39  1  0.76597393  0.48151952  0.69504949  1
  S  S40  1  0.66857082  0.00959736  0.44482590  1
  S  S41  1  0.33900935  0.92005441  0.54834008  1
