# generated using pymatgen
data_Pr2Mn3(SbS3)4
_symmetry_space_group_name_H-M   'P 1'
_cell_length_a   20.02960800
_cell_length_b   3.90410600
_cell_length_c   14.95364829
_cell_angle_alpha   90.00000000
_cell_angle_beta   126.33350609
_cell_angle_gamma   90.00000000
_symmetry_Int_Tables_number   1
_chemical_formula_structural   Pr2Mn3(SbS3)4
_chemical_formula_sum   'Pr4 Mn6 Sb8 S24'
_cell_volume   942.00006694
_cell_formula_units_Z   2
loop_
 _symmetry_equiv_pos_site_id
 _symmetry_equiv_pos_as_xyz
  1  'x, y, z'
loop_
 _atom_site_type_symbol
 _atom_site_label
 _atom_site_symmetry_multiplicity
 _atom_site_fract_x
 _atom_site_fract_y
 _atom_site_fract_z
 _atom_site_occupancy
  Pr  Pr0  1  0.27721862  0.47928148  0.87660660  1
  Pr  Pr1  1  0.73191664  0.51211419  0.14373676  1
  Pr  Pr2  1  0.77154456  0.06034222  0.88122956  1
  Pr  Pr3  1  0.23299267  0.90208741  0.12647771  1
  Mn  Mn4  1  0.29144673  0.41831525  0.59264293  1
  Mn  Mn5  1  0.69470403  0.47014507  0.36145494  1
  Mn  Mn6  1  0.00535477  0.99078640  0.01669720  1
  Mn  Mn7  1  0.79885275  0.98516194  0.63878764  1
  Mn  Mn8  1  0.21258497  0.07531119  0.39635329  1
  Mn  Mn9  1  0.47999050  0.48520196  0.97682870  1
  Sb  Sb10  1  0.88100031  0.87418496  0.45581298  1
  Sb  Sb11  1  0.11398523  0.97511544  0.54147307  1
  Sb  Sb12  1  0.03543735  0.49093224  0.82072343  1
  Sb  Sb13  1  0.96314420  0.46661351  0.19744579  1
  Sb  Sb14  1  0.41227132  0.55309958  0.46001116  1
  Sb  Sb15  1  0.60336933  0.57774907  0.53506908  1
  Sb  Sb16  1  0.53456246  0.94619923  0.80257276  1
  Sb  Sb17  1  0.46619097  0.97151324  0.17863728  1
  S  S18  1  0.94086247  0.99975381  0.81294181  1
  S  S19  1  0.06199890  0.01222354  0.20435250  1
  S  S20  1  0.41204391  0.98798815  0.97522230  1
  S  S21  1  0.57956359  0.05700450  0.00152328  1
  S  S22  1  0.16688051  0.97337684  0.87837783  1
  S  S23  1  0.83053788  0.03786186  0.10707807  1
  S  S24  1  0.09453196  0.45563958  0.64339143  1
  S  S25  1  0.90369010  0.42785821  0.35707199  1
  S  S26  1  0.72658936  0.99730663  0.29764185  1
  S  S27  1  0.26182162  0.94139225  0.67620248  1
  S  S28  1  0.16080063  0.45401446  0.44458289  1
  S  S29  1  0.81424626  0.54264450  0.53925955  1
  S  S30  1  0.43345857  0.47747537  0.79776228  1
  S  S31  1  0.55860728  0.49153914  0.19067995  1
  S  S32  1  0.92015530  0.52511467  0.99319328  1
  S  S33  1  0.08818655  0.47547213  0.02660153  1
  S  S34  1  0.67370126  0.53004347  0.89610870  1
  S  S35  1  0.32860549  0.46434129  0.09991774  1
  S  S36  1  0.60481903  0.99717316  0.65603203  1
  S  S37  1  0.39886702  0.06111647  0.33237777  1
  S  S38  1  0.24239632  0.51685862  0.34071190  1
  S  S39  1  0.76574899  0.48125730  0.69492318  1
  S  S40  1  0.66832493  0.01125978  0.44434588  1
  S  S41  1  0.33893272  0.92069531  0.54822090  1
