# generated using pymatgen
data_Pr2Mn3(SbS3)4
_symmetry_space_group_name_H-M   'P 1'
_cell_length_a   20.02960800
_cell_length_b   3.90410600
_cell_length_c   14.95364829
_cell_angle_alpha   90.00000000
_cell_angle_beta   126.33350609
_cell_angle_gamma   90.00000000
_symmetry_Int_Tables_number   1
_chemical_formula_structural   Pr2Mn3(SbS3)4
_chemical_formula_sum   'Pr4 Mn6 Sb8 S24'
_cell_volume   942.00006694
_cell_formula_units_Z   2
loop_
 _symmetry_equiv_pos_site_id
 _symmetry_equiv_pos_as_xyz
  1  'x, y, z'
loop_
 _atom_site_type_symbol
 _atom_site_label
 _atom_site_symmetry_multiplicity
 _atom_site_fract_x
 _atom_site_fract_y
 _atom_site_fract_z
 _atom_site_occupancy
  Pr  Pr0  1  0.27721055  0.47979824  0.87665727  1
  Pr  Pr1  1  0.73192582  0.51230023  0.14373631  1
  Pr  Pr2  1  0.77168385  0.06006586  0.88123896  1
  Pr  Pr3  1  0.23292249  0.90255404  0.12636547  1
  Mn  Mn4  1  0.29151080  0.41913244  0.59271042  1
  Mn  Mn5  1  0.69467356  0.47081479  0.36130833  1
  Mn  Mn6  1  0.00540969  0.99063224  0.01672335  1
  Mn  Mn7  1  0.79902261  0.98627426  0.63912477  1
  Mn  Mn8  1  0.21254055  0.07561786  0.39626357  1
  Mn  Mn9  1  0.48032087  0.48417394  0.97707917  1
  Sb  Sb10  1  0.88107105  0.87410257  0.45584063  1
  Sb  Sb11  1  0.11410896  0.97608449  0.54157505  1
  Sb  Sb12  1  0.03548827  0.49026249  0.82070741  1
  Sb  Sb13  1  0.96309113  0.46665149  0.19752241  1
  Sb  Sb14  1  0.41228320  0.55295966  0.46002133  1
  Sb  Sb15  1  0.60347912  0.57783083  0.53508857  1
  Sb  Sb16  1  0.53453947  0.94600394  0.80262728  1
  Sb  Sb17  1  0.46619232  0.97182718  0.17843561  1
  S  S18  1  0.94086946  0.99979783  0.81306718  1
  S  S19  1  0.06182428  0.01241679  0.20425958  1
  S  S20  1  0.41236482  0.98708478  0.97549553  1
  S  S21  1  0.57963964  0.05742497  0.00144795  1
  S  S22  1  0.16692879  0.97314224  0.87855997  1
  S  S23  1  0.83053318  0.03714877  0.10665066  1
  S  S24  1  0.09464654  0.45628111  0.64327616  1
  S  S25  1  0.90376217  0.42885224  0.35718671  1
  S  S26  1  0.72660998  0.99681812  0.29745797  1
  S  S27  1  0.26195698  0.94110521  0.67630371  1
  S  S28  1  0.16078553  0.45513662  0.44438530  1
  S  S29  1  0.81440583  0.54278575  0.53941717  1
  S  S30  1  0.43350448  0.47760125  0.79828641  1
  S  S31  1  0.55883621  0.49251135  0.19114337  1
  S  S32  1  0.91995315  0.52482886  0.99287487  1
  S  S33  1  0.08838691  0.47671779  0.02681024  1
  S  S34  1  0.67364963  0.53004732  0.89609982  1
  S  S35  1  0.32858926  0.46491890  0.09975547  1
  S  S36  1  0.60459746  0.99803570  0.65571125  1
  S  S37  1  0.39879626  0.06144998  0.33224687  1
  S  S38  1  0.24233293  0.51606028  0.34074059  1
  S  S39  1  0.76538983  0.48090308  0.69473417  1
  S  S40  1  0.66809608  0.01278203  0.44384665  1
  S  S41  1  0.33879462  0.92125723  0.54808288  1
