# generated using pymatgen
data_Pr2Mn3(SbS3)4
_symmetry_space_group_name_H-M   'P 1'
_cell_length_a   20.02960800
_cell_length_b   3.90410600
_cell_length_c   14.95364829
_cell_angle_alpha   90.00000000
_cell_angle_beta   126.33350609
_cell_angle_gamma   90.00000000
_symmetry_Int_Tables_number   1
_chemical_formula_structural   Pr2Mn3(SbS3)4
_chemical_formula_sum   'Pr4 Mn6 Sb8 S24'
_cell_volume   942.00006694
_cell_formula_units_Z   2
loop_
 _symmetry_equiv_pos_site_id
 _symmetry_equiv_pos_as_xyz
  1  'x, y, z'
loop_
 _atom_site_type_symbol
 _atom_site_label
 _atom_site_symmetry_multiplicity
 _atom_site_fract_x
 _atom_site_fract_y
 _atom_site_fract_z
 _atom_site_occupancy
  Pr  Pr0  1  0.27721424  0.48025678  0.87677848  1
  Pr  Pr1  1  0.73195016  0.51234874  0.14370717  1
  Pr  Pr2  1  0.77177502  0.05985975  0.88115420  1
  Pr  Pr3  1  0.23286877  0.90307650  0.12629347  1
  Mn  Mn4  1  0.29154647  0.41977747  0.59277947  1
  Mn  Mn5  1  0.69469058  0.47192427  0.36120115  1
  Mn  Mn6  1  0.00548663  0.99046898  0.01671468  1
  Mn  Mn7  1  0.79919097  0.98738957  0.63948804  1
  Mn  Mn8  1  0.21247187  0.07590993  0.39621227  1
  Mn  Mn9  1  0.48061376  0.48314585  0.97718447  1
  Sb  Sb10  1  0.88113914  0.87403330  0.45586304  1
  Sb  Sb11  1  0.11422860  0.97691770  0.54175295  1
  Sb  Sb12  1  0.03555635  0.48947373  0.82071873  1
  Sb  Sb13  1  0.96308939  0.46677948  0.19762589  1
  Sb  Sb14  1  0.41231268  0.55281297  0.46010716  1
  Sb  Sb15  1  0.60357417  0.57788380  0.53509156  1
  Sb  Sb16  1  0.53450676  0.94576066  0.80267938  1
  Sb  Sb17  1  0.46621693  0.97239854  0.17822821  1
  S  S18  1  0.94084001  0.00008879  0.81311034  1
  S  S19  1  0.06156497  0.01234724  0.20398197  1
  S  S20  1  0.41264646  0.98614701  0.97572000  1
  S  S21  1  0.57983087  0.05792217  0.00138254  1
  S  S22  1  0.16705050  0.97222099  0.87881456  1
  S  S23  1  0.83066790  0.03703730  0.10646692  1
  S  S24  1  0.09486420  0.45654430  0.64315934  1
  S  S25  1  0.90372701  0.42989573  0.35721054  1
  S  S26  1  0.72665976  0.99661660  0.29725366  1
  S  S27  1  0.26215064  0.94069453  0.67649023  1
  S  S28  1  0.16089286  0.45662554  0.44434669  1
  S  S29  1  0.81469847  0.54303173  0.53962796  1
  S  S30  1  0.43342406  0.47770332  0.79861045  1
  S  S31  1  0.55907426  0.49366921  0.19158382  1
  S  S32  1  0.91971504  0.52452309  0.99269600  1
  S  S33  1  0.08867030  0.47825841  0.02709186  1
  S  S34  1  0.67347134  0.52940879  0.89597420  1
  S  S35  1  0.32871923  0.46572122  0.09974305  1
  S  S36  1  0.60426145  0.99867035  0.65533510  1
  S  S37  1  0.39870056  0.06133443  0.33221512  1
  S  S38  1  0.24221462  0.51566404  0.34069949  1
  S  S39  1  0.76502220  0.48079784  0.69446174  1
  S  S40  1  0.66788758  0.01412397  0.44341707  1
  S  S41  1  0.33867382  0.92191350  0.54805874  1
