# generated using pymatgen
data_Pr2Mn3(SbS3)4
_symmetry_space_group_name_H-M   'P 1'
_cell_length_a   20.02960800
_cell_length_b   3.90410600
_cell_length_c   14.95364829
_cell_angle_alpha   90.00000000
_cell_angle_beta   126.33350609
_cell_angle_gamma   90.00000000
_symmetry_Int_Tables_number   1
_chemical_formula_structural   Pr2Mn3(SbS3)4
_chemical_formula_sum   'Pr4 Mn6 Sb8 S24'
_cell_volume   942.00006694
_cell_formula_units_Z   2
loop_
 _symmetry_equiv_pos_site_id
 _symmetry_equiv_pos_as_xyz
  1  'x, y, z'
loop_
 _atom_site_type_symbol
 _atom_site_label
 _atom_site_symmetry_multiplicity
 _atom_site_fract_x
 _atom_site_fract_y
 _atom_site_fract_z
 _atom_site_occupancy
  Pr  Pr0  1  0.27719556  0.48069209  0.87686907  1
  Pr  Pr1  1  0.73199118  0.51247473  0.14371751  1
  Pr  Pr2  1  0.77186355  0.05961586  0.88109109  1
  Pr  Pr3  1  0.23281084  0.90355637  0.12624871  1
  Mn  Mn4  1  0.29158317  0.42029978  0.59281399  1
  Mn  Mn5  1  0.69469754  0.47330148  0.36106857  1
  Mn  Mn6  1  0.00567946  0.99039541  0.01684782  1
  Mn  Mn7  1  0.79934306  0.98782051  0.63993205  1
  Mn  Mn8  1  0.21242574  0.07574719  0.39615254  1
  Mn  Mn9  1  0.48094523  0.48207342  0.97735571  1
  Sb  Sb10  1  0.88124272  0.87419336  0.45585515  1
  Sb  Sb11  1  0.11435773  0.97770062  0.54201981  1
  Sb  Sb12  1  0.03563086  0.48863306  0.82068007  1
  Sb  Sb13  1  0.96312037  0.46674821  0.19773436  1
  Sb  Sb14  1  0.41226502  0.55240694  0.45999676  1
  Sb  Sb15  1  0.60366172  0.57802107  0.53510328  1
  Sb  Sb16  1  0.53448540  0.94544694  0.80276471  1
  Sb  Sb17  1  0.46625800  0.97302220  0.17807247  1
  S  S18  1  0.94082569  0.00029415  0.81325871  1
  S  S19  1  0.06137800  0.01258525  0.20365280  1
  S  S20  1  0.41302988  0.98590388  0.97592305  1
  S  S21  1  0.57989653  0.05799540  0.00120450  1
  S  S22  1  0.16705677  0.97171565  0.87899630  1
  S  S23  1  0.83067487  0.03661139  0.10624723  1
  S  S24  1  0.09501839  0.45691572  0.64296346  1
  S  S25  1  0.90375019  0.43118093  0.35741424  1
  S  S26  1  0.72659758  0.99597653  0.29703220  1
  S  S27  1  0.26236975  0.94004660  0.67683447  1
  S  S28  1  0.16094591  0.45807187  0.44442479  1
  S  S29  1  0.81488708  0.54280458  0.53974054  1
  S  S30  1  0.43332211  0.47807827  0.79891858  1
  S  S31  1  0.55933641  0.49444007  0.19208678  1
  S  S32  1  0.91952448  0.52406444  0.99245992  1
  S  S33  1  0.08890609  0.47955494  0.02732923  1
  S  S34  1  0.67326352  0.52888408  0.89592833  1
  S  S35  1  0.32876944  0.46664428  0.09984879  1
  S  S36  1  0.60398273  0.99934971  0.65492919  1
  S  S37  1  0.39863891  0.06136586  0.33220364  1
  S  S38  1  0.24194852  0.51477607  0.34051074  1
  S  S39  1  0.76478917  0.48072230  0.69423574  1
  S  S40  1  0.66764142  0.01519299  0.44294500  1
  S  S41  1  0.33834535  0.92255834  0.54779361  1
