# generated using pymatgen
data_Pr2Mn3(SbS3)4
_symmetry_space_group_name_H-M   'P 1'
_cell_length_a   20.02960800
_cell_length_b   3.90410600
_cell_length_c   14.95364829
_cell_angle_alpha   90.00000000
_cell_angle_beta   126.33350609
_cell_angle_gamma   90.00000000
_symmetry_Int_Tables_number   1
_chemical_formula_structural   Pr2Mn3(SbS3)4
_chemical_formula_sum   'Pr4 Mn6 Sb8 S24'
_cell_volume   942.00006694
_cell_formula_units_Z   2
loop_
 _symmetry_equiv_pos_site_id
 _symmetry_equiv_pos_as_xyz
  1  'x, y, z'
loop_
 _atom_site_type_symbol
 _atom_site_label
 _atom_site_symmetry_multiplicity
 _atom_site_fract_x
 _atom_site_fract_y
 _atom_site_fract_z
 _atom_site_occupancy
  Pr  Pr0  1  0.27716630  0.48087697  0.87694231  1
  Pr  Pr1  1  0.73202664  0.51244796  0.14382254  1
  Pr  Pr2  1  0.77194378  0.05934202  0.88108901  1
  Pr  Pr3  1  0.23277065  0.90396334  0.12617251  1
  Mn  Mn4  1  0.29160962  0.42079627  0.59292647  1
  Mn  Mn5  1  0.69475769  0.47478365  0.36090202  1
  Mn  Mn6  1  0.00593197  0.99072253  0.01698337  1
  Mn  Mn7  1  0.79952415  0.98810781  0.64041253  1
  Mn  Mn8  1  0.21243870  0.07565197  0.39606500  1
  Mn  Mn9  1  0.48129532  0.48060721  0.97749721  1
  Sb  Sb10  1  0.88133768  0.87418146  0.45578454  1
  Sb  Sb11  1  0.11451807  0.97838698  0.54228561  1
  Sb  Sb12  1  0.03564361  0.48806106  0.82062462  1
  Sb  Sb13  1  0.96323184  0.46699628  0.19795954  1
  Sb  Sb14  1  0.41222316  0.55197844  0.45991881  1
  Sb  Sb15  1  0.60378706  0.57832826  0.53512631  1
  Sb  Sb16  1  0.53445583  0.94509618  0.80290044  1
  Sb  Sb17  1  0.46622885  0.97368259  0.17788629  1
  S  S18  1  0.94076177  0.00114333  0.81340099  1
  S  S19  1  0.06120330  0.01227110  0.20336326  1
  S  S20  1  0.41345555  0.98502007  0.97614302  1
  S  S21  1  0.57995941  0.05793918  0.00114545  1
  S  S22  1  0.16715121  0.97152881  0.87922994  1
  S  S23  1  0.83080536  0.03645190  0.10618179  1
  S  S24  1  0.09521536  0.45820131  0.64291581  1
  S  S25  1  0.90369768  0.43248795  0.35759761  1
  S  S26  1  0.72654969  0.99536142  0.29687898  1
  S  S27  1  0.26263761  0.93935918  0.67708624  1
  S  S28  1  0.16093398  0.45915407  0.44442006  1
  S  S29  1  0.81510825  0.54232139  0.53982335  1
  S  S30  1  0.43315976  0.47805591  0.79907010  1
  S  S31  1  0.55957011  0.49492538  0.19252827  1
  S  S32  1  0.91930706  0.52370910  0.99216147  1
  S  S33  1  0.08914555  0.48065944  0.02758016  1
  S  S34  1  0.67307171  0.52868462  0.89592021  1
  S  S35  1  0.32866690  0.46754225  0.09984595  1
  S  S36  1  0.60371933  0.99976633  0.65448339  1
  S  S37  1  0.39860530  0.06083930  0.33215321  1
  S  S38  1  0.24169850  0.51372508  0.34045339  1
  S  S39  1  0.76461217  0.48037642  0.69414951  1
  S  S40  1  0.66743603  0.01627491  0.44251557  1
  S  S41  1  0.33802955  0.92281146  0.54760164  1
