# generated using pymatgen
data_Pr2Mn3(SbS3)4
_symmetry_space_group_name_H-M   'P 1'
_cell_length_a   20.02960800
_cell_length_b   3.90410600
_cell_length_c   14.95364829
_cell_angle_alpha   90.00000000
_cell_angle_beta   126.33350609
_cell_angle_gamma   90.00000000
_symmetry_Int_Tables_number   1
_chemical_formula_structural   Pr2Mn3(SbS3)4
_chemical_formula_sum   'Pr4 Mn6 Sb8 S24'
_cell_volume   942.00006694
_cell_formula_units_Z   2
loop_
 _symmetry_equiv_pos_site_id
 _symmetry_equiv_pos_as_xyz
  1  'x, y, z'
loop_
 _atom_site_type_symbol
 _atom_site_label
 _atom_site_symmetry_multiplicity
 _atom_site_fract_x
 _atom_site_fract_y
 _atom_site_fract_z
 _atom_site_occupancy
  Pr  Pr0  1  0.26458817  0.47155338  0.86754146  1
  Pr  Pr1  1  0.73666007  0.52393504  0.13704664  1
  Pr  Pr2  1  0.76470981  0.01107480  0.86463431  1
  Pr  Pr3  1  0.23737714  0.00703664  0.13785782  1
  Mn  Mn4  1  0.29348076  0.48432800  0.60186006  1
  Mn  Mn5  1  0.69275459  0.51567698  0.38113040  1
  Mn  Mn6  1  0.00906304  0.99596255  0.01365310  1
  Mn  Mn7  1  0.80439022  0.01207607  0.61436782  1
  Mn  Mn8  1  0.19637369  0.97409028  0.37721477  1
  Mn  Mn9  1  0.49672109  0.45208205  0.98949967  1
  Sb  Sb10  1  0.89003484  0.99001659  0.45180572  1
  Sb  Sb11  1  0.11139290  0.97141849  0.54948276  1
  Sb  Sb12  1  0.03893867  0.51852971  0.81755963  1
  Sb  Sb13  1  0.96455466  0.51043118  0.18604250  1
  Sb  Sb14  1  0.39529630  0.51279651  0.45540509  1
  Sb  Sb15  1  0.60634241  0.47840315  0.54681445  1
  Sb  Sb16  1  0.53528898  0.00840618  0.81175537  1
  Sb  Sb17  1  0.46055643  0.01544693  0.18149408  1
  S  S18  1  0.93341580  0.99024481  0.80329675  1
  S  S19  1  0.06690053  0.98034365  0.18693591  1
  S  S20  1  0.41000592  0.99979138  0.97972198  1
  S  S21  1  0.59092693  0.99573781  0.02084134  1
  S  S22  1  0.16995997  0.00045776  0.89577852  1
  S  S23  1  0.82460505  0.01348803  0.09539047  1
  S  S24  1  0.08788747  0.48520121  0.64285422  1
  S  S25  1  0.90817731  0.46422441  0.35390846  1
  S  S26  1  0.73990817  0.96028678  0.29658857  1
  S  S27  1  0.25928131  0.00068799  0.70667795  1
  S  S28  1  0.16936718  0.47377332  0.44052899  1
  S  S29  1  0.82860141  0.48993251  0.54743646  1
  S  S30  1  0.43340535  0.50283749  0.79481499  1
  S  S31  1  0.56219813  0.51037193  0.18138396  1
  S  S32  1  0.91506030  0.50891286  0.99301426  1
  S  S33  1  0.08271668  0.49014751  0.01340768  1
  S  S34  1  0.66715299  0.49554856  0.88895429  1
  S  S35  1  0.32761004  0.50875129  0.09144186  1
  S  S36  1  0.59755410  0.99596429  0.66182510  1
  S  S37  1  0.40660983  0.97595622  0.34696141  1
  S  S38  1  0.24671919  0.44056241  0.31420266  1
  S  S39  1  0.76504882  0.50455287  0.70375809  1
  S  S40  1  0.67367070  0.02945986  0.45680312  1
  S  S41  1  0.32443942  0.96896768  0.54429027  1
