# generated using pymatgen
data_Pr2Mn3(SbS3)4
_symmetry_space_group_name_H-M   'P 1'
_cell_length_a   20.02960800
_cell_length_b   3.90410600
_cell_length_c   14.95364829
_cell_angle_alpha   90.00000000
_cell_angle_beta   126.33350609
_cell_angle_gamma   90.00000000
_symmetry_Int_Tables_number   1
_chemical_formula_structural   Pr2Mn3(SbS3)4
_chemical_formula_sum   'Pr4 Mn6 Sb8 S24'
_cell_volume   942.00006694
_cell_formula_units_Z   2
loop_
 _symmetry_equiv_pos_site_id
 _symmetry_equiv_pos_as_xyz
  1  'x, y, z'
loop_
 _atom_site_type_symbol
 _atom_site_label
 _atom_site_symmetry_multiplicity
 _atom_site_fract_x
 _atom_site_fract_y
 _atom_site_fract_z
 _atom_site_occupancy
  Pr  Pr0  1  0.27717972  0.48109467  0.87701237  1
  Pr  Pr1  1  0.73201403  0.51252420  0.14387262  1
  Pr  Pr2  1  0.77197482  0.05916995  0.88105193  1
  Pr  Pr3  1  0.23277266  0.90444333  0.12613720  1
  Mn  Mn4  1  0.29159040  0.42137778  0.59302660  1
  Mn  Mn5  1  0.69487443  0.47560145  0.36077734  1
  Mn  Mn6  1  0.00617232  0.99118904  0.01709264  1
  Mn  Mn7  1  0.79972060  0.98835594  0.64088522  1
  Mn  Mn8  1  0.21247709  0.07523215  0.39593769  1
  Mn  Mn9  1  0.48168848  0.47912867  0.97769280  1
  Sb  Sb10  1  0.88136969  0.87412493  0.45569604  1
  Sb  Sb11  1  0.11458704  0.97924245  0.54244866  1
  Sb  Sb12  1  0.03562074  0.48745037  0.82058021  1
  Sb  Sb13  1  0.96328693  0.46720252  0.19809576  1
  Sb  Sb14  1  0.41217516  0.55177929  0.45983819  1
  Sb  Sb15  1  0.60385254  0.57869524  0.53508553  1
  Sb  Sb16  1  0.53452178  0.94492141  0.80311124  1
  Sb  Sb17  1  0.46620189  0.97423439  0.17768915  1
  S  S18  1  0.94077160  0.00090853  0.81372574  1
  S  S19  1  0.06111732  0.01162643  0.20308384  1
  S  S20  1  0.41374406  0.98478844  0.97633468  1
  S  S21  1  0.58024563  0.05828693  0.00126274  1
  S  S22  1  0.16723425  0.97153837  0.87938223  1
  S  S23  1  0.83088986  0.03671540  0.10610386  1
  S  S24  1  0.09537631  0.45974946  0.64286330  1
  S  S25  1  0.90373245  0.43377500  0.35783771  1
  S  S26  1  0.72627466  0.99447056  0.29665891  1
  S  S27  1  0.26290228  0.93887123  0.67732676  1
  S  S28  1  0.16093305  0.46010380  0.44434144  1
  S  S29  1  0.81524642  0.54188839  0.53994596  1
  S  S30  1  0.43298233  0.47817750  0.79935603  1
  S  S31  1  0.55966366  0.49522295  0.19289903  1
  S  S32  1  0.91919142  0.52355933  0.99199534  1
  S  S33  1  0.08936802  0.48143873  0.02773805  1
  S  S34  1  0.67278172  0.52873411  0.89573508  1
  S  S35  1  0.32864483  0.46784336  0.09983708  1
  S  S36  1  0.60348393  0.00012792  0.65414037  1
  S  S37  1  0.39855612  0.06015515  0.33204799  1
  S  S38  1  0.24140692  0.51258697  0.34017602  1
  S  S39  1  0.76442863  0.48005429  0.69416857  1
  S  S40  1  0.66712498  0.01721293  0.44211149  1
  S  S41  1  0.33780553  0.92272372  0.54746332  1
