# generated using pymatgen
data_Pr2Mn3(SbS3)4
_symmetry_space_group_name_H-M   'P 1'
_cell_length_a   20.02960800
_cell_length_b   3.90410600
_cell_length_c   14.95364829
_cell_angle_alpha   90.00000000
_cell_angle_beta   126.33350609
_cell_angle_gamma   90.00000000
_symmetry_Int_Tables_number   1
_chemical_formula_structural   Pr2Mn3(SbS3)4
_chemical_formula_sum   'Pr4 Mn6 Sb8 S24'
_cell_volume   942.00006694
_cell_formula_units_Z   2
loop_
 _symmetry_equiv_pos_site_id
 _symmetry_equiv_pos_as_xyz
  1  'x, y, z'
loop_
 _atom_site_type_symbol
 _atom_site_label
 _atom_site_symmetry_multiplicity
 _atom_site_fract_x
 _atom_site_fract_y
 _atom_site_fract_z
 _atom_site_occupancy
  Pr  Pr0  1  0.27720048  0.48104358  0.87701225  1
  Pr  Pr1  1  0.73201704  0.51258179  0.14398700  1
  Pr  Pr2  1  0.77205525  0.05890948  0.88107914  1
  Pr  Pr3  1  0.23277028  0.90492688  0.12616695  1
  Mn  Mn4  1  0.29161898  0.42165866  0.59314235  1
  Mn  Mn5  1  0.69498161  0.47588372  0.36069893  1
  Mn  Mn6  1  0.00636606  0.99169802  0.01715305  1
  Mn  Mn7  1  0.79978892  0.98885253  0.64125563  1
  Mn  Mn8  1  0.21257575  0.07496446  0.39577111  1
  Mn  Mn9  1  0.48215812  0.47764049  0.97793278  1
  Sb  Sb10  1  0.88135274  0.87384392  0.45556451  1
  Sb  Sb11  1  0.11469787  0.97992291  0.54262644  1
  Sb  Sb12  1  0.03557491  0.48700278  0.82048818  1
  Sb  Sb13  1  0.96328387  0.46722452  0.19813051  1
  Sb  Sb14  1  0.41214504  0.55143905  0.45979364  1
  Sb  Sb15  1  0.60391705  0.57893884  0.53506061  1
  Sb  Sb16  1  0.53457341  0.94468900  0.80329026  1
  Sb  Sb17  1  0.46611888  0.97470136  0.17749835  1
  S  S18  1  0.94082503  0.00057976  0.81407487  1
  S  S19  1  0.06104897  0.01157786  0.20293605  1
  S  S20  1  0.41393912  0.98416282  0.97647184  1
  S  S21  1  0.58047419  0.05834537  0.00138382  1
  S  S22  1  0.16731761  0.97125895  0.87949864  1
  S  S23  1  0.83090589  0.03647090  0.10595028  1
  S  S24  1  0.09557087  0.46105666  0.64287244  1
  S  S25  1  0.90363668  0.43512286  0.35792815  1
  S  S26  1  0.72593673  0.99390557  0.29641548  1
  S  S27  1  0.26312634  0.93812244  0.67760412  1
  S  S28  1  0.16088558  0.45993264  0.44416320  1
  S  S29  1  0.81524964  0.54120371  0.54000050  1
  S  S30  1  0.43288765  0.47826676  0.79963517  1
  S  S31  1  0.55983366  0.49543510  0.19307199  1
  S  S32  1  0.91906501  0.52371763  0.99185024  1
  S  S33  1  0.08955921  0.48203100  0.02788293  1
  S  S34  1  0.67254176  0.52884507  0.89566346  1
  S  S35  1  0.32863844  0.46828552  0.09977046  1
  S  S36  1  0.60322392  0.00062342  0.65371130  1
  S  S37  1  0.39845823  0.05994913  0.33186962  1
  S  S38  1  0.24112120  0.51165697  0.33989654  1
  S  S39  1  0.76413010  0.48013900  0.69413518  1
  S  S40  1  0.66685724  0.01826902  0.44173976  1
  S  S41  1  0.33760492  0.92242513  0.54740814  1
