# generated using pymatgen
data_Pr2Mn3(SbS3)4
_symmetry_space_group_name_H-M   'P 1'
_cell_length_a   20.02960800
_cell_length_b   3.90410600
_cell_length_c   14.95364829
_cell_angle_alpha   90.00000000
_cell_angle_beta   126.33350609
_cell_angle_gamma   90.00000000
_symmetry_Int_Tables_number   1
_chemical_formula_structural   Pr2Mn3(SbS3)4
_chemical_formula_sum   'Pr4 Mn6 Sb8 S24'
_cell_volume   942.00006694
_cell_formula_units_Z   2
loop_
 _symmetry_equiv_pos_site_id
 _symmetry_equiv_pos_as_xyz
  1  'x, y, z'
loop_
 _atom_site_type_symbol
 _atom_site_label
 _atom_site_symmetry_multiplicity
 _atom_site_fract_x
 _atom_site_fract_y
 _atom_site_fract_z
 _atom_site_occupancy
  Pr  Pr0  1  0.27718902  0.48068999  0.87700385  1
  Pr  Pr1  1  0.73200474  0.51245215  0.14407936  1
  Pr  Pr2  1  0.77211980  0.05866013  0.88124298  1
  Pr  Pr3  1  0.23276132  0.90517111  0.12617181  1
  Mn  Mn4  1  0.29166776  0.42179138  0.59335847  1
  Mn  Mn5  1  0.69504116  0.47584214  0.36064964  1
  Mn  Mn6  1  0.00658272  0.99221618  0.01719709  1
  Mn  Mn7  1  0.79982681  0.98891956  0.64156449  1
  Mn  Mn8  1  0.21263500  0.07476944  0.39560519  1
  Mn  Mn9  1  0.48257991  0.47618281  0.97817093  1
  Sb  Sb10  1  0.88134253  0.87386090  0.45545563  1
  Sb  Sb11  1  0.11479770  0.98084212  0.54276575  1
  Sb  Sb12  1  0.03556705  0.48658071  0.82047682  1
  Sb  Sb13  1  0.96330297  0.46716327  0.19827504  1
  Sb  Sb14  1  0.41216831  0.55113526  0.45979683  1
  Sb  Sb15  1  0.60396498  0.57942418  0.53507539  1
  Sb  Sb16  1  0.53459637  0.94436818  0.80342099  1
  Sb  Sb17  1  0.46603259  0.97509992  0.17733728  1
  S  S18  1  0.94075199  0.00033547  0.81423497  1
  S  S19  1  0.06114178  0.01117739  0.20296816  1
  S  S20  1  0.41409746  0.98332310  0.97657851  1
  S  S21  1  0.58076607  0.05847803  0.00166788  1
  S  S22  1  0.16740746  0.97106568  0.87946698  1
  S  S23  1  0.83090049  0.03623879  0.10573636  1
  S  S24  1  0.09573242  0.46230641  0.64281315  1
  S  S25  1  0.90339044  0.43622181  0.35797449  1
  S  S26  1  0.72566381  0.99325926  0.29617914  1
  S  S27  1  0.26321471  0.93739146  0.67778530  1
  S  S28  1  0.16079571  0.45949966  0.44389565  1
  S  S29  1  0.81531724  0.54038379  0.54011271  1
  S  S30  1  0.43287575  0.47881441  0.80003114  1
  S  S31  1  0.56002525  0.49581617  0.19337958  1
  S  S32  1  0.91891456  0.52423617  0.99161770  1
  S  S33  1  0.08977171  0.48256420  0.02800450  1
  S  S34  1  0.67231210  0.52912857  0.89566584  1
  S  S35  1  0.32879445  0.46862957  0.09986466  1
  S  S36  1  0.60312532  0.00132582  0.65350829  1
  S  S37  1  0.39841083  0.05973213  0.33194905  1
  S  S38  1  0.24085631  0.51086919  0.33945235  1
  S  S39  1  0.76385004  0.48018576  0.69420209  1
  S  S40  1  0.66667031  0.01880154  0.44135155  1
  S  S41  1  0.33736162  0.92200726  0.54737326  1
