# generated using pymatgen
data_Pr2Mn3(SbS3)4
_symmetry_space_group_name_H-M   'P 1'
_cell_length_a   20.02960800
_cell_length_b   3.90410600
_cell_length_c   14.95364829
_cell_angle_alpha   90.00000000
_cell_angle_beta   126.33350609
_cell_angle_gamma   90.00000000
_symmetry_Int_Tables_number   1
_chemical_formula_structural   Pr2Mn3(SbS3)4
_chemical_formula_sum   'Pr4 Mn6 Sb8 S24'
_cell_volume   942.00006694
_cell_formula_units_Z   2
loop_
 _symmetry_equiv_pos_site_id
 _symmetry_equiv_pos_as_xyz
  1  'x, y, z'
loop_
 _atom_site_type_symbol
 _atom_site_label
 _atom_site_symmetry_multiplicity
 _atom_site_fract_x
 _atom_site_fract_y
 _atom_site_fract_z
 _atom_site_occupancy
  Pr  Pr0  1  0.27714402  0.48066752  0.87692194  1
  Pr  Pr1  1  0.73203566  0.51257963  0.14417152  1
  Pr  Pr2  1  0.77220494  0.05817769  0.88148102  1
  Pr  Pr3  1  0.23273252  0.90550910  0.12617422  1
  Mn  Mn4  1  0.29174911  0.42134654  0.59366894  1
  Mn  Mn5  1  0.69521332  0.47565343  0.36085328  1
  Mn  Mn6  1  0.00679540  0.99287994  0.01727084  1
  Mn  Mn7  1  0.79985427  0.98918266  0.64180067  1
  Mn  Mn8  1  0.21271398  0.07479255  0.39539820  1
  Mn  Mn9  1  0.48295168  0.47495872  0.97843990  1
  Sb  Sb10  1  0.88134166  0.87382581  0.45543300  1
  Sb  Sb11  1  0.11491181  0.98179878  0.54295094  1
  Sb  Sb12  1  0.03566920  0.48617777  0.82055535  1
  Sb  Sb13  1  0.96332465  0.46724593  0.19832389  1
  Sb  Sb14  1  0.41219927  0.55117184  0.45983531  1
  Sb  Sb15  1  0.60405336  0.57986591  0.53504294  1
  Sb  Sb16  1  0.53458546  0.94389597  0.80357651  1
  Sb  Sb17  1  0.46598986  0.97534379  0.17719896  1
  S  S18  1  0.94080712  0.00045107  0.81445501  1
  S  S19  1  0.06123895  0.01020150  0.20292694  1
  S  S20  1  0.41421527  0.98228196  0.97661410  1
  S  S21  1  0.58101381  0.05821411  0.00190752  1
  S  S22  1  0.16735489  0.97087807  0.87916978  1
  S  S23  1  0.83085024  0.03613484  0.10542449  1
  S  S24  1  0.09589469  0.46379515  0.64278426  1
  S  S25  1  0.90321165  0.43731180  0.35808164  1
  S  S26  1  0.72537844  0.99256284  0.29614732  1
  S  S27  1  0.26331075  0.93715641  0.67798990  1
  S  S28  1  0.16066023  0.45968861  0.44351743  1
  S  S29  1  0.81537149  0.53933674  0.54006140  1
  S  S30  1  0.43290368  0.47942949  0.80041159  1
  S  S31  1  0.56018697  0.49604433  0.19379332  1
  S  S32  1  0.91868960  0.52455326  0.99137001  1
  S  S33  1  0.08995083  0.48316596  0.02822892  1
  S  S34  1  0.67217686  0.52952764  0.89575586  1
  S  S35  1  0.32885390  0.46899245  0.09998379  1
  S  S36  1  0.60315664  0.00191632  0.65364742  1
  S  S37  1  0.39834221  0.05974532  0.33192477  1
  S  S38  1  0.24059068  0.51032130  0.33902223  1
  S  S39  1  0.76356319  0.48059702  0.69418090  1
  S  S40  1  0.66660137  0.01905510  0.44096535  1
  S  S41  1  0.33714853  0.92138383  0.54745022  1
