# generated using pymatgen
data_Pr2Mn3(SbS3)4
_symmetry_space_group_name_H-M   'P 1'
_cell_length_a   20.02960800
_cell_length_b   3.90410600
_cell_length_c   14.95364829
_cell_angle_alpha   90.00000000
_cell_angle_beta   126.33350609
_cell_angle_gamma   90.00000000
_symmetry_Int_Tables_number   1
_chemical_formula_structural   Pr2Mn3(SbS3)4
_chemical_formula_sum   'Pr4 Mn6 Sb8 S24'
_cell_volume   942.00006694
_cell_formula_units_Z   2
loop_
 _symmetry_equiv_pos_site_id
 _symmetry_equiv_pos_as_xyz
  1  'x, y, z'
loop_
 _atom_site_type_symbol
 _atom_site_label
 _atom_site_symmetry_multiplicity
 _atom_site_fract_x
 _atom_site_fract_y
 _atom_site_fract_z
 _atom_site_occupancy
  Pr  Pr0  1  0.27708332  0.48057371  0.87678039  1
  Pr  Pr1  1  0.73208745  0.51273213  0.14428277  1
  Pr  Pr2  1  0.77227111  0.05768037  0.88171978  1
  Pr  Pr3  1  0.23266749  0.90578613  0.12609094  1
  Mn  Mn4  1  0.29176324  0.42115266  0.59391001  1
  Mn  Mn5  1  0.69537239  0.47536899  0.36099444  1
  Mn  Mn6  1  0.00695946  0.99385534  0.01740934  1
  Mn  Mn7  1  0.79991743  0.98937714  0.64202196  1
  Mn  Mn8  1  0.21283443  0.07482760  0.39528202  1
  Mn  Mn9  1  0.48330055  0.47367933  0.97871929  1
  Sb  Sb10  1  0.88131587  0.87349426  0.45534722  1
  Sb  Sb11  1  0.11502451  0.98259490  0.54308537  1
  Sb  Sb12  1  0.03579078  0.48586594  0.82066977  1
  Sb  Sb13  1  0.96333047  0.46738222  0.19831916  1
  Sb  Sb14  1  0.41224936  0.55110381  0.45991852  1
  Sb  Sb15  1  0.60407650  0.58020863  0.53496840  1
  Sb  Sb16  1  0.53460172  0.94361905  0.80370777  1
  Sb  Sb17  1  0.46592092  0.97566262  0.17704775  1
  S  S18  1  0.94069360  0.00045966  0.81446998  1
  S  S19  1  0.06145738  0.00931181  0.20303024  1
  S  S20  1  0.41446496  0.98099604  0.97669601  1
  S  S21  1  0.58127586  0.05748564  0.00209096  1
  S  S22  1  0.16723223  0.97099686  0.87872992  1
  S  S23  1  0.83089481  0.03537270  0.10523599  1
  S  S24  1  0.09602863  0.46517649  0.64262956  1
  S  S25  1  0.90297398  0.43797790  0.35810505  1
  S  S26  1  0.72489343  0.99166284  0.29596940  1
  S  S27  1  0.26352761  0.93665798  0.67822153  1
  S  S28  1  0.16063903  0.45995931  0.44318013  1
  S  S29  1  0.81527666  0.53886763  0.53995685  1
  S  S30  1  0.43289876  0.47906820  0.80080946  1
  S  S31  1  0.56022078  0.49578153  0.19419092  1
  S  S32  1  0.91845741  0.52496619  0.99124442  1
  S  S33  1  0.09021890  0.48362931  0.02848272  1
  S  S34  1  0.67201244  0.53000766  0.89583579  1
  S  S35  1  0.32887689  0.46913378  0.10007605  1
  S  S36  1  0.60305502  0.00304426  0.65366483  1
  S  S37  1  0.39830949  0.05948473  0.33195045  1
  S  S38  1  0.24043947  0.50979914  0.33874116  1
  S  S39  1  0.76325775  0.48079340  0.69408295  1
  S  S40  1  0.66655958  0.01930196  0.44063139  1
  S  S41  1  0.33691425  0.92055693  0.54755218  1
