# generated using pymatgen
data_Pr2Mn3(SbS3)4
_symmetry_space_group_name_H-M   'P 1'
_cell_length_a   20.02960800
_cell_length_b   3.90410600
_cell_length_c   14.95364829
_cell_angle_alpha   90.00000000
_cell_angle_beta   126.33350609
_cell_angle_gamma   90.00000000
_symmetry_Int_Tables_number   1
_chemical_formula_structural   Pr2Mn3(SbS3)4
_chemical_formula_sum   'Pr4 Mn6 Sb8 S24'
_cell_volume   942.00006694
_cell_formula_units_Z   2
loop_
 _symmetry_equiv_pos_site_id
 _symmetry_equiv_pos_as_xyz
  1  'x, y, z'
loop_
 _atom_site_type_symbol
 _atom_site_label
 _atom_site_symmetry_multiplicity
 _atom_site_fract_x
 _atom_site_fract_y
 _atom_site_fract_z
 _atom_site_occupancy
  Pr  Pr0  1  0.27698874  0.48047596  0.87660711  1
  Pr  Pr1  1  0.73214920  0.51291819  0.14438577  1
  Pr  Pr2  1  0.77237821  0.05698885  0.88200603  1
  Pr  Pr3  1  0.23262482  0.90621513  0.12604489  1
  Mn  Mn4  1  0.29177087  0.42096900  0.59407590  1
  Mn  Mn5  1  0.69553700  0.47525170  0.36118265  1
  Mn  Mn6  1  0.00717770  0.99459379  0.01772178  1
  Mn  Mn7  1  0.79999453  0.98971879  0.64235868  1
  Mn  Mn8  1  0.21295026  0.07468456  0.39527382  1
  Mn  Mn9  1  0.48372631  0.47252245  0.97900898  1
  Sb  Sb10  1  0.88130010  0.87328361  0.45530070  1
  Sb  Sb11  1  0.11514018  0.98305810  0.54323313  1
  Sb  Sb12  1  0.03590048  0.48554598  0.82078141  1
  Sb  Sb13  1  0.96339772  0.46763154  0.19837191  1
  Sb  Sb14  1  0.41225798  0.55095223  0.45991473  1
  Sb  Sb15  1  0.60412670  0.58024836  0.53496626  1
  Sb  Sb16  1  0.53456047  0.94330334  0.80382358  1
  Sb  Sb17  1  0.46583306  0.97613197  0.17691520  1
  S  S18  1  0.94050725  0.99999370  0.81449961  1
  S  S19  1  0.06166822  0.00833281  0.20309246  1
  S  S20  1  0.41466190  0.97947937  0.97665199  1
  S  S21  1  0.58150660  0.05610531  0.00220490  1
  S  S22  1  0.16718922  0.97126756  0.87847525  1
  S  S23  1  0.83102269  0.03453675  0.10491337  1
  S  S24  1  0.09611727  0.46610826  0.64246486  1
  S  S25  1  0.90279137  0.43863479  0.35814530  1
  S  S26  1  0.72455358  0.99079709  0.29583349  1
  S  S27  1  0.26379929  0.93584487  0.67833440  1
  S  S28  1  0.16065921  0.46019860  0.44280097  1
  S  S29  1  0.81508428  0.53865417  0.53983991  1
  S  S30  1  0.43286339  0.47802810  0.80119979  1
  S  S31  1  0.56031709  0.49553560  0.19466195  1
  S  S32  1  0.91818465  0.52541907  0.99109727  1
  S  S33  1  0.09047578  0.48376362  0.02862622  1
  S  S34  1  0.67181330  0.53041312  0.89589186  1
  S  S35  1  0.32893989  0.46936461  0.10012974  1
  S  S36  1  0.60298597  0.00442803  0.65374017  1
  S  S37  1  0.39798703  0.05881356  0.33170075  1
  S  S38  1  0.24026422  0.50968930  0.33838179  1
  S  S39  1  0.76298546  0.48072574  0.69413998  1
  S  S40  1  0.66655123  0.01946511  0.44046534  1
  S  S41  1  0.33672116  0.92051618  0.54753026  1
