# generated using pymatgen
data_Pr2Mn3(SbS3)4
_symmetry_space_group_name_H-M   'P 1'
_cell_length_a   20.02960800
_cell_length_b   3.90410600
_cell_length_c   14.95364829
_cell_angle_alpha   90.00000000
_cell_angle_beta   126.33350609
_cell_angle_gamma   90.00000000
_symmetry_Int_Tables_number   1
_chemical_formula_structural   Pr2Mn3(SbS3)4
_chemical_formula_sum   'Pr4 Mn6 Sb8 S24'
_cell_volume   942.00006694
_cell_formula_units_Z   2
loop_
 _symmetry_equiv_pos_site_id
 _symmetry_equiv_pos_as_xyz
  1  'x, y, z'
loop_
 _atom_site_type_symbol
 _atom_site_label
 _atom_site_symmetry_multiplicity
 _atom_site_fract_x
 _atom_site_fract_y
 _atom_site_fract_z
 _atom_site_occupancy
  Pr  Pr0  1  0.27690321  0.48021851  0.87652167  1
  Pr  Pr1  1  0.73217043  0.51314363  0.14439504  1
  Pr  Pr2  1  0.77249726  0.05631930  0.88222874  1
  Pr  Pr3  1  0.23252892  0.90666564  0.12597137  1
  Mn  Mn4  1  0.29180703  0.42040410  0.59424745  1
  Mn  Mn5  1  0.69566905  0.47538309  0.36130346  1
  Mn  Mn6  1  0.00731806  0.99561119  0.01794723  1
  Mn  Mn7  1  0.80011010  0.99000138  0.64269139  1
  Mn  Mn8  1  0.21305440  0.07438895  0.39525809  1
  Mn  Mn9  1  0.48413124  0.47207290  0.97934638  1
  Sb  Sb10  1  0.88133442  0.87318019  0.45527253  1
  Sb  Sb11  1  0.11523373  0.98338105  0.54340072  1
  Sb  Sb12  1  0.03600148  0.48532768  0.82091975  1
  Sb  Sb13  1  0.96338965  0.46777251  0.19832887  1
  Sb  Sb14  1  0.41234535  0.55035498  0.45999465  1
  Sb  Sb15  1  0.60421086  0.58043351  0.53490814  1
  Sb  Sb16  1  0.53453382  0.94284196  0.80391957  1
  Sb  Sb17  1  0.46579041  0.97670503  0.17682526  1
  S  S18  1  0.94045092  0.99936207  0.81444771  1
  S  S19  1  0.06175872  0.00786402  0.20314611  1
  S  S20  1  0.41474339  0.97819357  0.97658819  1
  S  S21  1  0.58163863  0.05499275  0.00236666  1
  S  S22  1  0.16711780  0.97182550  0.87814066  1
  S  S23  1  0.83122788  0.03352597  0.10483274  1
  S  S24  1  0.09618801  0.46668042  0.64227987  1
  S  S25  1  0.90269269  0.43926693  0.35826461  1
  S  S26  1  0.72422285  0.98942715  0.29566478  1
  S  S27  1  0.26399991  0.93564308  0.67844498  1
  S  S28  1  0.16063556  0.46045083  0.44248877  1
  S  S29  1  0.81482586  0.53875544  0.53954998  1
  S  S30  1  0.43280143  0.47702342  0.80143495  1
  S  S31  1  0.56035839  0.49507195  0.19513419  1
  S  S32  1  0.91780247  0.52541854  0.99081996  1
  S  S33  1  0.09062823  0.48358149  0.02869759  1
  S  S34  1  0.67157377  0.53047286  0.89582483  1
  S  S35  1  0.32904108  0.46970350  0.10032333  1
  S  S36  1  0.60291968  0.00568428  0.65395471  1
  S  S37  1  0.39771938  0.05825804  0.33146513  1
  S  S38  1  0.24013854  0.51021839  0.33802833  1
  S  S39  1  0.76265832  0.48084831  0.69391059  1
  S  S40  1  0.66652970  0.02007887  0.44027098  1
  S  S41  1  0.33648720  0.92029962  0.54741948  1
