# generated using pymatgen
data_Pr2Mn3(SbS3)4
_symmetry_space_group_name_H-M   'P 1'
_cell_length_a   20.02960800
_cell_length_b   3.90410600
_cell_length_c   14.95364829
_cell_angle_alpha   90.00000000
_cell_angle_beta   126.33350609
_cell_angle_gamma   90.00000000
_symmetry_Int_Tables_number   1
_chemical_formula_structural   Pr2Mn3(SbS3)4
_chemical_formula_sum   'Pr4 Mn6 Sb8 S24'
_cell_volume   942.00006694
_cell_formula_units_Z   2
loop_
 _symmetry_equiv_pos_site_id
 _symmetry_equiv_pos_as_xyz
  1  'x, y, z'
loop_
 _atom_site_type_symbol
 _atom_site_label
 _atom_site_symmetry_multiplicity
 _atom_site_fract_x
 _atom_site_fract_y
 _atom_site_fract_z
 _atom_site_occupancy
  Pr  Pr0  1  0.27676606  0.48025845  0.87639561  1
  Pr  Pr1  1  0.73224299  0.51355036  0.14443833  1
  Pr  Pr2  1  0.77262803  0.05542724  0.88237773  1
  Pr  Pr3  1  0.23240975  0.90725415  0.12583821  1
  Mn  Mn4  1  0.29184213  0.41994488  0.59445523  1
  Mn  Mn5  1  0.69574510  0.47572915  0.36148515  1
  Mn  Mn6  1  0.00742361  0.99602434  0.01807774  1
  Mn  Mn7  1  0.80022721  0.98993362  0.64300868  1
  Mn  Mn8  1  0.21311114  0.07387528  0.39532515  1
  Mn  Mn9  1  0.48459483  0.47165303  0.97974039  1
  Sb  Sb10  1  0.88137500  0.87309419  0.45529990  1
  Sb  Sb11  1  0.11528675  0.98376031  0.54341572  1
  Sb  Sb12  1  0.03606588  0.48521551  0.82101234  1
  Sb  Sb13  1  0.96343231  0.46795124  0.19828949  1
  Sb  Sb14  1  0.41237213  0.55016849  0.45997783  1
  Sb  Sb15  1  0.60430488  0.58069622  0.53484577  1
  Sb  Sb16  1  0.53449165  0.94263378  0.80395823  1
  Sb  Sb17  1  0.46573932  0.97731221  0.17677308  1
  S  S18  1  0.94040580  0.99812635  0.81437261  1
  S  S19  1  0.06197427  0.00650017  0.20336052  1
  S  S20  1  0.41475783  0.97684863  0.97654337  1
  S  S21  1  0.58172291  0.05416382  0.00244574  1
  S  S22  1  0.16698039  0.97243837  0.87784060  1
  S  S23  1  0.83153320  0.03200258  0.10486829  1
  S  S24  1  0.09631967  0.46763147  0.64218087  1
  S  S25  1  0.90260556  0.43990777  0.35842055  1
  S  S26  1  0.72387370  0.98863320  0.29547975  1
  S  S27  1  0.26411848  0.93546445  0.67843800  1
  S  S28  1  0.16064432  0.46028983  0.44217732  1
  S  S29  1  0.81451266  0.53829319  0.53922943  1
  S  S30  1  0.43273627  0.47624367  0.80171704  1
  S  S31  1  0.56038438  0.49493375  0.19553419  1
  S  S32  1  0.91758956  0.52559294  0.99059820  1
  S  S33  1  0.09077557  0.48324841  0.02880788  1
  S  S34  1  0.67136679  0.53087374  0.89576124  1
  S  S35  1  0.32909484  0.47011687  0.10041820  1
  S  S36  1  0.60278661  0.00699453  0.65413838  1
  S  S37  1  0.39737343  0.05763728  0.33116650  1
  S  S38  1  0.23994946  0.51064369  0.33758834  1
  S  S39  1  0.76235500  0.48099675  0.69368596  1
  S  S40  1  0.66651236  0.02052185  0.44013344  1
  S  S41  1  0.33634312  0.92008457  0.54721895  1
