# generated using pymatgen
data_Pr2Mn3(SbS3)4
_symmetry_space_group_name_H-M   'P 1'
_cell_length_a   20.02960800
_cell_length_b   3.90410600
_cell_length_c   14.95364829
_cell_angle_alpha   90.00000000
_cell_angle_beta   126.33350609
_cell_angle_gamma   90.00000000
_symmetry_Int_Tables_number   1
_chemical_formula_structural   Pr2Mn3(SbS3)4
_chemical_formula_sum   'Pr4 Mn6 Sb8 S24'
_cell_volume   942.00006694
_cell_formula_units_Z   2
loop_
 _symmetry_equiv_pos_site_id
 _symmetry_equiv_pos_as_xyz
  1  'x, y, z'
loop_
 _atom_site_type_symbol
 _atom_site_label
 _atom_site_symmetry_multiplicity
 _atom_site_fract_x
 _atom_site_fract_y
 _atom_site_fract_z
 _atom_site_occupancy
  Pr  Pr0  1  0.27671872  0.48029793  0.87634557  1
  Pr  Pr1  1  0.73235353  0.51381998  0.14456413  1
  Pr  Pr2  1  0.77273186  0.05468659  0.88253209  1
  Pr  Pr3  1  0.23238647  0.90782848  0.12577585  1
  Mn  Mn4  1  0.29185982  0.41939882  0.59473069  1
  Mn  Mn5  1  0.69580852  0.47600913  0.36168656  1
  Mn  Mn6  1  0.00743608  0.99690785  0.01821725  1
  Mn  Mn7  1  0.80037988  0.99001881  0.64331311  1
  Mn  Mn8  1  0.21323305  0.07321319  0.39541798  1
  Mn  Mn9  1  0.48497086  0.47127316  0.98007391  1
  Sb  Sb10  1  0.88145887  0.87295619  0.45534313  1
  Sb  Sb11  1  0.11534578  0.98401503  0.54340753  1
  Sb  Sb12  1  0.03614574  0.48505082  0.82113071  1
  Sb  Sb13  1  0.96347484  0.46807225  0.19822878  1
  Sb  Sb14  1  0.41248434  0.54987039  0.46006955  1
  Sb  Sb15  1  0.60440558  0.58118241  0.53478675  1
  Sb  Sb16  1  0.53450205  0.94260600  0.80404246  1
  Sb  Sb17  1  0.46570896  0.97796312  0.17674327  1
  S  S18  1  0.94038334  0.99675864  0.81419937  1
  S  S19  1  0.06206319  0.00537700  0.20348286  1
  S  S20  1  0.41488521  0.97555813  0.97650007  1
  S  S21  1  0.58176149  0.05371063  0.00239152  1
  S  S22  1  0.16680714  0.97312874  0.87752675  1
  S  S23  1  0.83178851  0.03037657  0.10491438  1
  S  S24  1  0.09644105  0.46873192  0.64209530  1
  S  S25  1  0.90244923  0.44052313  0.35854891  1
  S  S26  1  0.72351704  0.98802071  0.29531357  1
  S  S27  1  0.26424028  0.93501882  0.67834988  1
  S  S28  1  0.16072114  0.46034005  0.44186453  1
  S  S29  1  0.81422227  0.53797774  0.53886691  1
  S  S30  1  0.43259649  0.47494074  0.80201543  1
  S  S31  1  0.56051172  0.49497334  0.19591768  1
  S  S32  1  0.91744339  0.52551138  0.99047726  1
  S  S33  1  0.09103184  0.48287144  0.02894243  1
  S  S34  1  0.67116874  0.53141004  0.89575714  1
  S  S35  1  0.32919927  0.47037160  0.10057787  1
  S  S36  1  0.60270211  0.00800213  0.65421412  1
  S  S37  1  0.39708566  0.05696198  0.33106708  1
  S  S38  1  0.23973908  0.51140492  0.33713564  1
  S  S39  1  0.76206964  0.48147796  0.69349234  1
  S  S40  1  0.66650465  0.02078364  0.44014505  1
  S  S41  1  0.33611590  0.91994624  0.54706076  1
