# generated using pymatgen
data_Pr2Mn3(SbS3)4
_symmetry_space_group_name_H-M   'P 1'
_cell_length_a   20.02960800
_cell_length_b   3.90410600
_cell_length_c   14.95364829
_cell_angle_alpha   90.00000000
_cell_angle_beta   126.33350609
_cell_angle_gamma   90.00000000
_symmetry_Int_Tables_number   1
_chemical_formula_structural   Pr2Mn3(SbS3)4
_chemical_formula_sum   'Pr4 Mn6 Sb8 S24'
_cell_volume   942.00006694
_cell_formula_units_Z   2
loop_
 _symmetry_equiv_pos_site_id
 _symmetry_equiv_pos_as_xyz
  1  'x, y, z'
loop_
 _atom_site_type_symbol
 _atom_site_label
 _atom_site_symmetry_multiplicity
 _atom_site_fract_x
 _atom_site_fract_y
 _atom_site_fract_z
 _atom_site_occupancy
  Pr  Pr0  1  0.27665300  0.48037753  0.87626179  1
  Pr  Pr1  1  0.73248725  0.51410493  0.14472739  1
  Pr  Pr2  1  0.77274725  0.05407590  0.88256597  1
  Pr  Pr3  1  0.23239240  0.90838959  0.12575602  1
  Mn  Mn4  1  0.29190517  0.41901383  0.59512306  1
  Mn  Mn5  1  0.69586353  0.47645070  0.36190762  1
  Mn  Mn6  1  0.00735375  0.99819810  0.01821324  1
  Mn  Mn7  1  0.80055630  0.99031301  0.64354986  1
  Mn  Mn8  1  0.21333895  0.07225882  0.39541097  1
  Mn  Mn9  1  0.48534905  0.47085389  0.98033913  1
  Sb  Sb10  1  0.88152723  0.87297737  0.45534233  1
  Sb  Sb11  1  0.11536202  0.98404156  0.54338994  1
  Sb  Sb12  1  0.03623583  0.48492726  0.82126388  1
  Sb  Sb13  1  0.96346075  0.46822620  0.19814523  1
  Sb  Sb14  1  0.41256646  0.54958771  0.46014727  1
  Sb  Sb15  1  0.60447499  0.58160489  0.53467410  1
  Sb  Sb16  1  0.53447041  0.94268370  0.80409343  1
  Sb  Sb17  1  0.46563968  0.97846336  0.17664388  1
  S  S18  1  0.94037083  0.99620265  0.81400860  1
  S  S19  1  0.06234861  0.00433138  0.20381821  1
  S  S20  1  0.41503788  0.97393674  0.97645517  1
  S  S21  1  0.58182046  0.05337977  0.00221908  1
  S  S22  1  0.16662466  0.97405018  0.87728052  1
  S  S23  1  0.83208184  0.02846677  0.10502777  1
  S  S24  1  0.09645568  0.46969808  0.64196515  1
  S  S25  1  0.90209671  0.44084302  0.35852351  1
  S  S26  1  0.72323446  0.98779220  0.29510035  1
  S  S27  1  0.26431584  0.93477111  0.67835121  1
  S  S28  1  0.16063151  0.45975293  0.44154911  1
  S  S29  1  0.81397722  0.53775076  0.53845694  1
  S  S30  1  0.43255969  0.47398596  0.80220466  1
  S  S31  1  0.56068578  0.49531788  0.19624542  1
  S  S32  1  0.91732211  0.52566189  0.99038299  1
  S  S33  1  0.09133870  0.48250392  0.02897755  1
  S  S34  1  0.67108034  0.53192199  0.89595825  1
  S  S35  1  0.32934266  0.47014806  0.10086745  1
  S  S36  1  0.60261087  0.00935953  0.65411892  1
  S  S37  1  0.39689149  0.05626548  0.33099484  1
  S  S38  1  0.23957868  0.51223995  0.33677356  1
  S  S39  1  0.76183218  0.48242835  0.69319269  1
  S  S40  1  0.66648736  0.02140261  0.44007414  1
  S  S41  1  0.33595903  0.92028294  0.54692998  1
