# generated using pymatgen
data_Pr2Mn3(SbS3)4
_symmetry_space_group_name_H-M   'P 1'
_cell_length_a   20.02960800
_cell_length_b   3.90410600
_cell_length_c   14.95364829
_cell_angle_alpha   90.00000000
_cell_angle_beta   126.33350609
_cell_angle_gamma   90.00000000
_symmetry_Int_Tables_number   1
_chemical_formula_structural   Pr2Mn3(SbS3)4
_chemical_formula_sum   'Pr4 Mn6 Sb8 S24'
_cell_volume   942.00006694
_cell_formula_units_Z   2
loop_
 _symmetry_equiv_pos_site_id
 _symmetry_equiv_pos_as_xyz
  1  'x, y, z'
loop_
 _atom_site_type_symbol
 _atom_site_label
 _atom_site_symmetry_multiplicity
 _atom_site_fract_x
 _atom_site_fract_y
 _atom_site_fract_z
 _atom_site_occupancy
  Pr  Pr0  1  0.26464022  0.47153708  0.86741853  1
  Pr  Pr1  1  0.73649425  0.52366045  0.13689989  1
  Pr  Pr2  1  0.76477032  0.01130437  0.86461087  1
  Pr  Pr3  1  0.23747541  0.00710441  0.13787623  1
  Mn  Mn4  1  0.29371798  0.48454503  0.60194096  1
  Mn  Mn5  1  0.69268195  0.51492052  0.38121346  1
  Mn  Mn6  1  0.00915109  0.99605657  0.01388423  1
  Mn  Mn7  1  0.80454303  0.01218319  0.61445876  1
  Mn  Mn8  1  0.19648991  0.97368311  0.37737152  1
  Mn  Mn9  1  0.49647822  0.45253228  0.98950248  1
  Sb  Sb10  1  0.88997967  0.98960623  0.45158225  1
  Sb  Sb11  1  0.11141626  0.97154992  0.54931862  1
  Sb  Sb12  1  0.03886873  0.51863924  0.81755873  1
  Sb  Sb13  1  0.96478189  0.51031249  0.18616141  1
  Sb  Sb14  1  0.39524290  0.51326607  0.45540948  1
  Sb  Sb15  1  0.60634255  0.47758392  0.54683033  1
  Sb  Sb16  1  0.53533224  0.00790153  0.81167244  1
  Sb  Sb17  1  0.46043245  0.01519482  0.18138208  1
  S  S18  1  0.93330629  0.99041218  0.80320369  1
  S  S19  1  0.06698111  0.98146606  0.18727813  1
  S  S20  1  0.40994980  0.99886559  0.97988283  1
  S  S21  1  0.59099032  0.99546646  0.02077287  1
  S  S22  1  0.16981947  0.00137950  0.89581075  1
  S  S23  1  0.82445910  0.01327033  0.09554113  1
  S  S24  1  0.08797117  0.48489352  0.64266505  1
  S  S25  1  0.90816679  0.46390935  0.35390166  1
  S  S26  1  0.73994626  0.95932547  0.29665830  1
  S  S27  1  0.25939812  0.00107889  0.70685109  1
  S  S28  1  0.16889996  0.47320900  0.44016709  1
  S  S29  1  0.82858309  0.48995430  0.54724564  1
  S  S30  1  0.43336227  0.50269950  0.79476254  1
  S  S31  1  0.56233310  0.50948182  0.18146451  1
  S  S32  1  0.91492758  0.50973407  0.99269653  1
  S  S33  1  0.08295652  0.48917661  0.01360019  1
  S  S34  1  0.66716132  0.49662226  0.88909001  1
  S  S35  1  0.32782560  0.50893996  0.09161937  1
  S  S36  1  0.59776651  0.99600109  0.66206483  1
  S  S37  1  0.40646560  0.97526730  0.34680225  1
  S  S38  1  0.24669504  0.44070882  0.31375956  1
  S  S39  1  0.76536170  0.50402782  0.70403127  1
  S  S40  1  0.67310267  0.03042004  0.45613885  1
  S  S41  1  0.32419935  0.96833986  0.54418686  1
