# generated using pymatgen
data_Pr2Mn3(SbS3)4
_symmetry_space_group_name_H-M   'P 1'
_cell_length_a   20.02960800
_cell_length_b   3.90410600
_cell_length_c   14.95364829
_cell_angle_alpha   90.00000000
_cell_angle_beta   126.33350609
_cell_angle_gamma   90.00000000
_symmetry_Int_Tables_number   1
_chemical_formula_structural   Pr2Mn3(SbS3)4
_chemical_formula_sum   'Pr4 Mn6 Sb8 S24'
_cell_volume   942.00006694
_cell_formula_units_Z   2
loop_
 _symmetry_equiv_pos_site_id
 _symmetry_equiv_pos_as_xyz
  1  'x, y, z'
loop_
 _atom_site_type_symbol
 _atom_site_label
 _atom_site_symmetry_multiplicity
 _atom_site_fract_x
 _atom_site_fract_y
 _atom_site_fract_z
 _atom_site_occupancy
  Pr  Pr0  1  0.27657683  0.48027756  0.87610808  1
  Pr  Pr1  1  0.73263372  0.51424967  0.14489724  1
  Pr  Pr2  1  0.77274898  0.05334024  0.88260420  1
  Pr  Pr3  1  0.23236369  0.90877085  0.12572004  1
  Mn  Mn4  1  0.29196060  0.41851929  0.59548268  1
  Mn  Mn5  1  0.69591066  0.47714021  0.36211147  1
  Mn  Mn6  1  0.00724802  0.99913542  0.01811188  1
  Mn  Mn7  1  0.80066773  0.99031418  0.64376338  1
  Mn  Mn8  1  0.21351909  0.07072964  0.39537296  1
  Mn  Mn9  1  0.48565385  0.47070445  0.98060347  1
  Sb  Sb10  1  0.88154189  0.87304499  0.45530896  1
  Sb  Sb11  1  0.11529004  0.98433959  0.54325411  1
  Sb  Sb12  1  0.03632781  0.48477185  0.82136298  1
  Sb  Sb13  1  0.96342103  0.46827955  0.19801272  1
  Sb  Sb14  1  0.41260651  0.54935460  0.46019376  1
  Sb  Sb15  1  0.60454628  0.58184206  0.53455831  1
  Sb  Sb16  1  0.53448133  0.94281071  0.80420223  1
  Sb  Sb17  1  0.46557941  0.97920538  0.17657212  1
  S  S18  1  0.94023039  0.99567794  0.81367310  1
  S  S19  1  0.06247652  0.00342352  0.20411129  1
  S  S20  1  0.41516754  0.97264986  0.97658626  1
  S  S21  1  0.58179269  0.05337661  0.00204119  1
  S  S22  1  0.16642314  0.97500770  0.87696806  1
  S  S23  1  0.83228693  0.02616047  0.10507195  1
  S  S24  1  0.09665039  0.47016208  0.64206060  1
  S  S25  1  0.90186278  0.44137014  0.35841511  1
  S  S26  1  0.72308215  0.98751245  0.29499871  1
  S  S27  1  0.26433530  0.93446247  0.67843236  1
  S  S28  1  0.16041195  0.45929406  0.44128277  1
  S  S29  1  0.81372667  0.53759970  0.53816752  1
  S  S30  1  0.43260828  0.47316752  0.80239768  1
  S  S31  1  0.56076273  0.49572233  0.19653241  1
  S  S32  1  0.91716166  0.52561450  0.99019968  1
  S  S33  1  0.09148334  0.48209834  0.02898149  1
  S  S34  1  0.67097554  0.53257426  0.89601892  1
  S  S35  1  0.32942470  0.46985838  0.10116553  1
  S  S36  1  0.60255619  0.01076603  0.65408747  1
  S  S37  1  0.39668655  0.05605524  0.33096334  1
  S  S38  1  0.23935605  0.51337390  0.33636716  1
  S  S39  1  0.76156140  0.48309362  0.69291781  1
  S  S40  1  0.66643362  0.02153457  0.43992154  1
  S  S41  1  0.33581116  0.92036711  0.54672121  1
