# generated using pymatgen
data_Pr2Mn3(SbS3)4
_symmetry_space_group_name_H-M   'P 1'
_cell_length_a   20.02960800
_cell_length_b   3.90410600
_cell_length_c   14.95364829
_cell_angle_alpha   90.00000000
_cell_angle_beta   126.33350609
_cell_angle_gamma   90.00000000
_symmetry_Int_Tables_number   1
_chemical_formula_structural   Pr2Mn3(SbS3)4
_chemical_formula_sum   'Pr4 Mn6 Sb8 S24'
_cell_volume   942.00006694
_cell_formula_units_Z   2
loop_
 _symmetry_equiv_pos_site_id
 _symmetry_equiv_pos_as_xyz
  1  'x, y, z'
loop_
 _atom_site_type_symbol
 _atom_site_label
 _atom_site_symmetry_multiplicity
 _atom_site_fract_x
 _atom_site_fract_y
 _atom_site_fract_z
 _atom_site_occupancy
  Pr  Pr0  1  0.27655080  0.48025093  0.87593814  1
  Pr  Pr1  1  0.73278296  0.51419889  0.14498946  1
  Pr  Pr2  1  0.77271553  0.05280612  0.88265247  1
  Pr  Pr3  1  0.23232203  0.90925310  0.12568385  1
  Mn  Mn4  1  0.29207713  0.41804263  0.59583677  1
  Mn  Mn5  1  0.69595669  0.47830237  0.36229647  1
  Mn  Mn6  1  0.00729175  0.99960503  0.01807567  1
  Mn  Mn7  1  0.80073640  0.99041886  0.64391268  1
  Mn  Mn8  1  0.21367733  0.06980609  0.39525522  1
  Mn  Mn9  1  0.48594842  0.47010172  0.98100937  1
  Sb  Sb10  1  0.88149800  0.87281904  0.45528813  1
  Sb  Sb11  1  0.11525398  0.98442939  0.54316676  1
  Sb  Sb12  1  0.03634930  0.48448604  0.82139540  1
  Sb  Sb13  1  0.96341120  0.46859588  0.19797068  1
  Sb  Sb14  1  0.41266050  0.54944597  0.46021985  1
  Sb  Sb15  1  0.60466284  0.58201111  0.53455059  1
  Sb  Sb16  1  0.53454314  0.94286940  0.80426887  1
  Sb  Sb17  1  0.46557074  0.97995163  0.17657609  1
  S  S18  1  0.94011776  0.99551812  0.81329648  1
  S  S19  1  0.06266135  0.00263699  0.20442196  1
  S  S20  1  0.41523362  0.97153067  0.97676141  1
  S  S21  1  0.58188047  0.05269955  0.00207075  1
  S  S22  1  0.16629593  0.97585332  0.87661957  1
  S  S23  1  0.83248310  0.02431625  0.10517046  1
  S  S24  1  0.09693986  0.47055261  0.64219696  1
  S  S25  1  0.90170439  0.44151422  0.35843922  1
  S  S26  1  0.72306895  0.98705958  0.29497138  1
  S  S27  1  0.26439080  0.93352914  0.67861939  1
  S  S28  1  0.16027630  0.45905842  0.44118999  1
  S  S29  1  0.81354190  0.53808818  0.53792905  1
  S  S30  1  0.43268491  0.47231736  0.80267265  1
  S  S31  1  0.56082458  0.49605677  0.19657074  1
  S  S32  1  0.91702045  0.52581997  0.99000045  1
  S  S33  1  0.09167721  0.48169926  0.02914081  1
  S  S34  1  0.67094693  0.53321562  0.89597983  1
  S  S35  1  0.32960373  0.46991123  0.10136163  1
  S  S36  1  0.60250832  0.01190935  0.65404280  1
  S  S37  1  0.39645539  0.05576364  0.33083725  1
  S  S38  1  0.23901595  0.51453206  0.33578931  1
  S  S39  1  0.76119224  0.48394226  0.69242713  1
  S  S40  1  0.66628845  0.02164346  0.43973294  1
  S  S41  1  0.33536931  0.92053911  0.54641701  1
