# generated using pymatgen
data_Pr2Mn3(SbS3)4
_symmetry_space_group_name_H-M   'P 1'
_cell_length_a   20.02960800
_cell_length_b   3.90410600
_cell_length_c   14.95364829
_cell_angle_alpha   90.00000000
_cell_angle_beta   126.33350609
_cell_angle_gamma   90.00000000
_symmetry_Int_Tables_number   1
_chemical_formula_structural   Pr2Mn3(SbS3)4
_chemical_formula_sum   'Pr4 Mn6 Sb8 S24'
_cell_volume   942.00006694
_cell_formula_units_Z   2
loop_
 _symmetry_equiv_pos_site_id
 _symmetry_equiv_pos_as_xyz
  1  'x, y, z'
loop_
 _atom_site_type_symbol
 _atom_site_label
 _atom_site_symmetry_multiplicity
 _atom_site_fract_x
 _atom_site_fract_y
 _atom_site_fract_z
 _atom_site_occupancy
  Pr  Pr0  1  0.27649805  0.48009289  0.87577151  1
  Pr  Pr1  1  0.73293376  0.51424257  0.14506614  1
  Pr  Pr2  1  0.77272898  0.05225406  0.88277134  1
  Pr  Pr3  1  0.23226654  0.90955612  0.12563180  1
  Mn  Mn4  1  0.29215217  0.41781349  0.59611238  1
  Mn  Mn5  1  0.69591899  0.47935999  0.36245129  1
  Mn  Mn6  1  0.00739960  0.99991693  0.01812916  1
  Mn  Mn7  1  0.80082903  0.99057496  0.64401271  1
  Mn  Mn8  1  0.21374484  0.06918705  0.39518977  1
  Mn  Mn9  1  0.48627237  0.46956928  0.98141475  1
  Sb  Sb10  1  0.88147799  0.87260596  0.45528226  1
  Sb  Sb11  1  0.11520094  0.98444118  0.54312579  1
  Sb  Sb12  1  0.03638422  0.48400360  0.82143318  1
  Sb  Sb13  1  0.96337923  0.46881847  0.19790611  1
  Sb  Sb14  1  0.41268979  0.54956448  0.46025376  1
  Sb  Sb15  1  0.60474970  0.58217830  0.53454813  1
  Sb  Sb16  1  0.53460772  0.94310110  0.80432958  1
  Sb  Sb17  1  0.46554640  0.98065287  0.17655140  1
  S  S18  1  0.94002588  0.99549895  0.81291780  1
  S  S19  1  0.06277146  0.00169968  0.20458268  1
  S  S20  1  0.41533574  0.97051764  0.97684527  1
  S  S21  1  0.58200166  0.05236798  0.00223680  1
  S  S22  1  0.16608484  0.97679261  0.87620034  1
  S  S23  1  0.83262864  0.02297376  0.10521108  1
  S  S24  1  0.09726459  0.47063223  0.64255276  1
  S  S25  1  0.90162218  0.44175811  0.35836279  1
  S  S26  1  0.72307047  0.98684001  0.29493700  1
  S  S27  1  0.26446734  0.93246776  0.67880974  1
  S  S28  1  0.16018558  0.45842521  0.44108141  1
  S  S29  1  0.81336720  0.53805598  0.53780233  1
  S  S30  1  0.43275098  0.47172284  0.80296500  1
  S  S31  1  0.56076663  0.49645532  0.19662816  1
  S  S32  1  0.91686480  0.52603449  0.98984510  1
  S  S33  1  0.09183605  0.48076397  0.02925278  1
  S  S34  1  0.67079971  0.53381055  0.89593963  1
  S  S35  1  0.32982330  0.47001428  0.10164979  1
  S  S36  1  0.60258520  0.01334245  0.65404402  1
  S  S37  1  0.39631286  0.05614118  0.33074102  1
  S  S38  1  0.23871100  0.51550547  0.33520083  1
  S  S39  1  0.76074072  0.48456202  0.69180011  1
  S  S40  1  0.66600884  0.02158635  0.43952249  1
  S  S41  1  0.33507449  0.92078496  0.54622007  1
