# generated using pymatgen
data_Pr2Mn3(SbS3)4
_symmetry_space_group_name_H-M   'P 1'
_cell_length_a   20.02960800
_cell_length_b   3.90410600
_cell_length_c   14.95364829
_cell_angle_alpha   90.00000000
_cell_angle_beta   126.33350609
_cell_angle_gamma   90.00000000
_symmetry_Int_Tables_number   1
_chemical_formula_structural   Pr2Mn3(SbS3)4
_chemical_formula_sum   'Pr4 Mn6 Sb8 S24'
_cell_volume   942.00006694
_cell_formula_units_Z   2
loop_
 _symmetry_equiv_pos_site_id
 _symmetry_equiv_pos_as_xyz
  1  'x, y, z'
loop_
 _atom_site_type_symbol
 _atom_site_label
 _atom_site_symmetry_multiplicity
 _atom_site_fract_x
 _atom_site_fract_y
 _atom_site_fract_z
 _atom_site_occupancy
  Pr  Pr0  1  0.27648714  0.48015199  0.87560120  1
  Pr  Pr1  1  0.73301299  0.51440738  0.14503831  1
  Pr  Pr2  1  0.77268034  0.05212569  0.88286275  1
  Pr  Pr3  1  0.23216444  0.90994292  0.12561513  1
  Mn  Mn4  1  0.29216491  0.41767555  0.59622808  1
  Mn  Mn5  1  0.69583538  0.48021888  0.36258848  1
  Mn  Mn6  1  0.00756506  0.00050403  0.01831538  1
  Mn  Mn7  1  0.80092675  0.99090918  0.64416736  1
  Mn  Mn8  1  0.21376217  0.06855366  0.39515471  1
  Mn  Mn9  1  0.48658788  0.46904718  0.98179719  1
  Sb  Sb10  1  0.88150138  0.87231764  0.45535357  1
  Sb  Sb11  1  0.11523758  0.98424428  0.54314733  1
  Sb  Sb12  1  0.03641027  0.48336183  0.82148229  1
  Sb  Sb13  1  0.96337187  0.46913271  0.19788806  1
  Sb  Sb14  1  0.41269220  0.54948117  0.46018387  1
  Sb  Sb15  1  0.60479930  0.58215674  0.53456226  1
  Sb  Sb16  1  0.53461109  0.94308704  0.80435729  1
  Sb  Sb17  1  0.46557737  0.98104581  0.17658044  1
  S  S18  1  0.93995227  0.99548343  0.81256236  1
  S  S19  1  0.06282383  0.00126677  0.20458028  1
  S  S20  1  0.41564817  0.96976188  0.97720569  1
  S  S21  1  0.58209789  0.05188117  0.00248132  1
  S  S22  1  0.16588968  0.97780629  0.87580333  1
  S  S23  1  0.83273099  0.02191287  0.10537165  1
  S  S24  1  0.09762891  0.47064140  0.64277893  1
  S  S25  1  0.90169459  0.44221384  0.35855497  1
  S  S26  1  0.72314484  0.98666705  0.29490323  1
  S  S27  1  0.26459506  0.93162836  0.67895425  1
  S  S28  1  0.15996934  0.45760874  0.44105431  1
  S  S29  1  0.81335580  0.53744040  0.53772246  1
  S  S30  1  0.43288993  0.47095210  0.80318902  1
  S  S31  1  0.56077918  0.49677953  0.19666604  1
  S  S32  1  0.91670268  0.52591127  0.98972572  1
  S  S33  1  0.09195824  0.48001309  0.02916414  1
  S  S34  1  0.67061735  0.53439336  0.89590552  1
  S  S35  1  0.33001338  0.47015115  0.10197917  1
  S  S36  1  0.60284764  0.01488876  0.65420929  1
  S  S37  1  0.39611163  0.05656571  0.33050319  1
  S  S38  1  0.23847061  0.51632842  0.33473068  1
  S  S39  1  0.76037969  0.48506969  0.69136280  1
  S  S40  1  0.66588948  0.02127041  0.43940857  1
  S  S41  1  0.33475608  0.92078054  0.54612314  1
