# generated using pymatgen
data_Pr2Mn3(SbS3)4
_symmetry_space_group_name_H-M   'P 1'
_cell_length_a   20.02960800
_cell_length_b   3.90410600
_cell_length_c   14.95364829
_cell_angle_alpha   90.00000000
_cell_angle_beta   126.33350609
_cell_angle_gamma   90.00000000
_symmetry_Int_Tables_number   1
_chemical_formula_structural   Pr2Mn3(SbS3)4
_chemical_formula_sum   'Pr4 Mn6 Sb8 S24'
_cell_volume   942.00006694
_cell_formula_units_Z   2
loop_
 _symmetry_equiv_pos_site_id
 _symmetry_equiv_pos_as_xyz
  1  'x, y, z'
loop_
 _atom_site_type_symbol
 _atom_site_label
 _atom_site_symmetry_multiplicity
 _atom_site_fract_x
 _atom_site_fract_y
 _atom_site_fract_z
 _atom_site_occupancy
  Pr  Pr0  1  0.27646951  0.48013933  0.87548265  1
  Pr  Pr1  1  0.73311684  0.51453249  0.14505669  1
  Pr  Pr2  1  0.77257960  0.05217404  0.88289883  1
  Pr  Pr3  1  0.23208810  0.91011822  0.12567322  1
  Mn  Mn4  1  0.29221902  0.41757742  0.59622351  1
  Mn  Mn5  1  0.69575104  0.48113835  0.36270396  1
  Mn  Mn6  1  0.00765413  0.00123937  0.01847487  1
  Mn  Mn7  1  0.80114487  0.99130476  0.64439153  1
  Mn  Mn8  1  0.21382352  0.06819212  0.39494287  1
  Mn  Mn9  1  0.48691820  0.46847379  0.98213377  1
  Sb  Sb10  1  0.88154808  0.87190646  0.45550108  1
  Sb  Sb11  1  0.11524111  0.98398712  0.54309532  1
  Sb  Sb12  1  0.03641998  0.48286525  0.82160919  1
  Sb  Sb13  1  0.96335296  0.46924518  0.19790436  1
  Sb  Sb14  1  0.41271880  0.54955157  0.46016930  1
  Sb  Sb15  1  0.60488686  0.58226214  0.53453984  1
  Sb  Sb16  1  0.53464353  0.94291788  0.80444519  1
  Sb  Sb17  1  0.46557351  0.98149085  0.17666620  1
  S  S18  1  0.94005646  0.99547220  0.81237818  1
  S  S19  1  0.06302984  0.00100716  0.20468814  1
  S  S20  1  0.41590298  0.96869304  0.97755636  1
  S  S21  1  0.58209649  0.05166202  0.00270813  1
  S  S22  1  0.16562026  0.97852927  0.87537202  1
  S  S23  1  0.83271513  0.02142692  0.10558760  1
  S  S24  1  0.09802152  0.47019624  0.64294996  1
  S  S25  1  0.90170755  0.44284610  0.35865122  1
  S  S26  1  0.72327679  0.98665729  0.29500712  1
  S  S27  1  0.26466830  0.93041890  0.67889417  1
  S  S28  1  0.15974189  0.45714597  0.44090841  1
  S  S29  1  0.81340831  0.53739864  0.53759150  1
  S  S30  1  0.43299038  0.47033983  0.80333900  1
  S  S31  1  0.56086408  0.49769684  0.19673767  1
  S  S32  1  0.91649449  0.52578594  0.98956133  1
  S  S33  1  0.09195358  0.47975156  0.02897670  1
  S  S34  1  0.67051269  0.53516115  0.89595929  1
  S  S35  1  0.33019908  0.47014978  0.10233162  1
  S  S36  1  0.60308547  0.01628724  0.65435407  1
  S  S37  1  0.39602263  0.05683334  0.33035975  1
  S  S38  1  0.23832519  0.51668847  0.33438760  1
  S  S39  1  0.76007489  0.48573654  0.69108520  1
  S  S40  1  0.66586121  0.02067486  0.43942218  1
  S  S41  1  0.33443701  0.92054420  0.54609333  1
