# generated using pymatgen
data_Pr2Mn3(SbS3)4
_symmetry_space_group_name_H-M   'P 1'
_cell_length_a   20.02960800
_cell_length_b   3.90410600
_cell_length_c   14.95364829
_cell_angle_alpha   90.00000000
_cell_angle_beta   126.33350609
_cell_angle_gamma   90.00000000
_symmetry_Int_Tables_number   1
_chemical_formula_structural   Pr2Mn3(SbS3)4
_chemical_formula_sum   'Pr4 Mn6 Sb8 S24'
_cell_volume   942.00006694
_cell_formula_units_Z   2
loop_
 _symmetry_equiv_pos_site_id
 _symmetry_equiv_pos_as_xyz
  1  'x, y, z'
loop_
 _atom_site_type_symbol
 _atom_site_label
 _atom_site_symmetry_multiplicity
 _atom_site_fract_x
 _atom_site_fract_y
 _atom_site_fract_z
 _atom_site_occupancy
  Pr  Pr0  1  0.27643379  0.48017099  0.87531440  1
  Pr  Pr1  1  0.73315251  0.51478281  0.14503407  1
  Pr  Pr2  1  0.77251030  0.05212350  0.88288793  1
  Pr  Pr3  1  0.23199466  0.91036398  0.12571018  1
  Mn  Mn4  1  0.29232518  0.41746125  0.59630839  1
  Mn  Mn5  1  0.69557323  0.48202201  0.36273086  1
  Mn  Mn6  1  0.00773107  0.00177165  0.01856174  1
  Mn  Mn7  1  0.80132315  0.99200853  0.64460389  1
  Mn  Mn8  1  0.21382494  0.06780712  0.39471308  1
  Mn  Mn9  1  0.48724815  0.46788516  0.98239700  1
  Sb  Sb10  1  0.88159445  0.87133781  0.45563835  1
  Sb  Sb11  1  0.11523506  0.98379776  0.54298484  1
  Sb  Sb12  1  0.03644017  0.48224084  0.82171607  1
  Sb  Sb13  1  0.96333215  0.46915892  0.19784279  1
  Sb  Sb14  1  0.41275502  0.54945416  0.46018698  1
  Sb  Sb15  1  0.60494101  0.58240471  0.53451287  1
  Sb  Sb16  1  0.53470873  0.94278048  0.80455899  1
  Sb  Sb17  1  0.46560559  0.98200122  0.17675775  1
  S  S18  1  0.94017682  0.99551167  0.81237748  1
  S  S19  1  0.06331268  0.00058890  0.20495650  1
  S  S20  1  0.41621924  0.96741417  0.97797354  1
  S  S21  1  0.58215118  0.05140893  0.00307840  1
  S  S22  1  0.16534410  0.97884466  0.87497793  1
  S  S23  1  0.83262340  0.02047744  0.10592966  1
  S  S24  1  0.09844212  0.46946912  0.64305874  1
  S  S25  1  0.90158242  0.44338856  0.35854750  1
  S  S26  1  0.72335026  0.98666344  0.29509026  1
  S  S27  1  0.26473629  0.92943518  0.67888285  1
  S  S28  1  0.15956122  0.45616539  0.44097567  1
  S  S29  1  0.81350609  0.53694801  0.53768121  1
  S  S30  1  0.43309045  0.46950604  0.80346938  1
  S  S31  1  0.56081644  0.49893138  0.19665778  1
  S  S32  1  0.91623800  0.52540024  0.98930322  1
  S  S33  1  0.09185932  0.47919392  0.02861164  1
  S  S34  1  0.67045663  0.53555261  0.89607574  1
  S  S35  1  0.33038113  0.47004325  0.10263866  1
  S  S36  1  0.60331421  0.01769607  0.65448431  1
  S  S37  1  0.39596937  0.05708013  0.33030012  1
  S  S38  1  0.23829712  0.51705151  0.33404264  1
  S  S39  1  0.75994498  0.48641209  0.69107894  1
  S  S40  1  0.66587214  0.01984962  0.43959836  1
  S  S41  1  0.33409354  0.92010464  0.54612126  1
