# generated using pymatgen
data_Pr2Mn3(SbS3)4
_symmetry_space_group_name_H-M   'P 1'
_cell_length_a   20.02960800
_cell_length_b   3.90410600
_cell_length_c   14.95364829
_cell_angle_alpha   90.00000000
_cell_angle_beta   126.33350609
_cell_angle_gamma   90.00000000
_symmetry_Int_Tables_number   1
_chemical_formula_structural   Pr2Mn3(SbS3)4
_chemical_formula_sum   'Pr4 Mn6 Sb8 S24'
_cell_volume   942.00006694
_cell_formula_units_Z   2
loop_
 _symmetry_equiv_pos_site_id
 _symmetry_equiv_pos_as_xyz
  1  'x, y, z'
loop_
 _atom_site_type_symbol
 _atom_site_label
 _atom_site_symmetry_multiplicity
 _atom_site_fract_x
 _atom_site_fract_y
 _atom_site_fract_z
 _atom_site_occupancy
  Pr  Pr0  1  0.27640764  0.48026501  0.87512009  1
  Pr  Pr1  1  0.73319181  0.51506035  0.14502457  1
  Pr  Pr2  1  0.77243919  0.05200306  0.88288165  1
  Pr  Pr3  1  0.23195126  0.91087261  0.12575552  1
  Mn  Mn4  1  0.29243753  0.41737670  0.59648107  1
  Mn  Mn5  1  0.69533773  0.48261648  0.36266315  1
  Mn  Mn6  1  0.00781291  0.00236231  0.01866313  1
  Mn  Mn7  1  0.80141568  0.99279476  0.64465329  1
  Mn  Mn8  1  0.21378042  0.06749246  0.39437340  1
  Mn  Mn9  1  0.48756096  0.46717145  0.98262182  1
  Sb  Sb10  1  0.88166134  0.87089501  0.45577555  1
  Sb  Sb11  1  0.11527457  0.98361975  0.54293561  1
  Sb  Sb12  1  0.03637822  0.48163573  0.82169834  1
  Sb  Sb13  1  0.96331020  0.46916533  0.19773619  1
  Sb  Sb14  1  0.41282986  0.54951069  0.46020874  1
  Sb  Sb15  1  0.60498329  0.58257215  0.53441548  1
  Sb  Sb16  1  0.53473657  0.94281613  0.80470302  1
  Sb  Sb17  1  0.46559868  0.98245482  0.17675205  1
  S  S18  1  0.94029320  0.99572205  0.81243610  1
  S  S19  1  0.06356068  0.00011733  0.20508433  1
  S  S20  1  0.41635268  0.96650167  0.97831846  1
  S  S21  1  0.58222957  0.05168178  0.00339626  1
  S  S22  1  0.16517792  0.97953639  0.87475839  1
  S  S23  1  0.83238661  0.02023687  0.10608617  1
  S  S24  1  0.09882186  0.46863444  0.64312721  1
  S  S25  1  0.90154590  0.44271891  0.35853973  1
  S  S26  1  0.72335823  0.98620771  0.29504963  1
  S  S27  1  0.26468047  0.92854668  0.67873661  1
  S  S28  1  0.15946368  0.45540003  0.44120137  1
  S  S29  1  0.81362841  0.53679218  0.53790738  1
  S  S30  1  0.43313857  0.46907692  0.80364785  1
  S  S31  1  0.56074738  0.50012969  0.19652862  1
  S  S32  1  0.91604708  0.52524157  0.98904373  1
  S  S33  1  0.09166765  0.47872903  0.02816431  1
  S  S34  1  0.67042520  0.53584136  0.89618160  1
  S  S35  1  0.33054015  0.46964127  0.10294666  1
  S  S36  1  0.60354898  0.01906281  0.65464125  1
  S  S37  1  0.39610930  0.05741879  0.33039710  1
  S  S38  1  0.23826909  0.51751900  0.33371049  1
  S  S39  1  0.75999924  0.48727873  0.69125995  1
  S  S40  1  0.66591693  0.01902310  0.43989685  1
  S  S41  1  0.33375873  0.91919613  0.54616077  1
