# generated using pymatgen
data_Pr2Mn3(SbS3)4
_symmetry_space_group_name_H-M   'P 1'
_cell_length_a   20.02960800
_cell_length_b   3.90410600
_cell_length_c   14.95364829
_cell_angle_alpha   90.00000000
_cell_angle_beta   126.33350609
_cell_angle_gamma   90.00000000
_symmetry_Int_Tables_number   1
_chemical_formula_structural   Pr2Mn3(SbS3)4
_chemical_formula_sum   'Pr4 Mn6 Sb8 S24'
_cell_volume   942.00006694
_cell_formula_units_Z   2
loop_
 _symmetry_equiv_pos_site_id
 _symmetry_equiv_pos_as_xyz
  1  'x, y, z'
loop_
 _atom_site_type_symbol
 _atom_site_label
 _atom_site_symmetry_multiplicity
 _atom_site_fract_x
 _atom_site_fract_y
 _atom_site_fract_z
 _atom_site_occupancy
  Pr  Pr0  1  0.27638232  0.48038116  0.87490977  1
  Pr  Pr1  1  0.73315119  0.51523744  0.14496403  1
  Pr  Pr2  1  0.77234185  0.05172876  0.88283139  1
  Pr  Pr3  1  0.23185942  0.91115779  0.12580019  1
  Mn  Mn4  1  0.29255695  0.41780745  0.59667366  1
  Mn  Mn5  1  0.69514512  0.48324448  0.36260077  1
  Mn  Mn6  1  0.00781867  0.00258513  0.01869593  1
  Mn  Mn7  1  0.80150979  0.99353892  0.64469290  1
  Mn  Mn8  1  0.21377849  0.06721263  0.39408467  1
  Mn  Mn9  1  0.48780182  0.46674697  0.98291022  1
  Sb  Sb10  1  0.88171303  0.87078931  0.45584841  1
  Sb  Sb11  1  0.11531378  0.98341598  0.54285489  1
  Sb  Sb12  1  0.03636936  0.48128062  0.82166206  1
  Sb  Sb13  1  0.96327796  0.46932761  0.19768728  1
  Sb  Sb14  1  0.41287677  0.54923165  0.46023331  1
  Sb  Sb15  1  0.60503377  0.58260176  0.53429776  1
  Sb  Sb16  1  0.53474112  0.94298003  0.80484490  1
  Sb  Sb17  1  0.46561484  0.98282001  0.17676329  1
  S  S18  1  0.94039288  0.99585238  0.81239024  1
  S  S19  1  0.06377416  0.99957954  0.20514372  1
  S  S20  1  0.41654891  0.96593267  0.97864498  1
  S  S21  1  0.58242674  0.05190623  0.00370165  1
  S  S22  1  0.16509998  0.97971927  0.87468614  1
  S  S23  1  0.83218350  0.01986235  0.10627344  1
  S  S24  1  0.09930436  0.46733643  0.64326524  1
  S  S25  1  0.90158206  0.44264724  0.35856324  1
  S  S26  1  0.72349545  0.98632796  0.29509297  1
  S  S27  1  0.26465719  0.92774997  0.67864903  1
  S  S28  1  0.15930890  0.45425806  0.44143060  1
  S  S29  1  0.81383208  0.53685593  0.53803622  1
  S  S30  1  0.43319463  0.46922911  0.80367331  1
  S  S31  1  0.56076750  0.50099462  0.19652111  1
  S  S32  1  0.91587915  0.52517514  0.98872106  1
  S  S33  1  0.09152619  0.47774486  0.02768030  1
  S  S34  1  0.67044167  0.53612449  0.89634055  1
  S  S35  1  0.33064690  0.46886597  0.10321445  1
  S  S36  1  0.60365690  0.02055329  0.65460710  1
  S  S37  1  0.39625399  0.05737850  0.33051516  1
  S  S38  1  0.23827292  0.51806288  0.33340535  1
  S  S39  1  0.75997977  0.48810787  0.69122424  1
  S  S40  1  0.66599456  0.01862443  0.44021015  1
  S  S41  1  0.33364869  0.91795657  0.54639188  1
