# generated using pymatgen
data_Pr2Mn3(SbS3)4
_symmetry_space_group_name_H-M   'P 1'
_cell_length_a   20.02960800
_cell_length_b   3.90410600
_cell_length_c   14.95364829
_cell_angle_alpha   90.00000000
_cell_angle_beta   126.33350609
_cell_angle_gamma   90.00000000
_symmetry_Int_Tables_number   1
_chemical_formula_structural   Pr2Mn3(SbS3)4
_chemical_formula_sum   'Pr4 Mn6 Sb8 S24'
_cell_volume   942.00006694
_cell_formula_units_Z   2
loop_
 _symmetry_equiv_pos_site_id
 _symmetry_equiv_pos_as_xyz
  1  'x, y, z'
loop_
 _atom_site_type_symbol
 _atom_site_label
 _atom_site_symmetry_multiplicity
 _atom_site_fract_x
 _atom_site_fract_y
 _atom_site_fract_z
 _atom_site_occupancy
  Pr  Pr0  1  0.27626725  0.48055281  0.87463978  1
  Pr  Pr1  1  0.73313403  0.51552814  0.14492087  1
  Pr  Pr2  1  0.77225582  0.05148597  0.88275893  1
  Pr  Pr3  1  0.23183564  0.91144201  0.12580808  1
  Mn  Mn4  1  0.29257521  0.41837273  0.59690324  1
  Mn  Mn5  1  0.69487009  0.48361031  0.36245582  1
  Mn  Mn6  1  0.00767317  0.00301445  0.01861898  1
  Mn  Mn7  1  0.80158738  0.99391190  0.64462993  1
  Mn  Mn8  1  0.21363184  0.06677717  0.39362632  1
  Mn  Mn9  1  0.48797997  0.46642410  0.98310122  1
  Sb  Sb10  1  0.88168485  0.87056650  0.45589555  1
  Sb  Sb11  1  0.11525954  0.98331499  0.54265467  1
  Sb  Sb12  1  0.03634210  0.48106740  0.82166281  1
  Sb  Sb13  1  0.96319479  0.46982364  0.19768032  1
  Sb  Sb14  1  0.41297768  0.54893736  0.46030034  1
  Sb  Sb15  1  0.60514426  0.58271045  0.53422083  1
  Sb  Sb16  1  0.53475100  0.94312437  0.80497788  1
  Sb  Sb17  1  0.46557323  0.98292932  0.17680118  1
  S  S18  1  0.94048349  0.99579666  0.81236908  1
  S  S19  1  0.06389009  0.99954795  0.20516856  1
  S  S20  1  0.41678684  0.96540597  0.97899320  1
  S  S21  1  0.58263271  0.05169358  0.00404352  1
  S  S22  1  0.16502012  0.98000905  0.87456780  1
  S  S23  1  0.83189278  0.01926842  0.10643577  1
  S  S24  1  0.09973430  0.46622530  0.64333471  1
  S  S25  1  0.90154828  0.44249066  0.35844282  1
  S  S26  1  0.72359979  0.98637868  0.29517011  1
  S  S27  1  0.26461486  0.92673990  0.67849913  1
  S  S28  1  0.15930919  0.45327664  0.44180238  1
  S  S29  1  0.81390729  0.53722321  0.53806866  1
  S  S30  1  0.43319981  0.46920711  0.80364736  1
  S  S31  1  0.56073972  0.50175211  0.19653401  1
  S  S32  1  0.91565088  0.52468796  0.98839991  1
  S  S33  1  0.09136457  0.47676673  0.02714859  1
  S  S34  1  0.67040806  0.53642535  0.89639090  1
  S  S35  1  0.33078032  0.46796015  0.10345971  1
  S  S36  1  0.60381773  0.02186379  0.65470149  1
  S  S37  1  0.39646795  0.05734384  0.33068895  1
  S  S38  1  0.23827677  0.51874052  0.33314488  1
  S  S39  1  0.75992887  0.48874192  0.69116447  1
  S  S40  1  0.66602748  0.01808968  0.44038491  1
  S  S41  1  0.33346006  0.91624460  0.54658066  1
