# generated using pymatgen
data_Pr2Mn3(SbS3)4
_symmetry_space_group_name_H-M   'P 1'
_cell_length_a   20.02960800
_cell_length_b   3.90410600
_cell_length_c   14.95364829
_cell_angle_alpha   90.00000000
_cell_angle_beta   126.33350609
_cell_angle_gamma   90.00000000
_symmetry_Int_Tables_number   1
_chemical_formula_structural   Pr2Mn3(SbS3)4
_chemical_formula_sum   'Pr4 Mn6 Sb8 S24'
_cell_volume   942.00006694
_cell_formula_units_Z   2
loop_
 _symmetry_equiv_pos_site_id
 _symmetry_equiv_pos_as_xyz
  1  'x, y, z'
loop_
 _atom_site_type_symbol
 _atom_site_label
 _atom_site_symmetry_multiplicity
 _atom_site_fract_x
 _atom_site_fract_y
 _atom_site_fract_z
 _atom_site_occupancy
  Pr  Pr0  1  0.27613934  0.48059988  0.87433007  1
  Pr  Pr1  1  0.73309560  0.51578133  0.14485865  1
  Pr  Pr2  1  0.77216007  0.05111794  0.88269084  1
  Pr  Pr3  1  0.23178931  0.91165325  0.12578969  1
  Mn  Mn4  1  0.29262615  0.41889622  0.59714142  1
  Mn  Mn5  1  0.69458379  0.48403515  0.36236128  1
  Mn  Mn6  1  0.00767972  0.00352689  0.01862344  1
  Mn  Mn7  1  0.80167192  0.99424863  0.64464294  1
  Mn  Mn8  1  0.21357407  0.06666029  0.39341050  1
  Mn  Mn9  1  0.48822797  0.46595338  0.98337379  1
  Sb  Sb10  1  0.88155264  0.87039881  0.45584777  1
  Sb  Sb11  1  0.11517102  0.98318447  0.54242045  1
  Sb  Sb12  1  0.03627781  0.48107056  0.82167999  1
  Sb  Sb13  1  0.96310253  0.47044082  0.19768100  1
  Sb  Sb14  1  0.41307791  0.54875454  0.46034909  1
  Sb  Sb15  1  0.60531123  0.58284969  0.53420343  1
  Sb  Sb16  1  0.53472010  0.94310012  0.80508114  1
  Sb  Sb17  1  0.46549160  0.98318712  0.17682333  1
  S  S18  1  0.94056560  0.99570423  0.81237604  1
  S  S19  1  0.06397611  0.99982504  0.20520773  1
  S  S20  1  0.41697205  0.96508397  0.97930352  1
  S  S21  1  0.58292887  0.05129747  0.00454421  1
  S  S22  1  0.16497684  0.98035354  0.87447567  1
  S  S23  1  0.83165559  0.01875904  0.10654182  1
  S  S24  1  0.09996718  0.46538064  0.64338812  1
  S  S25  1  0.90155582  0.44282242  0.35840814  1
  S  S26  1  0.72371388  0.98591205  0.29530436  1
  S  S27  1  0.26451916  0.92566183  0.67824929  1
  S  S28  1  0.15920620  0.45221915  0.44222524  1
  S  S29  1  0.81399610  0.53688995  0.53826714  1
  S  S30  1  0.43316357  0.46926664  0.80362219  1
  S  S31  1  0.56077732  0.50297534  0.19647678  1
  S  S32  1  0.91553334  0.52412682  0.98823008  1
  S  S33  1  0.09108473  0.47611369  0.02682805  1
  S  S34  1  0.67040034  0.53680293  0.89646789  1
  S  S35  1  0.33084541  0.46717026  0.10361394  1
  S  S36  1  0.60385699  0.02292722  0.65469899  1
  S  S37  1  0.39662409  0.05686066  0.33076287  1
  S  S38  1  0.23825624  0.51942219  0.33291761  1
  S  S39  1  0.75976068  0.48930923  0.69100885  1
  S  S40  1  0.66599698  0.01792409  0.44056985  1
  S  S41  1  0.33331527  0.91482362  0.54678042  1
