# generated using pymatgen
data_Pr2Mn3(SbS3)4
_symmetry_space_group_name_H-M   'P 1'
_cell_length_a   20.02960800
_cell_length_b   3.90410600
_cell_length_c   14.95364829
_cell_angle_alpha   90.00000000
_cell_angle_beta   126.33350609
_cell_angle_gamma   90.00000000
_symmetry_Int_Tables_number   1
_chemical_formula_structural   Pr2Mn3(SbS3)4
_chemical_formula_sum   'Pr4 Mn6 Sb8 S24'
_cell_volume   942.00006694
_cell_formula_units_Z   2
loop_
 _symmetry_equiv_pos_site_id
 _symmetry_equiv_pos_as_xyz
  1  'x, y, z'
loop_
 _atom_site_type_symbol
 _atom_site_label
 _atom_site_symmetry_multiplicity
 _atom_site_fract_x
 _atom_site_fract_y
 _atom_site_fract_z
 _atom_site_occupancy
  Pr  Pr0  1  0.26463681  0.47150828  0.86725719  1
  Pr  Pr1  1  0.73634424  0.52361451  0.13679233  1
  Pr  Pr2  1  0.76482661  0.01166552  0.86459958  1
  Pr  Pr3  1  0.23758522  0.00711388  0.13789347  1
  Mn  Mn4  1  0.29396891  0.48478484  0.60202694  1
  Mn  Mn5  1  0.69263327  0.51424338  0.38125659  1
  Mn  Mn6  1  0.00922818  0.99642115  0.01413396  1
  Mn  Mn7  1  0.80463853  0.01186278  0.61458488  1
  Mn  Mn8  1  0.19657846  0.97344140  0.37748589  1
  Mn  Mn9  1  0.49621068  0.45304809  0.98950165  1
  Sb  Sb10  1  0.88993532  0.98911151  0.45139140  1
  Sb  Sb11  1  0.11139847  0.97151575  0.54914421  1
  Sb  Sb12  1  0.03878472  0.51879408  0.81746273  1
  Sb  Sb13  1  0.96495315  0.50990637  0.18622693  1
  Sb  Sb14  1  0.39523374  0.51355569  0.45540030  1
  Sb  Sb15  1  0.60635099  0.47693801  0.54689474  1
  Sb  Sb16  1  0.53535641  0.00755539  0.81151742  1
  Sb  Sb17  1  0.46033371  0.01511037  0.18129360  1
  S  S18  1  0.93316440  0.99032853  0.80306237  1
  S  S19  1  0.06700139  0.98247623  0.18750214  1
  S  S20  1  0.40990824  0.99812600  0.98010909  1
  S  S21  1  0.59100797  0.99533537  0.02044391  1
  S  S22  1  0.16961383  0.00270746  0.89584475  1
  S  S23  1  0.82430486  0.01306454  0.09569629  1
  S  S24  1  0.08814255  0.48453737  0.64251788  1
  S  S25  1  0.90816802  0.46414443  0.35397318  1
  S  S26  1  0.73991654  0.95891647  0.29666464  1
  S  S27  1  0.25966409  0.00183485  0.70722699  1
  S  S28  1  0.16847724  0.47244432  0.43988070  1
  S  S29  1  0.82872182  0.48972427  0.54725156  1
  S  S30  1  0.43336992  0.50198248  0.79470558  1
  S  S31  1  0.56240926  0.50876821  0.18150512  1
  S  S32  1  0.91478935  0.51080940  0.99231748  1
  S  S33  1  0.08309619  0.48835376  0.01365642  1
  S  S34  1  0.66720044  0.49718703  0.88929912  1
  S  S35  1  0.32790869  0.50962288  0.09165511  1
  S  S36  1  0.59785193  0.99621680  0.66215968  1
  S  S37  1  0.40634963  0.97457713  0.34681432  1
  S  S38  1  0.24667140  0.44106707  0.31325844  1
  S  S39  1  0.76553807  0.50320195  0.70412373  1
  S  S40  1  0.67250951  0.03153242  0.45540516  1
  S  S41  1  0.32391794  0.96762039  0.54412605  1
