# generated using pymatgen
data_Pr2Mn3(SbS3)4
_symmetry_space_group_name_H-M   'P 1'
_cell_length_a   20.02960800
_cell_length_b   3.90410600
_cell_length_c   14.95364829
_cell_angle_alpha   90.00000000
_cell_angle_beta   126.33350609
_cell_angle_gamma   90.00000000
_symmetry_Int_Tables_number   1
_chemical_formula_structural   Pr2Mn3(SbS3)4
_chemical_formula_sum   'Pr4 Mn6 Sb8 S24'
_cell_volume   942.00006694
_cell_formula_units_Z   2
loop_
 _symmetry_equiv_pos_site_id
 _symmetry_equiv_pos_as_xyz
  1  'x, y, z'
loop_
 _atom_site_type_symbol
 _atom_site_label
 _atom_site_symmetry_multiplicity
 _atom_site_fract_x
 _atom_site_fract_y
 _atom_site_fract_z
 _atom_site_occupancy
  Pr  Pr0  1  0.27601720  0.48107168  0.87406947  1
  Pr  Pr1  1  0.73304649  0.51591404  0.14479811  1
  Pr  Pr2  1  0.77206717  0.05066691  0.88262177  1
  Pr  Pr3  1  0.23176205  0.91184265  0.12579950  1
  Mn  Mn4  1  0.29270937  0.41970119  0.59738595  1
  Mn  Mn5  1  0.69434090  0.48384374  0.36213559  1
  Mn  Mn6  1  0.00775291  0.00392036  0.01877708  1
  Mn  Mn7  1  0.80163273  0.99461380  0.64460345  1
  Mn  Mn8  1  0.21359222  0.06599827  0.39318058  1
  Mn  Mn9  1  0.48848499  0.46508092  0.98364477  1
  Sb  Sb10  1  0.88144216  0.87015771  0.45571256  1
  Sb  Sb11  1  0.11506669  0.98304005  0.54217750  1
  Sb  Sb12  1  0.03621975  0.48083398  0.82167081  1
  Sb  Sb13  1  0.96300832  0.47102772  0.19757714  1
  Sb  Sb14  1  0.41320843  0.54883827  0.46038786  1
  Sb  Sb15  1  0.60549034  0.58295166  0.53421465  1
  Sb  Sb16  1  0.53469704  0.94321841  0.80514211  1
  Sb  Sb17  1  0.46546196  0.98330689  0.17688325  1
  S  S18  1  0.94072056  0.99545971  0.81243598  1
  S  S19  1  0.06403678  0.00042532  0.20526930  1
  S  S20  1  0.41713442  0.96494907  0.97947594  1
  S  S21  1  0.58306972  0.05051195  0.00493678  1
  S  S22  1  0.16497034  0.98099180  0.87435455  1
  S  S23  1  0.83152981  0.01862115  0.10675358  1
  S  S24  1  0.10024931  0.46446368  0.64352571  1
  S  S25  1  0.90166892  0.44268913  0.35846643  1
  S  S26  1  0.72385280  0.98569009  0.29529569  1
  S  S27  1  0.26436642  0.92479831  0.67809964  1
  S  S28  1  0.15912032  0.45054670  0.44247616  1
  S  S29  1  0.81414040  0.53650542  0.53846508  1
  S  S30  1  0.43315313  0.46924096  0.80348769  1
  S  S31  1  0.56076505  0.50408831  0.19639757  1
  S  S32  1  0.91546873  0.52395458  0.98814505  1
  S  S33  1  0.09080216  0.47595919  0.02658317  1
  S  S34  1  0.67035460  0.53732287  0.89658885  1
  S  S35  1  0.33091162  0.46619768  0.10376011  1
  S  S36  1  0.60407833  0.02338801  0.65476716  1
  S  S37  1  0.39680417  0.05590900  0.33088076  1
  S  S38  1  0.23837309  0.51960075  0.33289678  1
  S  S39  1  0.75960056  0.48976219  0.69072307  1
  S  S40  1  0.66597950  0.01812707  0.44082051  1
  S  S41  1  0.33323773  0.91361734  0.54711147  1
