# generated using pymatgen
data_Pr2Mn3(SbS3)4
_symmetry_space_group_name_H-M   'P 1'
_cell_length_a   20.02960800
_cell_length_b   3.90410600
_cell_length_c   14.95364829
_cell_angle_alpha   90.00000000
_cell_angle_beta   126.33350609
_cell_angle_gamma   90.00000000
_symmetry_Int_Tables_number   1
_chemical_formula_structural   Pr2Mn3(SbS3)4
_chemical_formula_sum   'Pr4 Mn6 Sb8 S24'
_cell_volume   942.00006694
_cell_formula_units_Z   2
loop_
 _symmetry_equiv_pos_site_id
 _symmetry_equiv_pos_as_xyz
  1  'x, y, z'
loop_
 _atom_site_type_symbol
 _atom_site_label
 _atom_site_symmetry_multiplicity
 _atom_site_fract_x
 _atom_site_fract_y
 _atom_site_fract_z
 _atom_site_occupancy
  Pr  Pr0  1  0.27592966  0.48125879  0.87379171  1
  Pr  Pr1  1  0.73301339  0.51599702  0.14474362  1
  Pr  Pr2  1  0.77196717  0.05031735  0.88254530  1
  Pr  Pr3  1  0.23173556  0.91189125  0.12578791  1
  Mn  Mn4  1  0.29283608  0.42035610  0.59765456  1
  Mn  Mn5  1  0.69411277  0.48371430  0.36202181  1
  Mn  Mn6  1  0.00777116  0.00430550  0.01890977  1
  Mn  Mn7  1  0.80155897  0.99554259  0.64461094  1
  Mn  Mn8  1  0.21361235  0.06544320  0.39308551  1
  Mn  Mn9  1  0.48870705  0.46437453  0.98394854  1
  Sb  Sb10  1  0.88136864  0.86977393  0.45562545  1
  Sb  Sb11  1  0.11495684  0.98298915  0.54191815  1
  Sb  Sb12  1  0.03616566  0.48052307  0.82171874  1
  Sb  Sb13  1  0.96296032  0.47134746  0.19745238  1
  Sb  Sb14  1  0.41334903  0.54891113  0.46042114  1
  Sb  Sb15  1  0.60569939  0.58302595  0.53430140  1
  Sb  Sb16  1  0.53466120  0.94319668  0.80519942  1
  Sb  Sb17  1  0.46540878  0.98308761  0.17692281  1
  S  S18  1  0.94080265  0.99578740  0.81261562  1
  S  S19  1  0.06414893  0.00153500  0.20535609  1
  S  S20  1  0.41731760  0.96483724  0.97972747  1
  S  S21  1  0.58312034  0.04964248  0.00518914  1
  S  S22  1  0.16500470  0.98148854  0.87425600  1
  S  S23  1  0.83154045  0.01810667  0.10698847  1
  S  S24  1  0.10048740  0.46318292  0.64366989  1
  S  S25  1  0.90168838  0.44218348  0.35848139  1
  S  S26  1  0.72406445  0.98528366  0.29530356  1
  S  S27  1  0.26422695  0.92369443  0.67787289  1
  S  S28  1  0.15912653  0.44908938  0.44271139  1
  S  S29  1  0.81425033  0.53614006  0.53874882  1
  S  S30  1  0.43325108  0.46930740  0.80335490  1
  S  S31  1  0.56084120  0.50536510  0.19641962  1
  S  S32  1  0.91541203  0.52415197  0.98806994  1
  S  S33  1  0.09049564  0.47554335  0.02629294  1
  S  S34  1  0.67020965  0.53833237  0.89660110  1
  S  S35  1  0.33093193  0.46516529  0.10392264  1
  S  S36  1  0.60432477  0.02336222  0.65487653  1
  S  S37  1  0.39691337  0.05547516  0.33102930  1
  S  S38  1  0.23839104  0.51933377  0.33286497  1
  S  S39  1  0.75937463  0.49037713  0.69022221  1
  S  S40  1  0.66597838  0.01837072  0.44109844  1
  S  S41  1  0.33320501  0.91285648  0.54746368  1
