# generated using pymatgen
data_Pr2Mn3(SbS3)4
_symmetry_space_group_name_H-M   'P 1'
_cell_length_a   20.02960800
_cell_length_b   3.90410600
_cell_length_c   14.95364829
_cell_angle_alpha   90.00000000
_cell_angle_beta   126.33350609
_cell_angle_gamma   90.00000000
_symmetry_Int_Tables_number   1
_chemical_formula_structural   Pr2Mn3(SbS3)4
_chemical_formula_sum   'Pr4 Mn6 Sb8 S24'
_cell_volume   942.00006694
_cell_formula_units_Z   2
loop_
 _symmetry_equiv_pos_site_id
 _symmetry_equiv_pos_as_xyz
  1  'x, y, z'
loop_
 _atom_site_type_symbol
 _atom_site_label
 _atom_site_symmetry_multiplicity
 _atom_site_fract_x
 _atom_site_fract_y
 _atom_site_fract_z
 _atom_site_occupancy
  Pr  Pr0  1  0.27584428  0.48129354  0.87349243  1
  Pr  Pr1  1  0.73297151  0.51603363  0.14465203  1
  Pr  Pr2  1  0.77186142  0.05008010  0.88244939  1
  Pr  Pr3  1  0.23167474  0.91205641  0.12574163  1
  Mn  Mn4  1  0.29294216  0.42100029  0.59787987  1
  Mn  Mn5  1  0.69397112  0.48351554  0.36198594  1
  Mn  Mn6  1  0.00777095  0.00467253  0.01901737  1
  Mn  Mn7  1  0.80140025  0.99627759  0.64457001  1
  Mn  Mn8  1  0.21349654  0.06482788  0.39297353  1
  Mn  Mn9  1  0.48893366  0.46421080  0.98427957  1
  Sb  Sb10  1  0.88135446  0.86937767  0.45559251  1
  Sb  Sb11  1  0.11489246  0.98273104  0.54176460  1
  Sb  Sb12  1  0.03610513  0.48047538  0.82178179  1
  Sb  Sb13  1  0.96289814  0.47158259  0.19728243  1
  Sb  Sb14  1  0.41343184  0.54864345  0.46044867  1
  Sb  Sb15  1  0.60590061  0.58315140  0.53439294  1
  Sb  Sb16  1  0.53464556  0.94304740  0.80518991  1
  Sb  Sb17  1  0.46537741  0.98295064  0.17691545  1
  S  S18  1  0.94087617  0.99552393  0.81272998  1
  S  S19  1  0.06435252  0.00264791  0.20571839  1
  S  S20  1  0.41743077  0.96470947  0.97993731  1
  S  S21  1  0.58316531  0.04868595  0.00550056  1
  S  S22  1  0.16517875  0.98192994  0.87429815  1
  S  S23  1  0.83158127  0.01773485  0.10713951  1
  S  S24  1  0.10064594  0.46251058  0.64373417  1
  S  S25  1  0.90174464  0.44180859  0.35858687  1
  S  S26  1  0.72426250  0.98510405  0.29527068  1
  S  S27  1  0.26410054  0.92296802  0.67763068  1
  S  S28  1  0.15914850  0.44788855  0.44297433  1
  S  S29  1  0.81436607  0.53573341  0.53908920  1
  S  S30  1  0.43320838  0.46964371  0.80307855  1
  S  S31  1  0.56088578  0.50659642  0.19637846  1
  S  S32  1  0.91548871  0.52418363  0.98819332  1
  S  S33  1  0.09029293  0.47562933  0.02602801  1
  S  S34  1  0.67004084  0.53905745  0.89672351  1
  S  S35  1  0.33092230  0.46421583  0.10395694  1
  S  S36  1  0.60456888  0.02315645  0.65517464  1
  S  S37  1  0.39687074  0.05505348  0.33117975  1
  S  S38  1  0.23844354  0.51968976  0.33277231  1
  S  S39  1  0.75917639  0.49110578  0.68978147  1
  S  S40  1  0.66588371  0.01877154  0.44138222  1
  S  S41  1  0.33320176  0.91200428  0.54781850  1
