# generated using pymatgen
data_Pr2Mn3(SbS3)4
_symmetry_space_group_name_H-M   'P 1'
_cell_length_a   20.02960800
_cell_length_b   3.90410600
_cell_length_c   14.95364829
_cell_angle_alpha   90.00000000
_cell_angle_beta   126.33350609
_cell_angle_gamma   90.00000000
_symmetry_Int_Tables_number   1
_chemical_formula_structural   Pr2Mn3(SbS3)4
_chemical_formula_sum   'Pr4 Mn6 Sb8 S24'
_cell_volume   942.00006694
_cell_formula_units_Z   2
loop_
 _symmetry_equiv_pos_site_id
 _symmetry_equiv_pos_as_xyz
  1  'x, y, z'
loop_
 _atom_site_type_symbol
 _atom_site_label
 _atom_site_symmetry_multiplicity
 _atom_site_fract_x
 _atom_site_fract_y
 _atom_site_fract_z
 _atom_site_occupancy
  Pr  Pr0  1  0.27579897  0.48152169  0.87319703  1
  Pr  Pr1  1  0.73294858  0.51573222  0.14465147  1
  Pr  Pr2  1  0.77176707  0.04996586  0.88235264  1
  Pr  Pr3  1  0.23167114  0.91208394  0.12568143  1
  Mn  Mn4  1  0.29300409  0.42154521  0.59806510  1
  Mn  Mn5  1  0.69381192  0.48342566  0.36191879  1
  Mn  Mn6  1  0.00769343  0.00479273  0.01904434  1
  Mn  Mn7  1  0.80123529  0.99727030  0.64452753  1
  Mn  Mn8  1  0.21339868  0.06413284  0.39284015  1
  Mn  Mn9  1  0.48915584  0.46421450  0.98459842  1
  Sb  Sb10  1  0.88129141  0.86909778  0.45551551  1
  Sb  Sb11  1  0.11485351  0.98244254  0.54169703  1
  Sb  Sb12  1  0.03599714  0.48040519  0.82178565  1
  Sb  Sb13  1  0.96279852  0.47193715  0.19711783  1
  Sb  Sb14  1  0.41348501  0.54862141  0.46049793  1
  Sb  Sb15  1  0.60612327  0.58305600  0.53452104  1
  Sb  Sb16  1  0.53461254  0.94270518  0.80516668  1
  Sb  Sb17  1  0.46534512  0.98305394  0.17697576  1
  S  S18  1  0.94115965  0.99545250  0.81292559  1
  S  S19  1  0.06449726  0.00417010  0.20601137  1
  S  S20  1  0.41744684  0.96499214  0.98008162  1
  S  S21  1  0.58328861  0.04811283  0.00577759  1
  S  S22  1  0.16543262  0.98281808  0.87444999  1
  S  S23  1  0.83153760  0.01712687  0.10712096  1
  S  S24  1  0.10085498  0.46213235  0.64369315  1
  S  S25  1  0.90175047  0.44100931  0.35873141  1
  S  S26  1  0.72450522  0.98485468  0.29521344  1
  S  S27  1  0.26399254  0.92206062  0.67747000  1
  S  S28  1  0.15907037  0.44672766  0.44295108  1
  S  S29  1  0.81452247  0.53596871  0.53934336  1
  S  S30  1  0.43321908  0.47016034  0.80287193  1
  S  S31  1  0.56101913  0.50783607  0.19633527  1
  S  S32  1  0.91545494  0.52451124  0.98825568  1
  S  S33  1  0.09007088  0.47530173  0.02576739  1
  S  S34  1  0.66985624  0.53986014  0.89665089  1
  S  S35  1  0.33088480  0.46300211  0.10395804  1
  S  S36  1  0.60479887  0.02292630  0.65563806  1
  S  S37  1  0.39680086  0.05446453  0.33121149  1
  S  S38  1  0.23848412  0.52018477  0.33268965  1
  S  S39  1  0.75899896  0.49162383  0.68930670  1
  S  S40  1  0.66587526  0.01907793  0.44168628  1
  S  S41  1  0.33319962  0.91166761  0.54816330  1
