# generated using pymatgen
data_Pr2Mn3(SbS3)4
_symmetry_space_group_name_H-M   'P 1'
_cell_length_a   20.02960800
_cell_length_b   3.90410600
_cell_length_c   14.95364829
_cell_angle_alpha   90.00000000
_cell_angle_beta   126.33350609
_cell_angle_gamma   90.00000000
_symmetry_Int_Tables_number   1
_chemical_formula_structural   Pr2Mn3(SbS3)4
_chemical_formula_sum   'Pr4 Mn6 Sb8 S24'
_cell_volume   942.00006694
_cell_formula_units_Z   2
loop_
 _symmetry_equiv_pos_site_id
 _symmetry_equiv_pos_as_xyz
  1  'x, y, z'
loop_
 _atom_site_type_symbol
 _atom_site_label
 _atom_site_symmetry_multiplicity
 _atom_site_fract_x
 _atom_site_fract_y
 _atom_site_fract_z
 _atom_site_occupancy
  Pr  Pr0  1  0.27581802  0.48185744  0.87296797  1
  Pr  Pr1  1  0.73289784  0.51538534  0.14453871  1
  Pr  Pr2  1  0.77168387  0.04971817  0.88222774  1
  Pr  Pr3  1  0.23168768  0.91213774  0.12561192  1
  Mn  Mn4  1  0.29316574  0.42194908  0.59840792  1
  Mn  Mn5  1  0.69363781  0.48337263  0.36176798  1
  Mn  Mn6  1  0.00758323  0.00496289  0.01900847  1
  Mn  Mn7  1  0.80100878  0.99816786  0.64456560  1
  Mn  Mn8  1  0.21338905  0.06348758  0.39280499  1
  Mn  Mn9  1  0.48926558  0.46397632  0.98484753  1
  Sb  Sb10  1  0.88119795  0.86887724  0.45539651  1
  Sb  Sb11  1  0.11482649  0.98252268  0.54173739  1
  Sb  Sb12  1  0.03591919  0.48023401  0.82179936  1
  Sb  Sb13  1  0.96278749  0.47217055  0.19699394  1
  Sb  Sb14  1  0.41350944  0.54859000  0.46058194  1
  Sb  Sb15  1  0.60634063  0.58292256  0.53464714  1
  Sb  Sb16  1  0.53453542  0.94230175  0.80507239  1
  Sb  Sb17  1  0.46529281  0.98325821  0.17704598  1
  S  S18  1  0.94142293  0.99520651  0.81303315  1
  S  S19  1  0.06458564  0.00606451  0.20618833  1
  S  S20  1  0.41736912  0.96520594  0.98012664  1
  S  S21  1  0.58339855  0.04784959  0.00603485  1
  S  S22  1  0.16552496  0.98289160  0.87443365  1
  S  S23  1  0.83141913  0.01625357  0.10704125  1
  S  S24  1  0.10104416  0.46195513  0.64361270  1
  S  S25  1  0.90184858  0.44009197  0.35895791  1
  S  S26  1  0.72477977  0.98490422  0.29523408  1
  S  S27  1  0.26391242  0.92076360  0.67743811  1
  S  S28  1  0.15906185  0.44557619  0.44304603  1
  S  S29  1  0.81457133  0.53676645  0.53954567  1
  S  S30  1  0.43325301  0.47065001  0.80274630  1
  S  S31  1  0.56111135  0.50866951  0.19610093  1
  S  S32  1  0.91526118  0.52454360  0.98831701  1
  S  S33  1  0.08979430  0.47493511  0.02535563  1
  S  S34  1  0.66978049  0.53976707  0.89665595  1
  S  S35  1  0.33083587  0.46165212  0.10399988  1
  S  S36  1  0.60497575  0.02264444  0.65616400  1
  S  S37  1  0.39669591  0.05330620  0.33121992  1
  S  S38  1  0.23847826  0.52107439  0.33254301  1
  S  S39  1  0.75893057  0.49211779  0.68893966  1
  S  S40  1  0.66580402  0.01934787  0.44203389  1
  S  S41  1  0.33316657  0.91146305  0.54853480  1
