# generated using pymatgen
data_Pr2Mn3(SbS3)4
_symmetry_space_group_name_H-M   'P 1'
_cell_length_a   20.02960800
_cell_length_b   3.90410600
_cell_length_c   14.95364829
_cell_angle_alpha   90.00000000
_cell_angle_beta   126.33350609
_cell_angle_gamma   90.00000000
_symmetry_Int_Tables_number   1
_chemical_formula_structural   Pr2Mn3(SbS3)4
_chemical_formula_sum   'Pr4 Mn6 Sb8 S24'
_cell_volume   942.00006694
_cell_formula_units_Z   2
loop_
 _symmetry_equiv_pos_site_id
 _symmetry_equiv_pos_as_xyz
  1  'x, y, z'
loop_
 _atom_site_type_symbol
 _atom_site_label
 _atom_site_symmetry_multiplicity
 _atom_site_fract_x
 _atom_site_fract_y
 _atom_site_fract_z
 _atom_site_occupancy
  Pr  Pr0  1  0.27582402  0.48196215  0.87274529  1
  Pr  Pr1  1  0.73279531  0.51513460  0.14435200  1
  Pr  Pr2  1  0.77168426  0.04945002  0.88217896  1
  Pr  Pr3  1  0.23175006  0.91232759  0.12554542  1
  Mn  Mn4  1  0.29332794  0.42226497  0.59875847  1
  Mn  Mn5  1  0.69350869  0.48349492  0.36162017  1
  Mn  Mn6  1  0.00747897  0.00517571  0.01889298  1
  Mn  Mn7  1  0.80074977  0.99851040  0.64456772  1
  Mn  Mn8  1  0.21333132  0.06286564  0.39275238  1
  Mn  Mn9  1  0.48940353  0.46319601  0.98520816  1
  Sb  Sb10  1  0.88110320  0.86866242  0.45532371  1
  Sb  Sb11  1  0.11473122  0.98277199  0.54174576  1
  Sb  Sb12  1  0.03590303  0.48011295  0.82190987  1
  Sb  Sb13  1  0.96280812  0.47224751  0.19689581  1
  Sb  Sb14  1  0.41355669  0.54832623  0.46068126  1
  Sb  Sb15  1  0.60658519  0.58262557  0.53478665  1
  Sb  Sb16  1  0.53447153  0.94201666  0.80494479  1
  Sb  Sb17  1  0.46525043  0.98346376  0.17714307  1
  S  S18  1  0.94165527  0.99491548  0.81325905  1
  S  S19  1  0.06462802  0.00778595  0.20624026  1
  S  S20  1  0.41731068  0.96588901  0.98013153  1
  S  S21  1  0.58363001  0.04787528  0.00632696  1
  S  S22  1  0.16548958  0.98275520  0.87425038  1
  S  S23  1  0.83123370  0.01539703  0.10688217  1
  S  S24  1  0.10137966  0.46180439  0.64363649  1
  S  S25  1  0.90198486  0.43903430  0.35925189  1
  S  S26  1  0.72518958  0.98472887  0.29530811  1
  S  S27  1  0.26386151  0.91927673  0.67746655  1
  S  S28  1  0.15915659  0.44466923  0.44325543  1
  S  S29  1  0.81447440  0.53782871  0.53968450  1
  S  S30  1  0.43323255  0.47117457  0.80264574  1
  S  S31  1  0.56121583  0.50925320  0.19588657  1
  S  S32  1  0.91500629  0.52435578  0.98828677  1
  S  S33  1  0.08938484  0.47470959  0.02485267  1
  S  S34  1  0.66959407  0.53999219  0.89659032  1
  S  S35  1  0.33082079  0.46112267  0.10401067  1
  S  S36  1  0.60520750  0.02254382  0.65662236  1
  S  S37  1  0.39652601  0.05227510  0.33116000  1
  S  S38  1  0.23843161  0.52191420  0.33242194  1
  S  S39  1  0.75889232  0.49290020  0.68854627  1
  S  S40  1  0.66585240  0.01975560  0.44254113  1
  S  S41  1  0.33325342  0.91130804  0.54912853  1
