# generated using pymatgen
data_Pr2Mn3(SbS3)4
_symmetry_space_group_name_H-M   'P 1'
_cell_length_a   20.02960800
_cell_length_b   3.90410600
_cell_length_c   14.95364829
_cell_angle_alpha   90.00000000
_cell_angle_beta   126.33350609
_cell_angle_gamma   90.00000000
_symmetry_Int_Tables_number   1
_chemical_formula_structural   Pr2Mn3(SbS3)4
_chemical_formula_sum   'Pr4 Mn6 Sb8 S24'
_cell_volume   942.00006694
_cell_formula_units_Z   2
loop_
 _symmetry_equiv_pos_site_id
 _symmetry_equiv_pos_as_xyz
  1  'x, y, z'
loop_
 _atom_site_type_symbol
 _atom_site_label
 _atom_site_symmetry_multiplicity
 _atom_site_fract_x
 _atom_site_fract_y
 _atom_site_fract_z
 _atom_site_occupancy
  Pr  Pr0  1  0.27585292  0.48207294  0.87258058  1
  Pr  Pr1  1  0.73268592  0.51498932  0.14414863  1
  Pr  Pr2  1  0.77170037  0.04935280  0.88207243  1
  Pr  Pr3  1  0.23186753  0.91259892  0.12551053  1
  Mn  Mn4  1  0.29350726  0.42252961  0.59908434  1
  Mn  Mn5  1  0.69335095  0.48348699  0.36146171  1
  Mn  Mn6  1  0.00733385  0.00545834  0.01882492  1
  Mn  Mn7  1  0.80057957  0.99896507  0.64460721  1
  Mn  Mn8  1  0.21330997  0.06255406  0.39276238  1
  Mn  Mn9  1  0.48946629  0.46254764  0.98533678  1
  Sb  Sb10  1  0.88104695  0.86852829  0.45527704  1
  Sb  Sb11  1  0.11467707  0.98302881  0.54174227  1
  Sb  Sb12  1  0.03590725  0.47988958  0.82208482  1
  Sb  Sb13  1  0.96273327  0.47241310  0.19671486  1
  Sb  Sb14  1  0.41361355  0.54803182  0.46080698  1
  Sb  Sb15  1  0.60681285  0.58233224  0.53493021  1
  Sb  Sb16  1  0.53441760  0.94169295  0.80482150  1
  Sb  Sb17  1  0.46518144  0.98355895  0.17717428  1
  S  S18  1  0.94190764  0.99466487  0.81351471  1
  S  S19  1  0.06465148  0.00904824  0.20644403  1
  S  S20  1  0.41731378  0.96666936  0.98018849  1
  S  S21  1  0.58381346  0.04796739  0.00652433  1
  S  S22  1  0.16549668  0.98265300  0.87407217  1
  S  S23  1  0.83098212  0.01475387  0.10667916  1
  S  S24  1  0.10167649  0.46184894  0.64361369  1
  S  S25  1  0.90214089  0.43821541  0.35951413  1
  S  S26  1  0.72546696  0.98508174  0.29520975  1
  S  S27  1  0.26397410  0.91755142  0.67767743  1
  S  S28  1  0.15919801  0.44383686  0.44339476  1
  S  S29  1  0.81450637  0.53923010  0.53982015  1
  S  S30  1  0.43324899  0.47170264  0.80247530  1
  S  S31  1  0.56148559  0.50978801  0.19583697  1
  S  S32  1  0.91480060  0.52413650  0.98823368  1
  S  S33  1  0.08893790  0.47482194  0.02428330  1
  S  S34  1  0.66936253  0.54041113  0.89656183  1
  S  S35  1  0.33076688  0.46094713  0.10396315  1
  S  S36  1  0.60527631  0.02226583  0.65687632  1
  S  S37  1  0.39631319  0.05156865  0.33103191  1
  S  S38  1  0.23844212  0.52269152  0.33239149  1
  S  S39  1  0.75893339  0.49325416  0.68826589  1
  S  S40  1  0.66599125  0.02001421  0.44309019  1
  S  S41  1  0.33344082  0.91117068  0.54978261  1
