# generated using pymatgen
data_Pr2Mn3(SbS3)4
_symmetry_space_group_name_H-M   'P 1'
_cell_length_a   20.02960800
_cell_length_b   3.90410600
_cell_length_c   14.95364829
_cell_angle_alpha   90.00000000
_cell_angle_beta   126.33350609
_cell_angle_gamma   90.00000000
_symmetry_Int_Tables_number   1
_chemical_formula_structural   Pr2Mn3(SbS3)4
_chemical_formula_sum   'Pr4 Mn6 Sb8 S24'
_cell_volume   942.00006694
_cell_formula_units_Z   2
loop_
 _symmetry_equiv_pos_site_id
 _symmetry_equiv_pos_as_xyz
  1  'x, y, z'
loop_
 _atom_site_type_symbol
 _atom_site_label
 _atom_site_symmetry_multiplicity
 _atom_site_fract_x
 _atom_site_fract_y
 _atom_site_fract_z
 _atom_site_occupancy
  Pr  Pr0  1  0.27589608  0.48203237  0.87244179  1
  Pr  Pr1  1  0.73253129  0.51494226  0.14391665  1
  Pr  Pr2  1  0.77170386  0.04926657  0.88194207  1
  Pr  Pr3  1  0.23202599  0.91257941  0.12552860  1
  Mn  Mn4  1  0.29360063  0.42266870  0.59939711  1
  Mn  Mn5  1  0.69322060  0.48377434  0.36134231  1
  Mn  Mn6  1  0.00721082  0.00579090  0.01881898  1
  Mn  Mn7  1  0.80040997  0.99870187  0.64457387  1
  Mn  Mn8  1  0.21330473  0.06207062  0.39267881  1
  Mn  Mn9  1  0.48955381  0.46193827  0.98551116  1
  Sb  Sb10  1  0.88098299  0.86839051  0.45524607  1
  Sb  Sb11  1  0.11466422  0.98322817  0.54170585  1
  Sb  Sb12  1  0.03591224  0.47971106  0.82225049  1
  Sb  Sb13  1  0.96266664  0.47264253  0.19652933  1
  Sb  Sb14  1  0.41367312  0.54753320  0.46086928  1
  Sb  Sb15  1  0.60702261  0.58191769  0.53502304  1
  Sb  Sb16  1  0.53437930  0.94149581  0.80472204  1
  Sb  Sb17  1  0.46504222  0.98375025  0.17708567  1
  S  S18  1  0.94211412  0.99425957  0.81370413  1
  S  S19  1  0.06454152  0.01048872  0.20657365  1
  S  S20  1  0.41736665  0.96749727  0.98031395  1
  S  S21  1  0.58398870  0.04796752  0.00672160  1
  S  S22  1  0.16545923  0.98215483  0.87386548  1
  S  S23  1  0.83074599  0.01345014  0.10642141  1
  S  S24  1  0.10207866  0.46198351  0.64360260  1
  S  S25  1  0.90228398  0.43752765  0.35982558  1
  S  S26  1  0.72585008  0.98572862  0.29522780  1
  S  S27  1  0.26414738  0.91612695  0.67800047  1
  S  S28  1  0.15926979  0.44265690  0.44362992  1
  S  S29  1  0.81442597  0.54065427  0.53990976  1
  S  S30  1  0.43329635  0.47235938  0.80234376  1
  S  S31  1  0.56181944  0.51008202  0.19592067  1
  S  S32  1  0.91462269  0.52429541  0.98831361  1
  S  S33  1  0.08854438  0.47452331  0.02382886  1
  S  S34  1  0.66898039  0.54101497  0.89638761  1
  S  S35  1  0.33060285  0.46123051  0.10403171  1
  S  S36  1  0.60521658  0.02239271  0.65699745  1
  S  S37  1  0.39613244  0.05072726  0.33090370  1
  S  S38  1  0.23855444  0.52362925  0.33238047  1
  S  S39  1  0.75886352  0.49359197  0.68793957  1
  S  S40  1  0.66609381  0.02031978  0.44347510  1
  S  S41  1  0.33353763  0.91184849  0.55040064  1
