# generated using pymatgen
data_Pr2Mn3(SbS3)4
_symmetry_space_group_name_H-M   'P 1'
_cell_length_a   20.02960800
_cell_length_b   3.90410600
_cell_length_c   14.95364829
_cell_angle_alpha   90.00000000
_cell_angle_beta   126.33350609
_cell_angle_gamma   90.00000000
_symmetry_Int_Tables_number   1
_chemical_formula_structural   Pr2Mn3(SbS3)4
_chemical_formula_sum   'Pr4 Mn6 Sb8 S24'
_cell_volume   942.00006694
_cell_formula_units_Z   2
loop_
 _symmetry_equiv_pos_site_id
 _symmetry_equiv_pos_as_xyz
  1  'x, y, z'
loop_
 _atom_site_type_symbol
 _atom_site_label
 _atom_site_symmetry_multiplicity
 _atom_site_fract_x
 _atom_site_fract_y
 _atom_site_fract_z
 _atom_site_occupancy
  Pr  Pr0  1  0.27594662  0.48217186  0.87232894  1
  Pr  Pr1  1  0.73235776  0.51467965  0.14368867  1
  Pr  Pr2  1  0.77176451  0.04911969  0.88193991  1
  Pr  Pr3  1  0.23217936  0.91252993  0.12557584  1
  Mn  Mn4  1  0.29377574  0.42285179  0.59977184  1
  Mn  Mn5  1  0.69310391  0.48395906  0.36125140  1
  Mn  Mn6  1  0.00716462  0.00616686  0.01892032  1
  Mn  Mn7  1  0.80026396  0.99832311  0.64456557  1
  Mn  Mn8  1  0.21323426  0.06148163  0.39258354  1
  Mn  Mn9  1  0.48967065  0.46153025  0.98574758  1
  Sb  Sb10  1  0.88098486  0.86808780  0.45528978  1
  Sb  Sb11  1  0.11465349  0.98348104  0.54168713  1
  Sb  Sb12  1  0.03590413  0.47968064  0.82244485  1
  Sb  Sb13  1  0.96251591  0.47307963  0.19629583  1
  Sb  Sb14  1  0.41373837  0.54700375  0.46096944  1
  Sb  Sb15  1  0.60717430  0.58124120  0.53509017  1
  Sb  Sb16  1  0.53436146  0.94123473  0.80460807  1
  Sb  Sb17  1  0.46491351  0.98395609  0.17693694  1
  S  S18  1  0.94229434  0.99378084  0.81380777  1
  S  S19  1  0.06428976  0.01192993  0.20661566  1
  S  S20  1  0.41739843  0.96817975  0.98041318  1
  S  S21  1  0.58418781  0.04773001  0.00697966  1
  S  S22  1  0.16536336  0.98146349  0.87361759  1
  S  S23  1  0.83057652  0.01194526  0.10612406  1
  S  S24  1  0.10242359  0.46189242  0.64359429  1
  S  S25  1  0.90238561  0.43678076  0.36013979  1
  S  S26  1  0.72604286  0.98662467  0.29516286  1
  S  S27  1  0.26427971  0.91474784  0.67824193  1
  S  S28  1  0.15935246  0.44122159  0.44381265  1
  S  S29  1  0.81432995  0.54202816  0.53995438  1
  S  S30  1  0.43334322  0.47377401  0.80218139  1
  S  S31  1  0.56227278  0.51051942  0.19603816  1
  S  S32  1  0.91452398  0.52428136  0.98835070  1
  S  S33  1  0.08813074  0.47420073  0.02350112  1
  S  S34  1  0.66867806  0.54121736  0.89617296  1
  S  S35  1  0.33036475  0.46149608  0.10398546  1
  S  S36  1  0.60522647  0.02221742  0.65707832  1
  S  S37  1  0.39588405  0.04985730  0.33058704  1
  S  S38  1  0.23876567  0.52376859  0.33240613  1
  S  S39  1  0.75881383  0.49377576  0.68776816  1
  S  S40  1  0.66622387  0.02088769  0.44390995  1
  S  S41  1  0.33356825  0.91215970  0.55080128  1
