# generated using pymatgen
data_Pr2Mn3(SbS3)4
_symmetry_space_group_name_H-M   'P 1'
_cell_length_a   20.02960800
_cell_length_b   3.90410600
_cell_length_c   14.95364829
_cell_angle_alpha   90.00000000
_cell_angle_beta   126.33350609
_cell_angle_gamma   90.00000000
_symmetry_Int_Tables_number   1
_chemical_formula_structural   Pr2Mn3(SbS3)4
_chemical_formula_sum   'Pr4 Mn6 Sb8 S24'
_cell_volume   942.00006694
_cell_formula_units_Z   2
loop_
 _symmetry_equiv_pos_site_id
 _symmetry_equiv_pos_as_xyz
  1  'x, y, z'
loop_
 _atom_site_type_symbol
 _atom_site_label
 _atom_site_symmetry_multiplicity
 _atom_site_fract_x
 _atom_site_fract_y
 _atom_site_fract_z
 _atom_site_occupancy
  Pr  Pr0  1  0.27599341  0.48232741  0.87217782  1
  Pr  Pr1  1  0.73221582  0.51449748  0.14354462  1
  Pr  Pr2  1  0.77187007  0.04901145  0.88195786  1
  Pr  Pr3  1  0.23233978  0.91239560  0.12572608  1
  Mn  Mn4  1  0.29384046  0.42319852  0.60006983  1
  Mn  Mn5  1  0.69300884  0.48419873  0.36111234  1
  Mn  Mn6  1  0.00715336  0.00636845  0.01905789  1
  Mn  Mn7  1  0.80012075  0.99787257  0.64450616  1
  Mn  Mn8  1  0.21318742  0.06104906  0.39251034  1
  Mn  Mn9  1  0.48975374  0.46120462  0.98585815  1
  Sb  Sb10  1  0.88096848  0.86771325  0.45528294  1
  Sb  Sb11  1  0.11464908  0.98370511  0.54168250  1
  Sb  Sb12  1  0.03588474  0.47987547  0.82258209  1
  Sb  Sb13  1  0.96235395  0.47337544  0.19605019  1
  Sb  Sb14  1  0.41380151  0.54659479  0.46105448  1
  Sb  Sb15  1  0.60736217  0.58067093  0.53525499  1
  Sb  Sb16  1  0.53434791  0.94080824  0.80450711  1
  Sb  Sb17  1  0.46484870  0.98395759  0.17688242  1
  S  S18  1  0.94249909  0.99349726  0.81390866  1
  S  S19  1  0.06407119  0.01414689  0.20657089  1
  S  S20  1  0.41743884  0.96905945  0.98036112  1
  S  S21  1  0.58436024  0.04747685  0.00722006  1
  S  S22  1  0.16517936  0.98091484  0.87349790  1
  S  S23  1  0.83031768  0.01022959  0.10572830  1
  S  S24  1  0.10284226  0.46186759  0.64363413  1
  S  S25  1  0.90246428  0.43598095  0.36035222  1
  S  S26  1  0.72627326  0.98802348  0.29513007  1
  S  S27  1  0.26446140  0.91280162  0.67844320  1
  S  S28  1  0.15938015  0.43989579  0.44393165  1
  S  S29  1  0.81424283  0.54347094  0.53995604  1
  S  S30  1  0.43335365  0.47501591  0.80220457  1
  S  S31  1  0.56283945  0.51099746  0.19622001  1
  S  S32  1  0.91449341  0.52458233  0.98834980  1
  S  S33  1  0.08775216  0.47462048  0.02316747  1
  S  S34  1  0.66831602  0.54112174  0.89585598  1
  S  S35  1  0.33014064  0.46209205  0.10385277  1
  S  S36  1  0.60536888  0.02199428  0.65720207  1
  S  S37  1  0.39556146  0.04863422  0.33030753  1
  S  S38  1  0.23896300  0.52389758  0.33236069  1
  S  S39  1  0.75876969  0.49405418  0.68770084  1
  S  S40  1  0.66628785  0.02133511  0.44413392  1
  S  S41  1  0.33363361  0.91209904  0.55125180  1
