# generated using pymatgen
data_Pr2Mn3(SbS3)4
_symmetry_space_group_name_H-M   'P 1'
_cell_length_a   20.02960800
_cell_length_b   3.90410600
_cell_length_c   14.95364829
_cell_angle_alpha   90.00000000
_cell_angle_beta   126.33350609
_cell_angle_gamma   90.00000000
_symmetry_Int_Tables_number   1
_chemical_formula_structural   Pr2Mn3(SbS3)4
_chemical_formula_sum   'Pr4 Mn6 Sb8 S24'
_cell_volume   942.00006694
_cell_formula_units_Z   2
loop_
 _symmetry_equiv_pos_site_id
 _symmetry_equiv_pos_as_xyz
  1  'x, y, z'
loop_
 _atom_site_type_symbol
 _atom_site_label
 _atom_site_symmetry_multiplicity
 _atom_site_fract_x
 _atom_site_fract_y
 _atom_site_fract_z
 _atom_site_occupancy
  Pr  Pr0  1  0.26467409  0.47113752  0.86710898  1
  Pr  Pr1  1  0.73626826  0.52353329  0.13682479  1
  Pr  Pr2  1  0.76483844  0.01189807  0.86456039  1
  Pr  Pr3  1  0.23772018  0.00697922  0.13790735  1
  Mn  Mn4  1  0.29419467  0.48481761  0.60216693  1
  Mn  Mn5  1  0.69248579  0.51392318  0.38121945  1
  Mn  Mn6  1  0.00916591  0.99680173  0.01416811  1
  Mn  Mn7  1  0.80472233  0.01159713  0.61464143  1
  Mn  Mn8  1  0.19670020  0.97294169  0.37772983  1
  Mn  Mn9  1  0.49598735  0.45337085  0.98946067  1
  Sb  Sb10  1  0.88988493  0.98836498  0.45123650  1
  Sb  Sb11  1  0.11138009  0.97162779  0.54899525  1
  Sb  Sb12  1  0.03873899  0.51894339  0.81742494  1
  Sb  Sb13  1  0.96513176  0.50950878  0.18630339  1
  Sb  Sb14  1  0.39529993  0.51397377  0.45540308  1
  Sb  Sb15  1  0.60637374  0.47648301  0.54700035  1
  Sb  Sb16  1  0.53532352  0.00722007  0.81131984  1
  Sb  Sb17  1  0.46027787  0.01494752  0.18124562  1
  S  S18  1  0.93300222  0.99046334  0.80294806  1
  S  S19  1  0.06703651  0.98341860  0.18773544  1
  S  S20  1  0.40986880  0.99756147  0.98028180  1
  S  S21  1  0.59099100  0.99514284  0.02018417  1
  S  S22  1  0.16938643  0.00364772  0.89582756  1
  S  S23  1  0.82425663  0.01356850  0.09579444  1
  S  S24  1  0.08831117  0.48418412  0.64234619  1
  S  S25  1  0.90823807  0.46462146  0.35408398  1
  S  S26  1  0.73984865  0.95811953  0.29671422  1
  S  S27  1  0.25996206  0.00208786  0.70740763  1
  S  S28  1  0.16809892  0.47190485  0.43958328  1
  S  S29  1  0.82897418  0.48972118  0.54731809  1
  S  S30  1  0.43340111  0.50125271  0.79465560  1
  S  S31  1  0.56240018  0.50820492  0.18153656  1
  S  S32  1  0.91457437  0.51129365  0.99187270  1
  S  S33  1  0.08320867  0.48763621  0.01367974  1
  S  S34  1  0.66729919  0.49778082  0.88958316  1
  S  S35  1  0.32788605  0.51045270  0.09159114  1
  S  S36  1  0.59768847  0.99652925  0.66186919  1
  S  S37  1  0.40614861  0.97371187  0.34681725  1
  S  S38  1  0.24670919  0.44155519  0.31291749  1
  S  S39  1  0.76568057  0.50249288  0.70419441  1
  S  S40  1  0.67203899  0.03244511  0.45469551  1
  S  S41  1  0.32377284  0.96636744  0.54407482  1
