# generated using pymatgen
data_Pr2Mn3(SbS3)4
_symmetry_space_group_name_H-M   'P 1'
_cell_length_a   20.02960800
_cell_length_b   3.90410600
_cell_length_c   14.95364829
_cell_angle_alpha   90.00000000
_cell_angle_beta   126.33350609
_cell_angle_gamma   90.00000000
_symmetry_Int_Tables_number   1
_chemical_formula_structural   Pr2Mn3(SbS3)4
_chemical_formula_sum   'Pr4 Mn6 Sb8 S24'
_cell_volume   942.00006694
_cell_formula_units_Z   2
loop_
 _symmetry_equiv_pos_site_id
 _symmetry_equiv_pos_as_xyz
  1  'x, y, z'
loop_
 _atom_site_type_symbol
 _atom_site_label
 _atom_site_symmetry_multiplicity
 _atom_site_fract_x
 _atom_site_fract_y
 _atom_site_fract_z
 _atom_site_occupancy
  Pr  Pr0  1  0.27602504  0.48208731  0.87198807  1
  Pr  Pr1  1  0.73208771  0.51430450  0.14345422  1
  Pr  Pr2  1  0.77197094  0.04910155  0.88196761  1
  Pr  Pr3  1  0.23253677  0.91204647  0.12589431  1
  Mn  Mn4  1  0.29395278  0.42355078  0.60046621  1
  Mn  Mn5  1  0.69292179  0.48413660  0.36104234  1
  Mn  Mn6  1  0.00714592  0.00701292  0.01911895  1
  Mn  Mn7  1  0.79990926  0.99754069  0.64426967  1
  Mn  Mn8  1  0.21299730  0.06084281  0.39231871  1
  Mn  Mn9  1  0.48982869  0.46093789  0.98609748  1
  Sb  Sb10  1  0.88096678  0.86746152  0.45525855  1
  Sb  Sb11  1  0.11469366  0.98370563  0.54165173  1
  Sb  Sb12  1  0.03586336  0.48008569  0.82269762  1
  Sb  Sb13  1  0.96218500  0.47363097  0.19581154  1
  Sb  Sb14  1  0.41388903  0.54647086  0.46122469  1
  Sb  Sb15  1  0.60758602  0.58022759  0.53552709  1
  Sb  Sb16  1  0.53433884  0.94043747  0.80441538  1
  Sb  Sb17  1  0.46483328  0.98421523  0.17685728  1
  S  S18  1  0.94273742  0.99334385  0.81405155  1
  S  S19  1  0.06381828  0.01611936  0.20642922  1
  S  S20  1  0.41750722  0.96950451  0.98034899  1
  S  S21  1  0.58449560  0.04723376  0.00738180  1
  S  S22  1  0.16502213  0.98029202  0.87345241  1
  S  S23  1  0.83001080  0.00871121  0.10519675  1
  S  S24  1  0.10325729  0.46152418  0.64366270  1
  S  S25  1  0.90246869  0.43520099  0.36036812  1
  S  S26  1  0.72648575  0.98904103  0.29517533  1
  S  S27  1  0.26468321  0.91158514  0.67881633  1
  S  S28  1  0.15953477  0.43888939  0.44416699  1
  S  S29  1  0.81419278  0.54449261  0.53999662  1
  S  S30  1  0.43327794  0.47608518  0.80214530  1
  S  S31  1  0.56329606  0.51141396  0.19636537  1
  S  S32  1  0.91451863  0.52474558  0.98842945  1
  S  S33  1  0.08731919  0.47475946  0.02276791  1
  S  S34  1  0.66806293  0.54114603  0.89563211  1
  S  S35  1  0.32994748  0.46256016  0.10379466  1
  S  S36  1  0.60553992  0.02159433  0.65736599  1
  S  S37  1  0.39525626  0.04723731  0.33002418  1
  S  S38  1  0.23926406  0.52399181  0.33234032  1
  S  S39  1  0.75870778  0.49407709  0.68758614  1
  S  S40  1  0.66637271  0.02129377  0.44436180  1
  S  S41  1  0.33373806  0.91214208  0.55176854  1
