# generated using pymatgen
data_Pr2Mn3(SbS3)4
_symmetry_space_group_name_H-M   'P 1'
_cell_length_a   20.02960800
_cell_length_b   3.90410600
_cell_length_c   14.95364829
_cell_angle_alpha   90.00000000
_cell_angle_beta   126.33350609
_cell_angle_gamma   90.00000000
_symmetry_Int_Tables_number   1
_chemical_formula_structural   Pr2Mn3(SbS3)4
_chemical_formula_sum   'Pr4 Mn6 Sb8 S24'
_cell_volume   942.00006694
_cell_formula_units_Z   2
loop_
 _symmetry_equiv_pos_site_id
 _symmetry_equiv_pos_as_xyz
  1  'x, y, z'
loop_
 _atom_site_type_symbol
 _atom_site_label
 _atom_site_symmetry_multiplicity
 _atom_site_fract_x
 _atom_site_fract_y
 _atom_site_fract_z
 _atom_site_occupancy
  Pr  Pr0  1  0.27603239  0.48208927  0.87179196  1
  Pr  Pr1  1  0.73205447  0.51408340  0.14341305  1
  Pr  Pr2  1  0.77208432  0.04897452  0.88197579  1
  Pr  Pr3  1  0.23280780  0.91169278  0.12617331  1
  Mn  Mn4  1  0.29402135  0.42411779  0.60082681  1
  Mn  Mn5  1  0.69291874  0.48411455  0.36103850  1
  Mn  Mn6  1  0.00717567  0.00744218  0.01917516  1
  Mn  Mn7  1  0.79979166  0.99714243  0.64410343  1
  Mn  Mn8  1  0.21284250  0.06117608  0.39213925  1
  Mn  Mn9  1  0.48986143  0.46099544  0.98631194  1
  Sb  Sb10  1  0.88100930  0.86712971  0.45532402  1
  Sb  Sb11  1  0.11473692  0.98353190  0.54164547  1
  Sb  Sb12  1  0.03581566  0.48036711  0.82277433  1
  Sb  Sb13  1  0.96198611  0.47375280  0.19559380  1
  Sb  Sb14  1  0.41397367  0.54620545  0.46138282  1
  Sb  Sb15  1  0.60783669  0.57983639  0.53577878  1
  Sb  Sb16  1  0.53431412  0.94002327  0.80427890  1
  Sb  Sb17  1  0.46481747  0.98447562  0.17686429  1
  S  S18  1  0.94284880  0.99295355  0.81401718  1
  S  S19  1  0.06357792  0.01781968  0.20626569  1
  S  S20  1  0.41750458  0.97025419  0.98028439  1
  S  S21  1  0.58456682  0.04695352  0.00743372  1
  S  S22  1  0.16485876  0.97963409  0.87352308  1
  S  S23  1  0.82976582  0.00777597  0.10467772  1
  S  S24  1  0.10356427  0.46176689  0.64372552  1
  S  S25  1  0.90258108  0.43516196  0.36051514  1
  S  S26  1  0.72679039  0.98996128  0.29514834  1
  S  S27  1  0.26491179  0.90977823  0.67916085  1
  S  S28  1  0.15978420  0.43811392  0.44448328  1
  S  S29  1  0.81414016  0.54578971  0.54007537  1
  S  S30  1  0.43330737  0.47713075  0.80224349  1
  S  S31  1  0.56363718  0.51168967  0.19637602  1
  S  S32  1  0.91461486  0.52462841  0.98856461  1
  S  S33  1  0.08687704  0.47506548  0.02230547  1
  S  S34  1  0.66774920  0.54161142  0.89539560  1
  S  S35  1  0.32972529  0.46307219  0.10355425  1
  S  S36  1  0.60561523  0.02126860  0.65735958  1
  S  S37  1  0.39489568  0.04610130  0.32972859  1
  S  S38  1  0.23955867  0.52403631  0.33225663  1
  S  S39  1  0.75870382  0.49364620  0.68756263  1
  S  S40  1  0.66649092  0.02095539  0.44452769  1
  S  S41  1  0.33393897  0.91206951  0.55224270  1
