# generated using pymatgen
data_Pr2Mn3(SbS3)4
_symmetry_space_group_name_H-M   'P 1'
_cell_length_a   20.02960800
_cell_length_b   3.90410600
_cell_length_c   14.95364829
_cell_angle_alpha   90.00000000
_cell_angle_beta   126.33350609
_cell_angle_gamma   90.00000000
_symmetry_Int_Tables_number   1
_chemical_formula_structural   Pr2Mn3(SbS3)4
_chemical_formula_sum   'Pr4 Mn6 Sb8 S24'
_cell_volume   942.00006694
_cell_formula_units_Z   2
loop_
 _symmetry_equiv_pos_site_id
 _symmetry_equiv_pos_as_xyz
  1  'x, y, z'
loop_
 _atom_site_type_symbol
 _atom_site_label
 _atom_site_symmetry_multiplicity
 _atom_site_fract_x
 _atom_site_fract_y
 _atom_site_fract_z
 _atom_site_occupancy
  Pr  Pr0  1  0.27598281  0.48220460  0.87161377  1
  Pr  Pr1  1  0.73201504  0.51392777  0.14330722  1
  Pr  Pr2  1  0.77220769  0.04884259  0.88196490  1
  Pr  Pr3  1  0.23305305  0.91122256  0.12640289  1
  Mn  Mn4  1  0.29404063  0.42498878  0.60112964  1
  Mn  Mn5  1  0.69296151  0.48411235  0.36106233  1
  Mn  Mn6  1  0.00715922  0.00771935  0.01919721  1
  Mn  Mn7  1  0.79973587  0.99692899  0.64397531  1
  Mn  Mn8  1  0.21267343  0.06170829  0.39203265  1
  Mn  Mn9  1  0.48989614  0.46096247  0.98653111  1
  Sb  Sb10  1  0.88108068  0.86687340  0.45541938  1
  Sb  Sb11  1  0.11478486  0.98357072  0.54165333  1
  Sb  Sb12  1  0.03577924  0.48037628  0.82286805  1
  Sb  Sb13  1  0.96182622  0.47398546  0.19539966  1
  Sb  Sb14  1  0.41399543  0.54605385  0.46148052  1
  Sb  Sb15  1  0.60802857  0.57936374  0.53599753  1
  Sb  Sb16  1  0.53428988  0.93968301  0.80419668  1
  Sb  Sb17  1  0.46476024  0.98453519  0.17686842  1
  S  S18  1  0.94283240  0.99234240  0.81385448  1
  S  S19  1  0.06332656  0.01929276  0.20609680  1
  S  S20  1  0.41746429  0.97060174  0.98015299  1
  S  S21  1  0.58462642  0.04629818  0.00743703  1
  S  S22  1  0.16470249  0.97888882  0.87363805  1
  S  S23  1  0.82947975  0.00674096  0.10410216  1
  S  S24  1  0.10386462  0.46189062  0.64388627  1
  S  S25  1  0.90272020  0.43520066  0.36061649  1
  S  S26  1  0.72708791  0.99042661  0.29505953  1
  S  S27  1  0.26527829  0.90825876  0.67966362  1
  S  S28  1  0.16008124  0.43860746  0.44476455  1
  S  S29  1  0.81401256  0.54718173  0.54002973  1
  S  S30  1  0.43327416  0.47831570  0.80219228  1
  S  S31  1  0.56394824  0.51167943  0.19617131  1
  S  S32  1  0.91463775  0.52451781  0.98861553  1
  S  S33  1  0.08658726  0.47542756  0.02202257  1
  S  S34  1  0.66744962  0.54188123  0.89513822  1
  S  S35  1  0.32971776  0.46326668  0.10340812  1
  S  S36  1  0.60567580  0.02131562  0.65738250  1
  S  S37  1  0.39449468  0.04490363  0.32944939  1
  S  S38  1  0.23992435  0.52427617  0.33215331  1
  S  S39  1  0.75883760  0.49285881  0.68757557  1
  S  S40  1  0.66641962  0.02085922  0.44450791  1
  S  S41  1  0.33406913  0.91187589  0.55262447  1
