# generated using pymatgen
data_Pr2Mn3(SbS3)4
_symmetry_space_group_name_H-M   'P 1'
_cell_length_a   20.02960800
_cell_length_b   3.90410600
_cell_length_c   14.95364829
_cell_angle_alpha   90.00000000
_cell_angle_beta   126.33350609
_cell_angle_gamma   90.00000000
_symmetry_Int_Tables_number   1
_chemical_formula_structural   Pr2Mn3(SbS3)4
_chemical_formula_sum   'Pr4 Mn6 Sb8 S24'
_cell_volume   942.00006694
_cell_formula_units_Z   2
loop_
 _symmetry_equiv_pos_site_id
 _symmetry_equiv_pos_as_xyz
  1  'x, y, z'
loop_
 _atom_site_type_symbol
 _atom_site_label
 _atom_site_symmetry_multiplicity
 _atom_site_fract_x
 _atom_site_fract_y
 _atom_site_fract_z
 _atom_site_occupancy
  Pr  Pr0  1  0.27593907  0.48250566  0.87145164  1
  Pr  Pr1  1  0.73199005  0.51384983  0.14320336  1
  Pr  Pr2  1  0.77229718  0.04858802  0.88199422  1
  Pr  Pr3  1  0.23330855  0.91098346  0.12659681  1
  Mn  Mn4  1  0.29403909  0.42627042  0.60130702  1
  Mn  Mn5  1  0.69308277  0.48447298  0.36115160  1
  Mn  Mn6  1  0.00708730  0.00788409  0.01917016  1
  Mn  Mn7  1  0.79964870  0.99690150  0.64395193  1
  Mn  Mn8  1  0.21250419  0.06245465  0.39192236  1
  Mn  Mn9  1  0.48994816  0.46057509  0.98677623  1
  Sb  Sb10  1  0.88113064  0.86669443  0.45550896  1
  Sb  Sb11  1  0.11472863  0.98370230  0.54156111  1
  Sb  Sb12  1  0.03580798  0.48047783  0.82292300  1
  Sb  Sb13  1  0.96168385  0.47424623  0.19519620  1
  Sb  Sb14  1  0.41401446  0.54590467  0.46153733  1
  Sb  Sb15  1  0.60818616  0.57898088  0.53615401  1
  Sb  Sb16  1  0.53432966  0.93925146  0.80419529  1
  Sb  Sb17  1  0.46475012  0.98472101  0.17689213  1
  S  S18  1  0.94283556  0.99164915  0.81375848  1
  S  S19  1  0.06300921  0.02073236  0.20583705  1
  S  S20  1  0.41754238  0.97048286  0.98022400  1
  S  S21  1  0.58452173  0.04639480  0.00728560  1
  S  S22  1  0.16457514  0.97803892  0.87374305  1
  S  S23  1  0.82926057  0.00591576  0.10365239  1
  S  S24  1  0.10413933  0.46229366  0.64396803  1
  S  S25  1  0.90279592  0.43471451  0.36053550  1
  S  S26  1  0.72729940  0.99091304  0.29491955  1
  S  S27  1  0.26556299  0.90639509  0.67997421  1
  S  S28  1  0.16032700  0.43905324  0.44500770  1
  S  S29  1  0.81389727  0.54861336  0.54005990  1
  S  S30  1  0.43325105  0.47925797  0.80225042  1
  S  S31  1  0.56411045  0.51161285  0.19592349  1
  S  S32  1  0.91481170  0.52473481  0.98885238  1
  S  S33  1  0.08632538  0.47587668  0.02175734  1
  S  S34  1  0.66717591  0.54244747  0.89506164  1
  S  S35  1  0.32974618  0.46342598  0.10319005  1
  S  S36  1  0.60573111  0.02110731  0.65737649  1
  S  S37  1  0.39423502  0.04398571  0.32918422  1
  S  S38  1  0.24013350  0.52499949  0.33195212  1
  S  S39  1  0.75887053  0.49218010  0.68749073  1
  S  S40  1  0.66626086  0.02120711  0.44440847  1
  S  S41  1  0.33408847  0.91220809  0.55294004  1
