# generated using pymatgen
data_Pr2Mn3(SbS3)4
_symmetry_space_group_name_H-M   'P 1'
_cell_length_a   20.02960800
_cell_length_b   3.90410600
_cell_length_c   14.95364829
_cell_angle_alpha   90.00000000
_cell_angle_beta   126.33350609
_cell_angle_gamma   90.00000000
_symmetry_Int_Tables_number   1
_chemical_formula_structural   Pr2Mn3(SbS3)4
_chemical_formula_sum   'Pr4 Mn6 Sb8 S24'
_cell_volume   942.00006694
_cell_formula_units_Z   2
loop_
 _symmetry_equiv_pos_site_id
 _symmetry_equiv_pos_as_xyz
  1  'x, y, z'
loop_
 _atom_site_type_symbol
 _atom_site_label
 _atom_site_symmetry_multiplicity
 _atom_site_fract_x
 _atom_site_fract_y
 _atom_site_fract_z
 _atom_site_occupancy
  Pr  Pr0  1  0.27587864  0.48298523  0.87123607  1
  Pr  Pr1  1  0.73194090  0.51379674  0.14314906  1
  Pr  Pr2  1  0.77237018  0.04844985  0.88203608  1
  Pr  Pr3  1  0.23359277  0.91078132  0.12687761  1
  Mn  Mn4  1  0.29392446  0.42765366  0.60128898  1
  Mn  Mn5  1  0.69324073  0.48482721  0.36123790  1
  Mn  Mn6  1  0.00700114  0.00815506  0.01918878  1
  Mn  Mn7  1  0.79966022  0.99732151  0.64394230  1
  Mn  Mn8  1  0.21235786  0.06333276  0.39177174  1
  Mn  Mn9  1  0.48999634  0.46051095  0.98696597  1
  Sb  Sb10  1  0.88114322  0.86656527  0.45551634  1
  Sb  Sb11  1  0.11462977  0.98362047  0.54146359  1
  Sb  Sb12  1  0.03585173  0.48041289  0.82298451  1
  Sb  Sb13  1  0.96151947  0.47439002  0.19499542  1
  Sb  Sb14  1  0.41403361  0.54573872  0.46152564  1
  Sb  Sb15  1  0.60833236  0.57852261  0.53626538  1
  Sb  Sb16  1  0.53433296  0.93910107  0.80414258  1
  Sb  Sb17  1  0.46467782  0.98484431  0.17681371  1
  S  S18  1  0.94278785  0.99119714  0.81356789  1
  S  S19  1  0.06264667  0.02194319  0.20556392  1
  S  S20  1  0.41758491  0.96970860  0.98026407  1
  S  S21  1  0.58429276  0.04637687  0.00728836  1
  S  S22  1  0.16448917  0.97703893  0.87391920  1
  S  S23  1  0.82909264  0.00524516  0.10330357  1
  S  S24  1  0.10426026  0.46279979  0.64396799  1
  S  S25  1  0.90276467  0.43415923  0.36028787  1
  S  S26  1  0.72764302  0.99124238  0.29484571  1
  S  S27  1  0.26597554  0.90510963  0.68050432  1
  S  S28  1  0.16051480  0.43932752  0.44528501  1
  S  S29  1  0.81382026  0.54968649  0.54026091  1
  S  S30  1  0.43326130  0.48025453  0.80232313  1
  S  S31  1  0.56430270  0.51161199  0.19584367  1
  S  S32  1  0.91495209  0.52501263  0.98913302  1
  S  S33  1  0.08613470  0.47598217  0.02148339  1
  S  S34  1  0.66694908  0.54294872  0.89503242  1
  S  S35  1  0.32966383  0.46401035  0.10283193  1
  S  S36  1  0.60582232  0.02086391  0.65748706  1
  S  S37  1  0.39408950  0.04295521  0.32907543  1
  S  S38  1  0.24021146  0.52532105  0.33175154  1
  S  S39  1  0.75909250  0.49141139  0.68754798  1
  S  S40  1  0.66595760  0.02158262  0.44418319  1
  S  S41  1  0.33407333  0.91266068  0.55318748  1
