# generated using pymatgen
data_Pr2Mn3(SbS3)4
_symmetry_space_group_name_H-M   'P 1'
_cell_length_a   20.02960800
_cell_length_b   3.90410600
_cell_length_c   14.95364829
_cell_angle_alpha   90.00000000
_cell_angle_beta   126.33350609
_cell_angle_gamma   90.00000000
_symmetry_Int_Tables_number   1
_chemical_formula_structural   Pr2Mn3(SbS3)4
_chemical_formula_sum   'Pr4 Mn6 Sb8 S24'
_cell_volume   942.00006694
_cell_formula_units_Z   2
loop_
 _symmetry_equiv_pos_site_id
 _symmetry_equiv_pos_as_xyz
  1  'x, y, z'
loop_
 _atom_site_type_symbol
 _atom_site_label
 _atom_site_symmetry_multiplicity
 _atom_site_fract_x
 _atom_site_fract_y
 _atom_site_fract_z
 _atom_site_occupancy
  Pr  Pr0  1  0.27579893  0.48320524  0.87102019  1
  Pr  Pr1  1  0.73188372  0.51369663  0.14311565  1
  Pr  Pr2  1  0.77245166  0.04832441  0.88209803  1
  Pr  Pr3  1  0.23382853  0.91058848  0.12706601  1
  Mn  Mn4  1  0.29374016  0.42890309  0.60124236  1
  Mn  Mn5  1  0.69321165  0.48500048  0.36115165  1
  Mn  Mn6  1  0.00694373  0.00824513  0.01914477  1
  Mn  Mn7  1  0.79959163  0.99767077  0.64392485  1
  Mn  Mn8  1  0.21217415  0.06440124  0.39161075  1
  Mn  Mn9  1  0.48997370  0.46048050  0.98707156  1
  Sb  Sb10  1  0.88117775  0.86662703  0.45558659  1
  Sb  Sb11  1  0.11452050  0.98362232  0.54135505  1
  Sb  Sb12  1  0.03590260  0.48023352  0.82308931  1
  Sb  Sb13  1  0.96136511  0.47460178  0.19478306  1
  Sb  Sb14  1  0.41405487  0.54574150  0.46151220  1
  Sb  Sb15  1  0.60845998  0.57790941  0.53640240  1
  Sb  Sb16  1  0.53432863  0.93867653  0.80414007  1
  Sb  Sb17  1  0.46468636  0.98508945  0.17674868  1
  S  S18  1  0.94257457  0.99086909  0.81317017  1
  S  S19  1  0.06239600  0.02307021  0.20543491  1
  S  S20  1  0.41763744  0.96900635  0.98036531  1
  S  S21  1  0.58405282  0.04619144  0.00727765  1
  S  S22  1  0.16445496  0.97580286  0.87406276  1
  S  S23  1  0.82899712  0.00470432  0.10307738  1
  S  S24  1  0.10431511  0.46332170  0.64393522  1
  S  S25  1  0.90271075  0.43334961  0.35991731  1
  S  S26  1  0.72798720  0.99151712  0.29483593  1
  S  S27  1  0.26624429  0.90429312  0.68092629  1
  S  S28  1  0.16053301  0.43983678  0.44552148  1
  S  S29  1  0.81368173  0.55094419  0.54043381  1
  S  S30  1  0.43323034  0.48067866  0.80231051  1
  S  S31  1  0.56442564  0.51140276  0.19569085  1
  S  S32  1  0.91515897  0.52595142  0.98934471  1
  S  S33  1  0.08605657  0.47620162  0.02133159  1
  S  S34  1  0.66670150  0.54347856  0.89496166  1
  S  S35  1  0.32952206  0.46463187  0.10251958  1
  S  S36  1  0.60589597  0.02093185  0.65758021  1
  S  S37  1  0.39404480  0.04186381  0.32893293  1
  S  S38  1  0.24029349  0.52497282  0.33158475  1
  S  S39  1  0.75937506  0.49057124  0.68763796  1
  S  S40  1  0.66559365  0.02235228  0.44400235  1
  S  S41  1  0.33403719  0.91265850  0.55356951  1
