# generated using pymatgen
data_Pr2Mn3(SbS3)4
_symmetry_space_group_name_H-M   'P 1'
_cell_length_a   20.02960800
_cell_length_b   3.90410600
_cell_length_c   14.95364829
_cell_angle_alpha   90.00000000
_cell_angle_beta   126.33350609
_cell_angle_gamma   90.00000000
_symmetry_Int_Tables_number   1
_chemical_formula_structural   Pr2Mn3(SbS3)4
_chemical_formula_sum   'Pr4 Mn6 Sb8 S24'
_cell_volume   942.00006694
_cell_formula_units_Z   2
loop_
 _symmetry_equiv_pos_site_id
 _symmetry_equiv_pos_as_xyz
  1  'x, y, z'
loop_
 _atom_site_type_symbol
 _atom_site_label
 _atom_site_symmetry_multiplicity
 _atom_site_fract_x
 _atom_site_fract_y
 _atom_site_fract_z
 _atom_site_occupancy
  Pr  Pr0  1  0.27571085  0.48332705  0.87078769  1
  Pr  Pr1  1  0.73192396  0.51369420  0.14315354  1
  Pr  Pr2  1  0.77255744  0.04792763  0.88218597  1
  Pr  Pr3  1  0.23399744  0.91020923  0.12723993  1
  Mn  Mn4  1  0.29361076  0.42976513  0.60119662  1
  Mn  Mn5  1  0.69319774  0.48579759  0.36100510  1
  Mn  Mn6  1  0.00684605  0.00813895  0.01900463  1
  Mn  Mn7  1  0.79951961  0.99786980  0.64392085  1
  Mn  Mn8  1  0.21205620  0.06545172  0.39152875  1
  Mn  Mn9  1  0.48991808  0.46056989  0.98713823  1
  Sb  Sb10  1  0.88122318  0.86660359  0.45568437  1
  Sb  Sb11  1  0.11442896  0.98343418  0.54132503  1
  Sb  Sb12  1  0.03595543  0.47996503  0.82315398  1
  Sb  Sb13  1  0.96117153  0.47450881  0.19447201  1
  Sb  Sb14  1  0.41410676  0.54593838  0.46156011  1
  Sb  Sb15  1  0.60854944  0.57737299  0.53657788  1
  Sb  Sb16  1  0.53433938  0.93854192  0.80417505  1
  Sb  Sb17  1  0.46468923  0.98537452  0.17672005  1
  S  S18  1  0.94246202  0.99065737  0.81292457  1
  S  S19  1  0.06222720  0.02413303  0.20539940  1
  S  S20  1  0.41770446  0.96795945  0.98039110  1
  S  S21  1  0.58391497  0.04625194  0.00744359  1
  S  S22  1  0.16456234  0.97477896  0.87446718  1
  S  S23  1  0.82895299  0.00467765  0.10300022  1
  S  S24  1  0.10436282  0.46365284  0.64397981  1
  S  S25  1  0.90260650  0.43288711  0.35957318  1
  S  S26  1  0.72835809  0.99220523  0.29502768  1
  S  S27  1  0.26649045  0.90336708  0.68133555  1
  S  S28  1  0.16070217  0.44046010  0.44573900  1
  S  S29  1  0.81353788  0.55227731  0.54057890  1
  S  S30  1  0.43328411  0.48092307  0.80250225  1
  S  S31  1  0.56445670  0.51130401  0.19555744  1
  S  S32  1  0.91530279  0.52712465  0.98961186  1
  S  S33  1  0.08601883  0.47615224  0.02125947  1
  S  S34  1  0.66638524  0.54408827  0.89490834  1
  S  S35  1  0.32932284  0.46558038  0.10217359  1
  S  S36  1  0.60581670  0.02088296  0.65748879  1
  S  S37  1  0.39405630  0.04015953  0.32893803  1
  S  S38  1  0.24034823  0.52454935  0.33147902  1
  S  S39  1  0.75968357  0.48970439  0.68775939  1
  S  S40  1  0.66529247  0.02285572  0.44399051  1
  S  S41  1  0.33396425  0.91294585  0.55396346  1
