# generated using pymatgen
data_Pr2Mn3(SbS3)4
_symmetry_space_group_name_H-M   'P 1'
_cell_length_a   20.02960800
_cell_length_b   3.90410600
_cell_length_c   14.95364829
_cell_angle_alpha   90.00000000
_cell_angle_beta   126.33350609
_cell_angle_gamma   90.00000000
_symmetry_Int_Tables_number   1
_chemical_formula_structural   Pr2Mn3(SbS3)4
_chemical_formula_sum   'Pr4 Mn6 Sb8 S24'
_cell_volume   942.00006694
_cell_formula_units_Z   2
loop_
 _symmetry_equiv_pos_site_id
 _symmetry_equiv_pos_as_xyz
  1  'x, y, z'
loop_
 _atom_site_type_symbol
 _atom_site_label
 _atom_site_symmetry_multiplicity
 _atom_site_fract_x
 _atom_site_fract_y
 _atom_site_fract_z
 _atom_site_occupancy
  Pr  Pr0  1  0.27569400  0.48350087  0.87062138  1
  Pr  Pr1  1  0.73196919  0.51343365  0.14317927  1
  Pr  Pr2  1  0.77269444  0.04766483  0.88228591  1
  Pr  Pr3  1  0.23416296  0.90980924  0.12739506  1
  Mn  Mn4  1  0.29354454  0.43031707  0.60127760  1
  Mn  Mn5  1  0.69317693  0.48667338  0.36101921  1
  Mn  Mn6  1  0.00680571  0.00828615  0.01886634  1
  Mn  Mn7  1  0.79948729  0.99809926  0.64396925  1
  Mn  Mn8  1  0.21201310  0.06614055  0.39142667  1
  Mn  Mn9  1  0.48979200  0.46081002  0.98715348  1
  Sb  Sb10  1  0.88123311  0.86675659  0.45568315  1
  Sb  Sb11  1  0.11436267  0.98324291  0.54132983  1
  Sb  Sb12  1  0.03601357  0.47962280  0.82319573  1
  Sb  Sb13  1  0.96097663  0.47440873  0.19424840  1
  Sb  Sb14  1  0.41420196  0.54618458  0.46163069  1
  Sb  Sb15  1  0.60865126  0.57707982  0.53674896  1
  Sb  Sb16  1  0.53430373  0.93821666  0.80422360  1
  Sb  Sb17  1  0.46469156  0.98567332  0.17675614  1
  S  S18  1  0.94230428  0.99048555  0.81259521  1
  S  S19  1  0.06205408  0.02460372  0.20524483  1
  S  S20  1  0.41776726  0.96698874  0.98025063  1
  S  S21  1  0.58373975  0.04656021  0.00748796  1
  S  S22  1  0.16476357  0.97445983  0.87489373  1
  S  S23  1  0.82877244  0.00479147  0.10297126  1
  S  S24  1  0.10441146  0.46382654  0.64413278  1
  S  S25  1  0.90250750  0.43272971  0.35938512  1
  S  S26  1  0.72875420  0.99251798  0.29526303  1
  S  S27  1  0.26664436  0.90258337  0.68160870  1
  S  S28  1  0.16094098  0.44163078  0.44608835  1
  S  S29  1  0.81343041  0.55303982  0.54059414  1
  S  S30  1  0.43328853  0.48114096  0.80277190  1
  S  S31  1  0.56447743  0.51145015  0.19551318  1
  S  S32  1  0.91559859  0.52826082  0.98996602  1
  S  S33  1  0.08586763  0.47609456  0.02116204  1
  S  S34  1  0.66609909  0.54450229  0.89491318  1
  S  S35  1  0.32912796  0.46611237  0.10171768  1
  S  S36  1  0.60554344  0.02028646  0.65704637  1
  S  S37  1  0.39422177  0.03863622  0.32904112  1
  S  S38  1  0.24035414  0.52413563  0.33142025  1
  S  S39  1  0.76001937  0.48896422  0.68795199  1
  S  S40  1  0.66500833  0.02335646  0.44398689  1
  S  S41  1  0.33384343  0.91337064  0.55418112  1
