# generated using pymatgen
data_Pr2Mn3(SbS3)4
_symmetry_space_group_name_H-M   'P 1'
_cell_length_a   20.02960800
_cell_length_b   3.90410600
_cell_length_c   14.95364829
_cell_angle_alpha   90.00000000
_cell_angle_beta   126.33350609
_cell_angle_gamma   90.00000000
_symmetry_Int_Tables_number   1
_chemical_formula_structural   Pr2Mn3(SbS3)4
_chemical_formula_sum   'Pr4 Mn6 Sb8 S24'
_cell_volume   942.00006694
_cell_formula_units_Z   2
loop_
 _symmetry_equiv_pos_site_id
 _symmetry_equiv_pos_as_xyz
  1  'x, y, z'
loop_
 _atom_site_type_symbol
 _atom_site_label
 _atom_site_symmetry_multiplicity
 _atom_site_fract_x
 _atom_site_fract_y
 _atom_site_fract_z
 _atom_site_occupancy
  Pr  Pr0  1  0.27567666  0.48357868  0.87043924  1
  Pr  Pr1  1  0.73207809  0.51332111  0.14324208  1
  Pr  Pr2  1  0.77280378  0.04724617  0.88232796  1
  Pr  Pr3  1  0.23428616  0.90959550  0.12753479  1
  Mn  Mn4  1  0.29350454  0.43060767  0.60147246  1
  Mn  Mn5  1  0.69303107  0.48749448  0.36091606  1
  Mn  Mn6  1  0.00681350  0.00867134  0.01885697  1
  Mn  Mn7  1  0.79952547  0.99832313  0.64401997  1
  Mn  Mn8  1  0.21199297  0.06700851  0.39146531  1
  Mn  Mn9  1  0.48962914  0.46152596  0.98706686  1
  Sb  Sb10  1  0.88129316  0.86698114  0.45567580  1
  Sb  Sb11  1  0.11429379  0.98326637  0.54139262  1
  Sb  Sb12  1  0.03613224  0.47933547  0.82325708  1
  Sb  Sb13  1  0.96080361  0.47449262  0.19403847  1
  Sb  Sb14  1  0.41427695  0.54641494  0.46170931  1
  Sb  Sb15  1  0.60872038  0.57671088  0.53683336  1
  Sb  Sb16  1  0.53420575  0.93797824  0.80423156  1
  Sb  Sb17  1  0.46471420  0.98572997  0.17688263  1
  S  S18  1  0.94210738  0.99015682  0.81216307  1
  S  S19  1  0.06183094  0.02523660  0.20513225  1
  S  S20  1  0.41782924  0.96608420  0.98011774  1
  S  S21  1  0.58374331  0.04705464  0.00772591  1
  S  S22  1  0.16497937  0.97446225  0.87532895  1
  S  S23  1  0.82866462  0.00478099  0.10299069  1
  S  S24  1  0.10436954  0.46443364  0.64433501  1
  S  S25  1  0.90243300  0.43304211  0.35930658  1
  S  S26  1  0.72924574  0.99236750  0.29568426  1
  S  S27  1  0.26670032  0.90223573  0.68182521  1
  S  S28  1  0.16136249  0.44285429  0.44668572  1
  S  S29  1  0.81338549  0.55331023  0.54066196  1
  S  S30  1  0.43335629  0.48080644  0.80305190  1
  S  S31  1  0.56452615  0.51171906  0.19551258  1
  S  S32  1  0.91585543  0.52898721  0.99003343  1
  S  S33  1  0.08589433  0.47597167  0.02135347  1
  S  S34  1  0.66582330  0.54465769  0.89492159  1
  S  S35  1  0.32900127  0.46691417  0.10143666  1
  S  S36  1  0.60529557  0.01925700  0.65664306  1
  S  S37  1  0.39426724  0.03753586  0.32917125  1
  S  S38  1  0.24040775  0.52377331  0.33146764  1
  S  S39  1  0.76024802  0.48822159  0.68806476  1
  S  S40  1  0.66470306  0.02386770  0.44399709  1
  S  S41  1  0.33381818  0.91385084  0.55440212  1
