# generated using pymatgen
data_Pr2Mn3(SbS3)4
_symmetry_space_group_name_H-M   'P 1'
_cell_length_a   20.02960800
_cell_length_b   3.90410600
_cell_length_c   14.95364829
_cell_angle_alpha   90.00000000
_cell_angle_beta   126.33350609
_cell_angle_gamma   90.00000000
_symmetry_Int_Tables_number   1
_chemical_formula_structural   Pr2Mn3(SbS3)4
_chemical_formula_sum   'Pr4 Mn6 Sb8 S24'
_cell_volume   942.00006694
_cell_formula_units_Z   2
loop_
 _symmetry_equiv_pos_site_id
 _symmetry_equiv_pos_as_xyz
  1  'x, y, z'
loop_
 _atom_site_type_symbol
 _atom_site_label
 _atom_site_symmetry_multiplicity
 _atom_site_fract_x
 _atom_site_fract_y
 _atom_site_fract_z
 _atom_site_occupancy
  Pr  Pr0  1  0.27573213  0.48383231  0.87034855  1
  Pr  Pr1  1  0.73221402  0.51311654  0.14332546  1
  Pr  Pr2  1  0.77282756  0.04708644  0.88239795  1
  Pr  Pr3  1  0.23435759  0.90942092  0.12762582  1
  Mn  Mn4  1  0.29350993  0.43079407  0.60171588  1
  Mn  Mn5  1  0.69294279  0.48803236  0.36081182  1
  Mn  Mn6  1  0.00695590  0.00928938  0.01892825  1
  Mn  Mn7  1  0.79952838  0.99837987  0.64398140  1
  Mn  Mn8  1  0.21207912  0.06763385  0.39164801  1
  Mn  Mn9  1  0.48944873  0.46230195  0.98693672  1
  Sb  Sb10  1  0.88138008  0.86716083  0.45570634  1
  Sb  Sb11  1  0.11424067  0.98305662  0.54150493  1
  Sb  Sb12  1  0.03621168  0.47884899  0.82324373  1
  Sb  Sb13  1  0.96066494  0.47472920  0.19380741  1
  Sb  Sb14  1  0.41432520  0.54669081  0.46174414  1
  Sb  Sb15  1  0.60877308  0.57636726  0.53691223  1
  Sb  Sb16  1  0.53413953  0.93786443  0.80424739  1
  Sb  Sb17  1  0.46469887  0.98571649  0.17701297  1
  S  S18  1  0.94192359  0.98990503  0.81181370  1
  S  S19  1  0.06170699  0.02585048  0.20511419  1
  S  S20  1  0.41785587  0.96565155  0.98010913  1
  S  S21  1  0.58373938  0.04791893  0.00784516  1
  S  S22  1  0.16510024  0.97514543  0.87567967  1
  S  S23  1  0.82847748  0.00582358  0.10285333  1
  S  S24  1  0.10430135  0.46524615  0.64439061  1
  S  S25  1  0.90243497  0.43329793  0.35932319  1
  S  S26  1  0.72981687  0.99170581  0.29616634  1
  S  S27  1  0.26675111  0.90222463  0.68201869  1
  S  S28  1  0.16175290  0.44386382  0.44723231  1
  S  S29  1  0.81330928  0.55338068  0.54067585  1
  S  S30  1  0.43346186  0.48079933  0.80342426  1
  S  S31  1  0.56442640  0.51174360  0.19532936  1
  S  S32  1  0.91604685  0.52936162  0.99002649  1
  S  S33  1  0.08588572  0.47589558  0.02143912  1
  S  S34  1  0.66548442  0.54484689  0.89478127  1
  S  S35  1  0.32891604  0.46767057  0.10121700  1
  S  S36  1  0.60500499  0.01786206  0.65620541  1
  S  S37  1  0.39448496  0.03607746  0.32931191  1
  S  S38  1  0.24054530  0.52301847  0.33152792  1
  S  S39  1  0.76050364  0.48722613  0.68820261  1
  S  S40  1  0.66446747  0.02465885  0.44399141  1
  S  S41  1  0.33387124  0.91405877  0.55469091  1
