# generated using pymatgen
data_Pr2Mn3(SbS3)4
_symmetry_space_group_name_H-M   'P 1'
_cell_length_a   20.02960800
_cell_length_b   3.90410600
_cell_length_c   14.95364829
_cell_angle_alpha   90.00000000
_cell_angle_beta   126.33350609
_cell_angle_gamma   90.00000000
_symmetry_Int_Tables_number   1
_chemical_formula_structural   Pr2Mn3(SbS3)4
_chemical_formula_sum   'Pr4 Mn6 Sb8 S24'
_cell_volume   942.00006694
_cell_formula_units_Z   2
loop_
 _symmetry_equiv_pos_site_id
 _symmetry_equiv_pos_as_xyz
  1  'x, y, z'
loop_
 _atom_site_type_symbol
 _atom_site_label
 _atom_site_symmetry_multiplicity
 _atom_site_fract_x
 _atom_site_fract_y
 _atom_site_fract_z
 _atom_site_occupancy
  Pr  Pr0  1  0.26469791  0.47064342  0.86698781  1
  Pr  Pr1  1  0.73617080  0.52360496  0.13681181  1
  Pr  Pr2  1  0.76487074  0.01203858  0.86455931  1
  Pr  Pr3  1  0.23784885  0.00680314  0.13797980  1
  Mn  Mn4  1  0.29434442  0.48493581  0.60221696  1
  Mn  Mn5  1  0.69238507  0.51375269  0.38112124  1
  Mn  Mn6  1  0.00912637  0.99757931  0.01424464  1
  Mn  Mn7  1  0.80475602  0.01142875  0.61468034  1
  Mn  Mn8  1  0.19680260  0.97282356  0.37799687  1
  Mn  Mn9  1  0.49586489  0.45358058  0.98958107  1
  Sb  Sb10  1  0.88985610  0.98780054  0.45110164  1
  Sb  Sb11  1  0.11136656  0.97186204  0.54893501  1
  Sb  Sb12  1  0.03865047  0.51912745  0.81733431  1
  Sb  Sb13  1  0.96531765  0.50909642  0.18640123  1
  Sb  Sb14  1  0.39540795  0.51437321  0.45541022  1
  Sb  Sb15  1  0.60635966  0.47601698  0.54703704  1
  Sb  Sb16  1  0.53523555  0.00682238  0.81115700  1
  Sb  Sb17  1  0.46025504  0.01484349  0.18123977  1
  S  S18  1  0.93295289  0.99062955  0.80290585  1
  S  S19  1  0.06711299  0.98386760  0.18791190  1
  S  S20  1  0.40984764  0.99706150  0.98064032  1
  S  S21  1  0.59097589  0.99452571  0.01997104  1
  S  S22  1  0.16930317  0.00462733  0.89594663  1
  S  S23  1  0.82417252  0.01466971  0.09590744  1
  S  S24  1  0.08846021  0.48381177  0.64222714  1
  S  S25  1  0.90810912  0.46520975  0.35400621  1
  S  S26  1  0.73978256  0.95723954  0.29662952  1
  S  S27  1  0.26025259  0.00186874  0.70756026  1
  S  S28  1  0.16761066  0.47231343  0.43937866  1
  S  S29  1  0.82916724  0.48986516  0.54736526  1
  S  S30  1  0.43334064  0.50098468  0.79448280  1
  S  S31  1  0.56247441  0.50809013  0.18167247  1
  S  S32  1  0.91448694  0.51188543  0.99151186  1
  S  S33  1  0.08335609  0.48723929  0.01390666  1
  S  S34  1  0.66736171  0.49879759  0.88980863  1
  S  S35  1  0.32785159  0.51135133  0.09152424  1
  S  S36  1  0.59746550  0.99663210  0.66152194  1
  S  S37  1  0.40597763  0.97353839  0.34692920  1
  S  S38  1  0.24666082  0.44243274  0.31250865  1
  S  S39  1  0.76589550  0.50138871  0.70419584  1
  S  S40  1  0.67160139  0.03289076  0.45407257  1
  S  S41  1  0.32375251  0.96621729  0.54402006  1
