# generated using pymatgen
data_Pr2Mn3(SbS3)4
_symmetry_space_group_name_H-M   'P 1'
_cell_length_a   20.02960800
_cell_length_b   3.90410600
_cell_length_c   14.95364829
_cell_angle_alpha   90.00000000
_cell_angle_beta   126.33350609
_cell_angle_gamma   90.00000000
_symmetry_Int_Tables_number   1
_chemical_formula_structural   Pr2Mn3(SbS3)4
_chemical_formula_sum   'Pr4 Mn6 Sb8 S24'
_cell_volume   942.00006694
_cell_formula_units_Z   2
loop_
 _symmetry_equiv_pos_site_id
 _symmetry_equiv_pos_as_xyz
  1  'x, y, z'
loop_
 _atom_site_type_symbol
 _atom_site_label
 _atom_site_symmetry_multiplicity
 _atom_site_fract_x
 _atom_site_fract_y
 _atom_site_fract_z
 _atom_site_occupancy
  Pr  Pr0  1  0.27582029  0.48399796  0.87030608  1
  Pr  Pr1  1  0.73234191  0.51319133  0.14339514  1
  Pr  Pr2  1  0.77284226  0.04688620  0.88242639  1
  Pr  Pr3  1  0.23442146  0.90928157  0.12765596  1
  Mn  Mn4  1  0.29346350  0.43081887  0.60185205  1
  Mn  Mn5  1  0.69284764  0.48887412  0.36075651  1
  Mn  Mn6  1  0.00710393  0.00960024  0.01890634  1
  Mn  Mn7  1  0.79959743  0.99857677  0.64400998  1
  Mn  Mn8  1  0.21200117  0.06814070  0.39162732  1
  Mn  Mn9  1  0.48929829  0.46314127  0.98679720  1
  Sb  Sb10  1  0.88146069  0.86756524  0.45574158  1
  Sb  Sb11  1  0.11418777  0.98308173  0.54157124  1
  Sb  Sb12  1  0.03619528  0.47839807  0.82317404  1
  Sb  Sb13  1  0.96053627  0.47476731  0.19355899  1
  Sb  Sb14  1  0.41436397  0.54684285  0.46182659  1
  Sb  Sb15  1  0.60876456  0.57599982  0.53701749  1
  Sb  Sb16  1  0.53402131  0.93805812  0.80417717  1
  Sb  Sb17  1  0.46464990  0.98579483  0.17711755  1
  S  S18  1  0.94169261  0.99010958  0.81139087  1
  S  S19  1  0.06164272  0.02624368  0.20510382  1
  S  S20  1  0.41783792  0.96533053  0.98014334  1
  S  S21  1  0.58365958  0.04835500  0.00794293  1
  S  S22  1  0.16526969  0.97575715  0.87607111  1
  S  S23  1  0.82813620  0.00673712  0.10265347  1
  S  S24  1  0.10424549  0.46621710  0.64439932  1
  S  S25  1  0.90233761  0.43334527  0.35926989  1
  S  S26  1  0.73030110  0.99137651  0.29667445  1
  S  S27  1  0.26681800  0.90206864  0.68214771  1
  S  S28  1  0.16216409  0.44483554  0.44786847  1
  S  S29  1  0.81326537  0.55308846  0.54062332  1
  S  S30  1  0.43350434  0.48105499  0.80389000  1
  S  S31  1  0.56426226  0.51167473  0.19515197  1
  S  S32  1  0.91614853  0.52940430  0.98995914  1
  S  S33  1  0.08588043  0.47602930  0.02159052  1
  S  S34  1  0.66505625  0.54484162  0.89464863  1
  S  S35  1  0.32894939  0.46811181  0.10123172  1
  S  S36  1  0.60470667  0.01632990  0.65570582  1
  S  S37  1  0.39457637  0.03484362  0.32939668  1
  S  S38  1  0.24073883  0.52240646  0.33161761  1
  S  S39  1  0.76079574  0.48642406  0.68839422  1
  S  S40  1  0.66427192  0.02502500  0.44392610  1
  S  S41  1  0.33381809  0.91442739  0.55490764  1
