# generated using pymatgen
data_Pr2Mn3(SbS3)4
_symmetry_space_group_name_H-M   'P 1'
_cell_length_a   20.02960800
_cell_length_b   3.90410600
_cell_length_c   14.95364829
_cell_angle_alpha   90.00000000
_cell_angle_beta   126.33350609
_cell_angle_gamma   90.00000000
_symmetry_Int_Tables_number   1
_chemical_formula_structural   Pr2Mn3(SbS3)4
_chemical_formula_sum   'Pr4 Mn6 Sb8 S24'
_cell_volume   942.00006694
_cell_formula_units_Z   2
loop_
 _symmetry_equiv_pos_site_id
 _symmetry_equiv_pos_as_xyz
  1  'x, y, z'
loop_
 _atom_site_type_symbol
 _atom_site_label
 _atom_site_symmetry_multiplicity
 _atom_site_fract_x
 _atom_site_fract_y
 _atom_site_fract_z
 _atom_site_occupancy
  Pr  Pr0  1  0.27587858  0.48399194  0.87025452  1
  Pr  Pr1  1  0.73247443  0.51345540  0.14345856  1
  Pr  Pr2  1  0.77288954  0.04638965  0.88248042  1
  Pr  Pr3  1  0.23450921  0.90873927  0.12774927  1
  Mn  Mn4  1  0.29338968  0.43070396  0.60196198  1
  Mn  Mn5  1  0.69272291  0.48938298  0.36060545  1
  Mn  Mn6  1  0.00724536  0.01024216  0.01890294  1
  Mn  Mn7  1  0.79961878  0.99890354  0.64400255  1
  Mn  Mn8  1  0.21197522  0.06828366  0.39173251  1
  Mn  Mn9  1  0.48910200  0.46394319  0.98667526  1
  Sb  Sb10  1  0.88154376  0.86789290  0.45583573  1
  Sb  Sb11  1  0.11413301  0.98305030  0.54163220  1
  Sb  Sb12  1  0.03620293  0.47805873  0.82313322  1
  Sb  Sb13  1  0.96047918  0.47468078  0.19336667  1
  Sb  Sb14  1  0.41441567  0.54704097  0.46189452  1
  Sb  Sb15  1  0.60870201  0.57570375  0.53709589  1
  Sb  Sb16  1  0.53383498  0.93835533  0.80406064  1
  Sb  Sb17  1  0.46461727  0.98579075  0.17721151  1
  S  S18  1  0.94158083  0.99060223  0.81098429  1
  S  S19  1  0.06155999  0.02681808  0.20496976  1
  S  S20  1  0.41780661  0.96479981  0.98011414  1
  S  S21  1  0.58361344  0.04849290  0.00812394  1
  S  S22  1  0.16528424  0.97679600  0.87638701  1
  S  S23  1  0.82781660  0.00769032  0.10254861  1
  S  S24  1  0.10429830  0.46756229  0.64433294  1
  S  S25  1  0.90216088  0.43335294  0.35915915  1
  S  S26  1  0.73063051  0.99110333  0.29704730  1
  S  S27  1  0.26668586  0.90217146  0.68206826  1
  S  S28  1  0.16261217  0.44633472  0.44855141  1
  S  S29  1  0.81326379  0.55260295  0.54054521  1
  S  S30  1  0.43352457  0.48084997  0.80421405  1
  S  S31  1  0.56405757  0.51207954  0.19483134  1
  S  S32  1  0.91639824  0.52952069  0.99002115  1
  S  S33  1  0.08583968  0.47588548  0.02162232  1
  S  S34  1  0.66464714  0.54481136  0.89439304  1
  S  S35  1  0.32892539  0.46807813  0.10133212  1
  S  S36  1  0.60439362  0.01549579  0.65526464  1
  S  S37  1  0.39471774  0.03315195  0.32946685  1
  S  S38  1  0.24100841  0.52156775  0.33190075  1
  S  S39  1  0.76105623  0.48598008  0.68864834  1
  S  S40  1  0.66411635  0.02548290  0.44377584  1
  S  S41  1  0.33370805  0.91509797  0.55498802  1
