# generated using pymatgen
data_Pr2Mn3(SbS3)4
_symmetry_space_group_name_H-M   'P 1'
_cell_length_a   20.02960800
_cell_length_b   3.90410600
_cell_length_c   14.95364829
_cell_angle_alpha   90.00000000
_cell_angle_beta   126.33350609
_cell_angle_gamma   90.00000000
_symmetry_Int_Tables_number   1
_chemical_formula_structural   Pr2Mn3(SbS3)4
_chemical_formula_sum   'Pr4 Mn6 Sb8 S24'
_cell_volume   942.00006694
_cell_formula_units_Z   2
loop_
 _symmetry_equiv_pos_site_id
 _symmetry_equiv_pos_as_xyz
  1  'x, y, z'
loop_
 _atom_site_type_symbol
 _atom_site_label
 _atom_site_symmetry_multiplicity
 _atom_site_fract_x
 _atom_site_fract_y
 _atom_site_fract_z
 _atom_site_occupancy
  Pr  Pr0  1  0.27592869  0.48375057  0.87021413  1
  Pr  Pr1  1  0.73260650  0.51365897  0.14349502  1
  Pr  Pr2  1  0.77292399  0.04615629  0.88246421  1
  Pr  Pr3  1  0.23458670  0.90849623  0.12785142  1
  Mn  Mn4  1  0.29336395  0.43044001  0.60210651  1
  Mn  Mn5  1  0.69260140  0.48982488  0.36049397  1
  Mn  Mn6  1  0.00730917  0.01034441  0.01889288  1
  Mn  Mn7  1  0.79968509  0.99917880  0.64389266  1
  Mn  Mn8  1  0.21193427  0.06834254  0.39179322  1
  Mn  Mn9  1  0.48894381  0.46469127  0.98666620  1
  Sb  Sb10  1  0.88159657  0.86808860  0.45599103  1
  Sb  Sb11  1  0.11405111  0.98277509  0.54163732  1
  Sb  Sb12  1  0.03622082  0.47767392  0.82302162  1
  Sb  Sb13  1  0.96042019  0.47461904  0.19318651  1
  Sb  Sb14  1  0.41443590  0.54711701  0.46190920  1
  Sb  Sb15  1  0.60859723  0.57553065  0.53716018  1
  Sb  Sb16  1  0.53362188  0.93867600  0.80387672  1
  Sb  Sb17  1  0.46458132  0.98581033  0.17737351  1
  S  S18  1  0.94137774  0.99058409  0.81065862  1
  S  S19  1  0.06140887  0.02732447  0.20462644  1
  S  S20  1  0.41772828  0.96461887  0.98001915  1
  S  S21  1  0.58350548  0.04849557  0.00830937  1
  S  S22  1  0.16523449  0.97790899  0.87657915  1
  S  S23  1  0.82761687  0.00853316  0.10253304  1
  S  S24  1  0.10433729  0.46863612  0.64418240  1
  S  S25  1  0.90203592  0.43323784  0.35894086  1
  S  S26  1  0.73099525  0.99076719  0.29754212  1
  S  S27  1  0.26649343  0.90185184  0.68179322  1
  S  S28  1  0.16297110  0.44719334  0.44921724  1
  S  S29  1  0.81327021  0.55245665  0.54056148  1
  S  S30  1  0.43358957  0.48039697  0.80452460  1
  S  S31  1  0.56389510  0.51243153  0.19452329  1
  S  S32  1  0.91665206  0.52976919  0.99012506  1
  S  S33  1  0.08581914  0.47567204  0.02154543  1
  S  S34  1  0.66431642  0.54473502  0.89424245  1
  S  S35  1  0.32886389  0.46805287  0.10145802  1
  S  S36  1  0.60405281  0.01431518  0.65484925  1
  S  S37  1  0.39470824  0.03177965  0.32948879  1
  S  S38  1  0.24140001  0.52107259  0.33215506  1
  S  S39  1  0.76138258  0.48586615  0.68886356  1
  S  S40  1  0.66389203  0.02573908  0.44358002  1
  S  S41  1  0.33358785  0.91561455  0.55510303  1
