# generated using pymatgen
data_Pr2Mn3(SbS3)4
_symmetry_space_group_name_H-M   'P 1'
_cell_length_a   20.02960800
_cell_length_b   3.90410600
_cell_length_c   14.95364829
_cell_angle_alpha   90.00000000
_cell_angle_beta   126.33350609
_cell_angle_gamma   90.00000000
_symmetry_Int_Tables_number   1
_chemical_formula_structural   Pr2Mn3(SbS3)4
_chemical_formula_sum   'Pr4 Mn6 Sb8 S24'
_cell_volume   942.00006694
_cell_formula_units_Z   2
loop_
 _symmetry_equiv_pos_site_id
 _symmetry_equiv_pos_as_xyz
  1  'x, y, z'
loop_
 _atom_site_type_symbol
 _atom_site_label
 _atom_site_symmetry_multiplicity
 _atom_site_fract_x
 _atom_site_fract_y
 _atom_site_fract_z
 _atom_site_occupancy
  Pr  Pr0  1  0.27590977  0.48334477  0.87014689  1
  Pr  Pr1  1  0.73272143  0.51359408  0.14349222  1
  Pr  Pr2  1  0.77290893  0.04600377  0.88237501  1
  Pr  Pr3  1  0.23456975  0.90808990  0.12787478  1
  Mn  Mn4  1  0.29332476  0.43025075  0.60227038  1
  Mn  Mn5  1  0.69242097  0.49023148  0.36033347  1
  Mn  Mn6  1  0.00731804  0.01062473  0.01884444  1
  Mn  Mn7  1  0.79970820  0.99951502  0.64373763  1
  Mn  Mn8  1  0.21191421  0.06857441  0.39186952  1
  Mn  Mn9  1  0.48888609  0.46499404  0.98669708  1
  Sb  Sb10  1  0.88165584  0.86807396  0.45617336  1
  Sb  Sb11  1  0.11398866  0.98280972  0.54168082  1
  Sb  Sb12  1  0.03627508  0.47727422  0.82298200  1
  Sb  Sb13  1  0.96042616  0.47457933  0.19312865  1
  Sb  Sb14  1  0.41443271  0.54738548  0.46186101  1
  Sb  Sb15  1  0.60846578  0.57528443  0.53720463  1
  Sb  Sb16  1  0.53341278  0.93905421  0.80370279  1
  Sb  Sb17  1  0.46456563  0.98595944  0.17759423  1
  S  S18  1  0.94118860  0.99097409  0.81032282  1
  S  S19  1  0.06127360  0.02707394  0.20420629  1
  S  S20  1  0.41757319  0.96407570  0.97968101  1
  S  S21  1  0.58345234  0.04825553  0.00855022  1
  S  S22  1  0.16516303  0.97903462  0.87681614  1
  S  S23  1  0.82748622  0.00924612  0.10254858  1
  S  S24  1  0.10433287  0.46894265  0.64405104  1
  S  S25  1  0.90200271  0.43292072  0.35868337  1
  S  S26  1  0.73143826  0.99060533  0.29811667  1
  S  S27  1  0.26637556  0.90157504  0.68157839  1
  S  S28  1  0.16319160  0.44780426  0.44984585  1
  S  S29  1  0.81326438  0.55218035  0.54048888  1
  S  S30  1  0.43358683  0.47964076  0.80478144  1
  S  S31  1  0.56379355  0.51243102  0.19417433  1
  S  S32  1  0.91675243  0.52945490  0.99025162  1
  S  S33  1  0.08577328  0.47524778  0.02140115  1
  S  S34  1  0.66402154  0.54494492  0.89413870  1
  S  S35  1  0.32886310  0.46786613  0.10145821  1
  S  S36  1  0.60369503  0.01332380  0.65438102  1
  S  S37  1  0.39476218  0.03037454  0.32967742  1
  S  S38  1  0.24163516  0.52055689  0.33231940  1
  S  S39  1  0.76171118  0.48556231  0.68918287  1
  S  S40  1  0.66365838  0.02573581  0.44324574  1
  S  S41  1  0.33345041  0.91628248  0.55509165  1
