# generated using pymatgen
data_Pr2Mn3(SbS3)4
_symmetry_space_group_name_H-M   'P 1'
_cell_length_a   20.02960800
_cell_length_b   3.90410600
_cell_length_c   14.95364829
_cell_angle_alpha   90.00000000
_cell_angle_beta   126.33350609
_cell_angle_gamma   90.00000000
_symmetry_Int_Tables_number   1
_chemical_formula_structural   Pr2Mn3(SbS3)4
_chemical_formula_sum   'Pr4 Mn6 Sb8 S24'
_cell_volume   942.00006694
_cell_formula_units_Z   2
loop_
 _symmetry_equiv_pos_site_id
 _symmetry_equiv_pos_as_xyz
  1  'x, y, z'
loop_
 _atom_site_type_symbol
 _atom_site_label
 _atom_site_symmetry_multiplicity
 _atom_site_fract_x
 _atom_site_fract_y
 _atom_site_fract_z
 _atom_site_occupancy
  Pr  Pr0  1  0.27591246  0.48301339  0.87005339  1
  Pr  Pr1  1  0.73283023  0.51370246  0.14353995  1
  Pr  Pr2  1  0.77292482  0.04586272  0.88231219  1
  Pr  Pr3  1  0.23459053  0.90783945  0.12793369  1
  Mn  Mn4  1  0.29330183  0.42977300  0.60242090  1
  Mn  Mn5  1  0.69226856  0.49086523  0.36020631  1
  Mn  Mn6  1  0.00734640  0.01089236  0.01888009  1
  Mn  Mn7  1  0.79969349  0.99972755  0.64365496  1
  Mn  Mn8  1  0.21191021  0.06861594  0.39197906  1
  Mn  Mn9  1  0.48872072  0.46494971  0.98671055  1
  Sb  Sb10  1  0.88175366  0.86807227  0.45640645  1
  Sb  Sb11  1  0.11400968  0.98311452  0.54182862  1
  Sb  Sb12  1  0.03636011  0.47693637  0.82301384  1
  Sb  Sb13  1  0.96045362  0.47461833  0.19311286  1
  Sb  Sb14  1  0.41442655  0.54743726  0.46178201  1
  Sb  Sb15  1  0.60826826  0.57517955  0.53712803  1
  Sb  Sb16  1  0.53325721  0.93971840  0.80356946  1
  Sb  Sb17  1  0.46450314  0.98622069  0.17785995  1
  S  S18  1  0.94099013  0.99109994  0.81009238  1
  S  S19  1  0.06125681  0.02688560  0.20388540  1
  S  S20  1  0.41743401  0.96317292  0.97928226  1
  S  S21  1  0.58341611  0.04770292  0.00871993  1
  S  S22  1  0.16526886  0.98001138  0.87731013  1
  S  S23  1  0.82734846  0.01037046  0.10251439  1
  S  S24  1  0.10438292  0.46938006  0.64392588  1
  S  S25  1  0.90200679  0.43298485  0.35858336  1
  S  S26  1  0.73182621  0.99116005  0.29853723  1
  S  S27  1  0.26618906  0.90170107  0.68125339  1
  S  S28  1  0.16344270  0.44862140  0.45037306  1
  S  S29  1  0.81334965  0.55152275  0.54038917  1
  S  S30  1  0.43353594  0.47871624  0.80485634  1
  S  S31  1  0.56364060  0.51289214  0.19396354  1
  S  S32  1  0.91681143  0.52908566  0.99040341  1
  S  S33  1  0.08561104  0.47453304  0.02127348  1
  S  S34  1  0.66380241  0.54496322  0.89415684  1
  S  S35  1  0.32871301  0.46809904  0.10134139  1
  S  S36  1  0.60342626  0.01221053  0.65396734  1
  S  S37  1  0.39490246  0.02901585  0.33000733  1
  S  S38  1  0.24181214  0.51974743  0.33253367  1
  S  S39  1  0.76210090  0.48523885  0.68963623  1
  S  S40  1  0.66339364  0.02619408  0.44278758  1
  S  S41  1  0.33336799  0.91640162  0.55497184  1
