# generated using pymatgen
data_Pr2Mn3(SbS3)4
_symmetry_space_group_name_H-M   'P 1'
_cell_length_a   20.02960800
_cell_length_b   3.90410600
_cell_length_c   14.95364829
_cell_angle_alpha   90.00000000
_cell_angle_beta   126.33350609
_cell_angle_gamma   90.00000000
_symmetry_Int_Tables_number   1
_chemical_formula_structural   Pr2Mn3(SbS3)4
_chemical_formula_sum   'Pr4 Mn6 Sb8 S24'
_cell_volume   942.00006694
_cell_formula_units_Z   2
loop_
 _symmetry_equiv_pos_site_id
 _symmetry_equiv_pos_as_xyz
  1  'x, y, z'
loop_
 _atom_site_type_symbol
 _atom_site_label
 _atom_site_symmetry_multiplicity
 _atom_site_fract_x
 _atom_site_fract_y
 _atom_site_fract_z
 _atom_site_occupancy
  Pr  Pr0  1  0.27595206  0.48259982  0.87008945  1
  Pr  Pr1  1  0.73289878  0.51395648  0.14350722  1
  Pr  Pr2  1  0.77295403  0.04579529  0.88231151  1
  Pr  Pr3  1  0.23461931  0.90790593  0.12801897  1
  Mn  Mn4  1  0.29331408  0.42918565  0.60254045  1
  Mn  Mn5  1  0.69218301  0.49135118  0.36016320  1
  Mn  Mn6  1  0.00732733  0.01101096  0.01883404  1
  Mn  Mn7  1  0.79971996  0.00001634  0.64359468  1
  Mn  Mn8  1  0.21181447  0.06877683  0.39202207  1
  Mn  Mn9  1  0.48860125  0.46473441  0.98678278  1
  Sb  Sb10  1  0.88188190  0.86801820  0.45665670  1
  Sb  Sb11  1  0.11398192  0.98346898  0.54197792  1
  Sb  Sb12  1  0.03640169  0.47674537  0.82305949  1
  Sb  Sb13  1  0.96041403  0.47464303  0.19306566  1
  Sb  Sb14  1  0.41437422  0.54777266  0.46163546  1
  Sb  Sb15  1  0.60811333  0.57535083  0.53705244  1
  Sb  Sb16  1  0.53312528  0.94037064  0.80343932  1
  Sb  Sb17  1  0.46441840  0.98678959  0.17807265  1
  S  S18  1  0.94079283  0.99101692  0.81004787  1
  S  S19  1  0.06124182  0.02677194  0.20362739  1
  S  S20  1  0.41733661  0.96268807  0.97897604  1
  S  S21  1  0.58342145  0.04738228  0.00880714  1
  S  S22  1  0.16540766  0.98108242  0.87789683  1
  S  S23  1  0.82715612  0.01200846  0.10251458  1
  S  S24  1  0.10441529  0.46938815  0.64369780  1
  S  S25  1  0.90192170  0.43308877  0.35848097  1
  S  S26  1  0.73227320  0.99201666  0.29902690  1
  S  S27  1  0.26593181  0.90187190  0.68093072  1
  S  S28  1  0.16368149  0.44968472  0.45085341  1
  S  S29  1  0.81348665  0.55055286  0.54043148  1
  S  S30  1  0.43354720  0.47735762  0.80507598  1
  S  S31  1  0.56330465  0.51313255  0.19371858  1
  S  S32  1  0.91693884  0.52872435  0.99073147  1
  S  S33  1  0.08552753  0.47403306  0.02118811  1
  S  S34  1  0.66351284  0.54459540  0.89433412  1
  S  S35  1  0.32854791  0.46829672  0.10123412  1
  S  S36  1  0.60318452  0.01157659  0.65348029  1
  S  S37  1  0.39507207  0.02757739  0.33036297  1
  S  S38  1  0.24200686  0.51870123  0.33260443  1
  S  S39  1  0.76238219  0.48519589  0.68995351  1
  S  S40  1  0.66316884  0.02682556  0.44253602  1
  S  S41  1  0.33336603  0.91653648  0.55501179  1
