# generated using pymatgen
data_Pr2Mn3(SbS3)4
_symmetry_space_group_name_H-M   'P 1'
_cell_length_a   20.02960800
_cell_length_b   3.90410600
_cell_length_c   14.95364829
_cell_angle_alpha   90.00000000
_cell_angle_beta   126.33350609
_cell_angle_gamma   90.00000000
_symmetry_Int_Tables_number   1
_chemical_formula_structural   Pr2Mn3(SbS3)4
_chemical_formula_sum   'Pr4 Mn6 Sb8 S24'
_cell_volume   942.00006694
_cell_formula_units_Z   2
loop_
 _symmetry_equiv_pos_site_id
 _symmetry_equiv_pos_as_xyz
  1  'x, y, z'
loop_
 _atom_site_type_symbol
 _atom_site_label
 _atom_site_symmetry_multiplicity
 _atom_site_fract_x
 _atom_site_fract_y
 _atom_site_fract_z
 _atom_site_occupancy
  Pr  Pr0  1  0.27602595  0.48232304  0.87008863  1
  Pr  Pr1  1  0.73291737  0.51427090  0.14342846  1
  Pr  Pr2  1  0.77300280  0.04563475  0.88238827  1
  Pr  Pr3  1  0.23458806  0.90800383  0.12804805  1
  Mn  Mn4  1  0.29323543  0.42846130  0.60255771  1
  Mn  Mn5  1  0.69204041  0.49168964  0.36015806  1
  Mn  Mn6  1  0.00730165  0.01078150  0.01888719  1
  Mn  Mn7  1  0.79975363  0.00043077  0.64356361  1
  Mn  Mn8  1  0.21173359  0.06902948  0.39214376  1
  Mn  Mn9  1  0.48851761  0.46467342  0.98688099  1
  Sb  Sb10  1  0.88200415  0.86821875  0.45691604  1
  Sb  Sb11  1  0.11398351  0.98398583  0.54212157  1
  Sb  Sb12  1  0.03642242  0.47645589  0.82312022  1
  Sb  Sb13  1  0.96035812  0.47463775  0.19301252  1
  Sb  Sb14  1  0.41433417  0.54809681  0.46146115  1
  Sb  Sb15  1  0.60796796  0.57531231  0.53695794  1
  Sb  Sb16  1  0.53299073  0.94091959  0.80328568  1
  Sb  Sb17  1  0.46425324  0.98700956  0.17815942  1
  S  S18  1  0.94059793  0.99050645  0.81009469  1
  S  S19  1  0.06119675  0.02666384  0.20337760  1
  S  S20  1  0.41717630  0.96265020  0.97862112  1
  S  S21  1  0.58354067  0.04689455  0.00891604  1
  S  S22  1  0.16533029  0.98202724  0.87828961  1
  S  S23  1  0.82688758  0.01298058  0.10255264  1
  S  S24  1  0.10453319  0.47004678  0.64355591  1
  S  S25  1  0.90179883  0.43327576  0.35839437  1
  S  S26  1  0.73263116  0.99293833  0.29959036  1
  S  S27  1  0.26561971  0.90238679  0.68060260  1
  S  S28  1  0.16393078  0.45119350  0.45143405  1
  S  S29  1  0.81369034  0.54952679  0.54065256  1
  S  S30  1  0.43344580  0.47633846  0.80518038  1
  S  S31  1  0.56302079  0.51351749  0.19339498  1
  S  S32  1  0.91714053  0.52822639  0.99108246  1
  S  S33  1  0.08544347  0.47368160  0.02101099  1
  S  S34  1  0.66324371  0.54448224  0.89448975  1
  S  S35  1  0.32848061  0.46808246  0.10126993  1
  S  S36  1  0.60299771  0.01117449  0.65301060  1
  S  S37  1  0.39518235  0.02647910  0.33064535  1
  S  S38  1  0.24225049  0.51758176  0.33291915  1
  S  S39  1  0.76273494  0.48504401  0.69016774  1
  S  S40  1  0.66297250  0.02690428  0.44226129  1
  S  S41  1  0.33331746  0.91643802  0.55492920  1
