# generated using pymatgen
data_Pr2Mn3(SbS3)4
_symmetry_space_group_name_H-M   'P 1'
_cell_length_a   20.02960800
_cell_length_b   3.90410600
_cell_length_c   14.95364829
_cell_angle_alpha   90.00000000
_cell_angle_beta   126.33350609
_cell_angle_gamma   90.00000000
_symmetry_Int_Tables_number   1
_chemical_formula_structural   Pr2Mn3(SbS3)4
_chemical_formula_sum   'Pr4 Mn6 Sb8 S24'
_cell_volume   942.00006694
_cell_formula_units_Z   2
loop_
 _symmetry_equiv_pos_site_id
 _symmetry_equiv_pos_as_xyz
  1  'x, y, z'
loop_
 _atom_site_type_symbol
 _atom_site_label
 _atom_site_symmetry_multiplicity
 _atom_site_fract_x
 _atom_site_fract_y
 _atom_site_fract_z
 _atom_site_occupancy
  Pr  Pr0  1  0.27605114  0.48203106  0.86998174  1
  Pr  Pr1  1  0.73287039  0.51465044  0.14326757  1
  Pr  Pr2  1  0.77306979  0.04547893  0.88241400  1
  Pr  Pr3  1  0.23451987  0.90816695  0.12805064  1
  Mn  Mn4  1  0.29317008  0.42840191  0.60254837  1
  Mn  Mn5  1  0.69190193  0.49177356  0.36014263  1
  Mn  Mn6  1  0.00725773  0.01106264  0.01903035  1
  Mn  Mn7  1  0.79977348  0.00111297  0.64356666  1
  Mn  Mn8  1  0.21170203  0.06872288  0.39230757  1
  Mn  Mn9  1  0.48842547  0.46449907  0.98689558  1
  Sb  Sb10  1  0.88211356  0.86866245  0.45713743  1
  Sb  Sb11  1  0.11394654  0.98420019  0.54219782  1
  Sb  Sb12  1  0.03642625  0.47624367  0.82317154  1
  Sb  Sb13  1  0.96027686  0.47454768  0.19291484  1
  Sb  Sb14  1  0.41427716  0.54855781  0.46131518  1
  Sb  Sb15  1  0.60785840  0.57524500  0.53696413  1
  Sb  Sb16  1  0.53287853  0.94153316  0.80322418  1
  Sb  Sb17  1  0.46407540  0.98717854  0.17819078  1
  S  S18  1  0.94037552  0.98982380  0.81009004  1
  S  S19  1  0.06109933  0.02649954  0.20307525  1
  S  S20  1  0.41697039  0.96305638  0.97811645  1
  S  S21  1  0.58351109  0.04662782  0.00898100  1
  S  S22  1  0.16530439  0.98259566  0.87879761  1
  S  S23  1  0.82669158  0.01374585  0.10261144  1
  S  S24  1  0.10461429  0.47033506  0.64359704  1
  S  S25  1  0.90155986  0.43304554  0.35818023  1
  S  S26  1  0.73279001  0.99391643  0.30003769  1
  S  S27  1  0.26522417  0.90313404  0.68017678  1
  S  S28  1  0.16418148  0.45258442  0.45210227  1
  S  S29  1  0.81398125  0.54893133  0.54092885  1
  S  S30  1  0.43345600  0.47558336  0.80523413  1
  S  S31  1  0.56283045  0.51350109  0.19310345  1
  S  S32  1  0.91733607  0.52808217  0.99147818  1
  S  S33  1  0.08534050  0.47250949  0.02077994  1
  S  S34  1  0.66308701  0.54427728  0.89469386  1
  S  S35  1  0.32835012  0.46750749  0.10127944  1
  S  S36  1  0.60276719  0.01041655  0.65256291  1
  S  S37  1  0.39528443  0.02556870  0.33094711  1
  S  S38  1  0.24249135  0.51677772  0.33319567  1
  S  S39  1  0.76293021  0.48526806  0.69031648  1
  S  S40  1  0.66293630  0.02757410  0.44217345  1
  S  S41  1  0.33331191  0.91624009  0.55491993  1
