# generated using pymatgen
data_Pr2Mn3(SbS3)4
_symmetry_space_group_name_H-M   'P 1'
_cell_length_a   20.02960800
_cell_length_b   3.90410600
_cell_length_c   14.95364829
_cell_angle_alpha   90.00000000
_cell_angle_beta   126.33350609
_cell_angle_gamma   90.00000000
_symmetry_Int_Tables_number   1
_chemical_formula_structural   Pr2Mn3(SbS3)4
_chemical_formula_sum   'Pr4 Mn6 Sb8 S24'
_cell_volume   942.00006694
_cell_formula_units_Z   2
loop_
 _symmetry_equiv_pos_site_id
 _symmetry_equiv_pos_as_xyz
  1  'x, y, z'
loop_
 _atom_site_type_symbol
 _atom_site_label
 _atom_site_symmetry_multiplicity
 _atom_site_fract_x
 _atom_site_fract_y
 _atom_site_fract_z
 _atom_site_occupancy
  Pr  Pr0  1  0.27603557  0.48180492  0.86974249  1
  Pr  Pr1  1  0.73286539  0.51475444  0.14309636  1
  Pr  Pr2  1  0.77311306  0.04529817  0.88237616  1
  Pr  Pr3  1  0.23442918  0.90856528  0.12801435  1
  Mn  Mn4  1  0.29306197  0.42811021  0.60255070  1
  Mn  Mn5  1  0.69182224  0.49199317  0.36009789  1
  Mn  Mn6  1  0.00721371  0.01156594  0.01913729  1
  Mn  Mn7  1  0.79983611  0.00179864  0.64356307  1
  Mn  Mn8  1  0.21171796  0.06846333  0.39252881  1
  Mn  Mn9  1  0.48838926  0.46479174  0.98697148  1
  Sb  Sb10  1  0.88225587  0.86880086  0.45740255  1
  Sb  Sb11  1  0.11392284  0.98450356  0.54228083  1
  Sb  Sb12  1  0.03641847  0.47606844  0.82314400  1
  Sb  Sb13  1  0.96019702  0.47418094  0.19286928  1
  Sb  Sb14  1  0.41418404  0.54906549  0.46114021  1
  Sb  Sb15  1  0.60770880  0.57543389  0.53692625  1
  Sb  Sb16  1  0.53275609  0.94212867  0.80313920  1
  Sb  Sb17  1  0.46386668  0.98729946  0.17810347  1
  S  S18  1  0.94014137  0.98933696  0.81009512  1
  S  S19  1  0.06092385  0.02604450  0.20250913  1
  S  S20  1  0.41687397  0.96342004  0.97759052  1
  S  S21  1  0.58338518  0.04629526  0.00901898  1
  S  S22  1  0.16524609  0.98384734  0.87923678  1
  S  S23  1  0.82651319  0.01467628  0.10259770  1
  S  S24  1  0.10481390  0.47074958  0.64366796  1
  S  S25  1  0.90143396  0.43276503  0.35800564  1
  S  S26  1  0.73292792  0.99506785  0.30040791  1
  S  S27  1  0.26487787  0.90389119  0.67975129  1
  S  S28  1  0.16432069  0.45432397  0.45260579  1
  S  S29  1  0.81421029  0.54843866  0.54120243  1
  S  S30  1  0.43348579  0.47533396  0.80527173  1
  S  S31  1  0.56252671  0.51333064  0.19276056  1
  S  S32  1  0.91739345  0.52791038  0.99175891  1
  S  S33  1  0.08519203  0.47173987  0.02052818  1
  S  S34  1  0.66290319  0.54416872  0.89487944  1
  S  S35  1  0.32816407  0.46721173  0.10119596  1
  S  S36  1  0.60260246  0.01053008  0.65217424  1
  S  S37  1  0.39528173  0.02537571  0.33124021  1
  S  S38  1  0.24273866  0.51670807  0.33342288  1
  S  S39  1  0.76308191  0.48530157  0.69038549  1
  S  S40  1  0.66310304  0.02849963  0.44224724  1
  S  S41  1  0.33322013  0.91626056  0.55474445  1
