# generated using pymatgen
data_Pr2Mn3(SbS3)4
_symmetry_space_group_name_H-M   'P 1'
_cell_length_a   20.02960800
_cell_length_b   3.90410600
_cell_length_c   14.95364829
_cell_angle_alpha   90.00000000
_cell_angle_beta   126.33350609
_cell_angle_gamma   90.00000000
_symmetry_Int_Tables_number   1
_chemical_formula_structural   Pr2Mn3(SbS3)4
_chemical_formula_sum   'Pr4 Mn6 Sb8 S24'
_cell_volume   942.00006694
_cell_formula_units_Z   2
loop_
 _symmetry_equiv_pos_site_id
 _symmetry_equiv_pos_as_xyz
  1  'x, y, z'
loop_
 _atom_site_type_symbol
 _atom_site_label
 _atom_site_symmetry_multiplicity
 _atom_site_fract_x
 _atom_site_fract_y
 _atom_site_fract_z
 _atom_site_occupancy
  Pr  Pr0  1  0.27603812  0.48146911  0.86956190  1
  Pr  Pr1  1  0.73288755  0.51495524  0.14302015  1
  Pr  Pr2  1  0.77311577  0.04510493  0.88235070  1
  Pr  Pr3  1  0.23434280  0.90872127  0.12795704  1
  Mn  Mn4  1  0.29299547  0.42791106  0.60264254  1
  Mn  Mn5  1  0.69173756  0.49242082  0.36014736  1
  Mn  Mn6  1  0.00715577  0.01169241  0.01926122  1
  Mn  Mn7  1  0.79991509  0.00257360  0.64351109  1
  Mn  Mn8  1  0.21179312  0.06816458  0.39288985  1
  Mn  Mn9  1  0.48837556  0.46514378  0.98706442  1
  Sb  Sb10  1  0.88230201  0.86891865  0.45753160  1
  Sb  Sb11  1  0.11386879  0.98493906  0.54227441  1
  Sb  Sb12  1  0.03644872  0.47607373  0.82315207  1
  Sb  Sb13  1  0.96012337  0.47392903  0.19284433  1
  Sb  Sb14  1  0.41413376  0.54941905  0.46095264  1
  Sb  Sb15  1  0.60762900  0.57572738  0.53692822  1
  Sb  Sb16  1  0.53270359  0.94253459  0.80318465  1
  Sb  Sb17  1  0.46361412  0.98721853  0.17800895  1
  S  S18  1  0.93991455  0.98907849  0.80996128  1
  S  S19  1  0.06072473  0.02545392  0.20204621  1
  S  S20  1  0.41692494  0.96303351  0.97717486  1
  S  S21  1  0.58319551  0.04571168  0.00881681  1
  S  S22  1  0.16528549  0.98430286  0.87957416  1
  S  S23  1  0.82649596  0.01538084  0.10281867  1
  S  S24  1  0.10500250  0.47153757  0.64359958  1
  S  S25  1  0.90142038  0.43262933  0.35793983  1
  S  S26  1  0.73317570  0.99559499  0.30091668  1
  S  S27  1  0.26453205  0.90477018  0.67930578  1
  S  S28  1  0.16442912  0.45615677  0.45302316  1
  S  S29  1  0.81437654  0.54797957  0.54150310  1
  S  S30  1  0.43366208  0.47539817  0.80527760  1
  S  S31  1  0.56213705  0.51253855  0.19228702  1
  S  S32  1  0.91763363  0.52738103  0.99219886  1
  S  S33  1  0.08509269  0.47080118  0.02036186  1
  S  S34  1  0.66275166  0.54362420  0.89493258  1
  S  S35  1  0.32794837  0.46712445  0.10115274  1
  S  S36  1  0.60241877  0.01022903  0.65178250  1
  S  S37  1  0.39536275  0.02521205  0.33171220  1
  S  S38  1  0.24295927  0.51664805  0.33360941  1
  S  S39  1  0.76315000  0.48527589  0.69048222  1
  S  S40  1  0.66326696  0.02963184  0.44234029  1
  S  S41  1  0.33307151  0.91611096  0.55452225  1
