# generated using pymatgen
data_Pr2Mn3(SbS3)4
_symmetry_space_group_name_H-M   'P 1'
_cell_length_a   20.02960800
_cell_length_b   3.90410600
_cell_length_c   14.95364829
_cell_angle_alpha   90.00000000
_cell_angle_beta   126.33350609
_cell_angle_gamma   90.00000000
_symmetry_Int_Tables_number   1
_chemical_formula_structural   Pr2Mn3(SbS3)4
_chemical_formula_sum   'Pr4 Mn6 Sb8 S24'
_cell_volume   942.00006694
_cell_formula_units_Z   2
loop_
 _symmetry_equiv_pos_site_id
 _symmetry_equiv_pos_as_xyz
  1  'x, y, z'
loop_
 _atom_site_type_symbol
 _atom_site_label
 _atom_site_symmetry_multiplicity
 _atom_site_fract_x
 _atom_site_fract_y
 _atom_site_fract_z
 _atom_site_occupancy
  Pr  Pr0  1  0.26134622  0.49868731  0.86423415  1
  Pr  Pr1  1  0.74008455  0.49907205  0.13698687  1
  Pr  Pr2  1  0.76032086  0.00473808  0.86238192  1
  Pr  Pr3  1  0.24031397  0.99277095  0.13780899  1
  Mn  Mn4  1  0.30004451  0.50618644  0.62057015  1
  Mn  Mn5  1  0.69783678  0.50077938  0.37910130  1
  Mn  Mn6  1  0.00020994  0.99695712  0.00055664  1
  Mn  Mn7  1  0.80168402  0.99611870  0.61985326  1
  Mn  Mn8  1  0.19891550  0.99580924  0.37902102  1
  Mn  Mn9  1  0.49979973  0.48981159  0.00091265  1
  Sb  Sb10  1  0.89473092  0.00274060  0.45361515  1
  Sb  Sb11  1  0.10674846  0.99623301  0.54931962  1
  Sb  Sb12  1  0.03813676  0.49543136  0.81431865  1
  Sb  Sb13  1  0.96239766  0.49631751  0.18713401  1
  Sb  Sb14  1  0.39444243  0.49483858  0.45521423  1
  Sb  Sb15  1  0.60556634  0.49756643  0.54730110  1
  Sb  Sb16  1  0.53878506  0.99756808  0.81518104  1
  Sb  Sb17  1  0.46247335  0.99972337  0.18540301  1
  S  S18  1  0.94020278  0.99806409  0.79905078  1
  S  S19  1  0.05766071  0.99385570  0.19574400  1
  S  S20  1  0.40205299  0.98775394  0.98015580  1
  S  S21  1  0.59895202  0.99854073  0.01889934  1
  S  S22  1  0.16876097  0.99001897  0.89809081  1
  S  S23  1  0.82938220  0.00386438  0.10265063  1
  S  S24  1  0.08914011  0.49510342  0.64926365  1
  S  S25  1  0.91009793  0.49628268  0.34903595  1
  S  S26  1  0.74349837  0.99017886  0.29533486  1
  S  S27  1  0.25638551  0.00892740  0.70305591  1
  S  S28  1  0.15650013  0.49180702  0.44963203  1
  S  S29  1  0.84083780  0.50364570  0.54710374  1
  S  S30  1  0.44182555  0.49534123  0.79963164  1
  S  S31  1  0.56026659  0.49619537  0.19982565  1
  S  S32  1  0.90251602  0.49407974  0.97960316  1
  S  S33  1  0.09774296  0.49145932  0.02103139  1
  S  S34  1  0.66593668  0.50772798  0.89460955  1
  S  S35  1  0.33424858  0.49941083  0.10616706  1
  S  S36  1  0.58793615  0.01135979  0.64732053  1
  S  S37  1  0.41329272  0.99362430  0.35399827  1
  S  S38  1  0.24366620  0.48871708  0.29228596  1
  S  S39  1  0.76022666  0.49937005  0.70718283  1
  S  S40  1  0.65786907  0.99471699  0.45355735  1
  S  S41  1  0.34255026  0.99313942  0.54592023  1
