# generated using pymatgen
data_Pr2Mn3(SbS3)4
_symmetry_space_group_name_H-M   'P 1'
_cell_length_a   20.02960800
_cell_length_b   3.90410600
_cell_length_c   14.95364829
_cell_angle_alpha   90.00000000
_cell_angle_beta   126.33350609
_cell_angle_gamma   90.00000000
_symmetry_Int_Tables_number   1
_chemical_formula_structural   Pr2Mn3(SbS3)4
_chemical_formula_sum   'Pr4 Mn6 Sb8 S24'
_cell_volume   942.00006694
_cell_formula_units_Z   2
loop_
 _symmetry_equiv_pos_site_id
 _symmetry_equiv_pos_as_xyz
  1  'x, y, z'
loop_
 _atom_site_type_symbol
 _atom_site_label
 _atom_site_symmetry_multiplicity
 _atom_site_fract_x
 _atom_site_fract_y
 _atom_site_fract_z
 _atom_site_occupancy
  Pr  Pr0  1  0.26475549  0.47025366  0.86693368  1
  Pr  Pr1  1  0.73611005  0.52380400  0.13679317  1
  Pr  Pr2  1  0.76493063  0.01232474  0.86460987  1
  Pr  Pr3  1  0.23799057  0.00670689  0.13804865  1
  Mn  Mn4  1  0.29435802  0.48529707  0.60217694  1
  Mn  Mn5  1  0.69234651  0.51374159  0.38105237  1
  Mn  Mn6  1  0.00908960  0.99829983  0.01432083  1
  Mn  Mn7  1  0.80472272  0.01156638  0.61460568  1
  Mn  Mn8  1  0.19692797  0.97307639  0.37825480  1
  Mn  Mn9  1  0.49578609  0.45376572  0.98966699  1
  Sb  Sb10  1  0.88984843  0.98737687  0.45099536  1
  Sb  Sb11  1  0.11135033  0.97194198  0.54880402  1
  Sb  Sb12  1  0.03860984  0.51906871  0.81735158  1
  Sb  Sb13  1  0.96553724  0.50879793  0.18650596  1
  Sb  Sb14  1  0.39556344  0.51475676  0.45546680  1
  Sb  Sb15  1  0.60637117  0.47559000  0.54715125  1
  Sb  Sb16  1  0.53506620  0.00649745  0.81091880  1
  Sb  Sb17  1  0.46023880  0.01481364  0.18126834  1
  S  S18  1  0.93295118  0.99042778  0.80279462  1
  S  S19  1  0.06708009  0.98403774  0.18805478  1
  S  S20  1  0.40981034  0.99580990  0.98091090  1
  S  S21  1  0.59090381  0.99394346  0.01975835  1
  S  S22  1  0.16930353  0.00566167  0.89607895  1
  S  S23  1  0.82408142  0.01512052  0.09605908  1
  S  S24  1  0.08864924  0.48361056  0.64228449  1
  S  S25  1  0.90800455  0.46542178  0.35395674  1
  S  S26  1  0.73968462  0.95631498  0.29655995  1
  S  S27  1  0.26057943  0.00179075  0.70770456  1
  S  S28  1  0.16716346  0.47253714  0.43928521  1
  S  S29  1  0.82931218  0.48984895  0.54757008  1
  S  S30  1  0.43326193  0.50071933  0.79437947  1
  S  S31  1  0.56242800  0.50754976  0.18170203  1
  S  S32  1  0.91439286  0.51186077  0.99110107  1
  S  S33  1  0.08358050  0.48650365  0.01427653  1
  S  S34  1  0.66730672  0.49987484  0.88987123  1
  S  S35  1  0.32785424  0.51203524  0.09158120  1
  S  S36  1  0.59716115  0.99648332  0.66115551  1
  S  S37  1  0.40587668  0.97350797  0.34709637  1
  S  S38  1  0.24666240  0.44302048  0.31217617  1
  S  S39  1  0.76614018  0.50031301  0.70422400  1
  S  S40  1  0.67134273  0.03290634  0.45364988  1
  S  S41  1  0.32367805  0.96627204  0.54394573  1
