# generated using pymatgen
data_Pr2Mn3(SbS3)4
_symmetry_space_group_name_H-M   'P 1'
_cell_length_a   20.02960800
_cell_length_b   3.90410600
_cell_length_c   14.95364829
_cell_angle_alpha   90.00000000
_cell_angle_beta   126.33350609
_cell_angle_gamma   90.00000000
_symmetry_Int_Tables_number   1
_chemical_formula_structural   Pr2Mn3(SbS3)4
_chemical_formula_sum   'Pr4 Mn6 Sb8 S24'
_cell_volume   942.00006694
_cell_formula_units_Z   2
loop_
 _symmetry_equiv_pos_site_id
 _symmetry_equiv_pos_as_xyz
  1  'x, y, z'
loop_
 _atom_site_type_symbol
 _atom_site_label
 _atom_site_symmetry_multiplicity
 _atom_site_fract_x
 _atom_site_fract_y
 _atom_site_fract_z
 _atom_site_occupancy
  Pr  Pr0  1  0.27605682  0.48123545  0.86935733  1
  Pr  Pr1  1  0.73294127  0.51536471  0.14301644  1
  Pr  Pr2  1  0.77312414  0.04488187  0.88233855  1
  Pr  Pr3  1  0.23430730  0.90886482  0.12795479  1
  Mn  Mn4  1  0.29300273  0.42766939  0.60271599  1
  Mn  Mn5  1  0.69174411  0.49298953  0.36029017  1
  Mn  Mn6  1  0.00709602  0.01172604  0.01932578  1
  Mn  Mn7  1  0.80001183  0.00351069  0.64346420  1
  Mn  Mn8  1  0.21196606  0.06778826  0.39330206  1
  Mn  Mn9  1  0.48839869  0.46605848  0.98724378  1
  Sb  Sb10  1  0.88236412  0.86869426  0.45764454  1
  Sb  Sb11  1  0.11371282  0.98533596  0.54221809  1
  Sb  Sb12  1  0.03644221  0.47635913  0.82321716  1
  Sb  Sb13  1  0.96004255  0.47364789  0.19285939  1
  Sb  Sb14  1  0.41405465  0.54978723  0.46070424  1
  Sb  Sb15  1  0.60753779  0.57595155  0.53688813  1
  Sb  Sb16  1  0.53269384  0.94301277  0.80323648  1
  Sb  Sb17  1  0.46340900  0.98698813  0.17800629  1
  S  S18  1  0.93988959  0.98909235  0.81000280  1
  S  S19  1  0.06050279  0.02458337  0.20161600  1
  S  S20  1  0.41685024  0.96275044  0.97673647  1
  S  S21  1  0.58297640  0.04522910  0.00862519  1
  S  S22  1  0.16530483  0.98435715  0.88000243  1
  S  S23  1  0.82647197  0.01659167  0.10298766  1
  S  S24  1  0.10517867  0.47187174  0.64360029  1
  S  S25  1  0.90139769  0.43295935  0.35793283  1
  S  S26  1  0.73342196  0.99588051  0.30126072  1
  S  S27  1  0.26414492  0.90591140  0.67873019  1
  S  S28  1  0.16449256  0.45779883  0.45332332  1
  S  S29  1  0.81442994  0.54758219  0.54179066  1
  S  S30  1  0.43381656  0.47521064  0.80534474  1
  S  S31  1  0.56183082  0.51183761  0.19198085  1
  S  S32  1  0.91785871  0.52717770  0.99252964  1
  S  S33  1  0.08510724  0.47012230  0.02020427  1
  S  S34  1  0.66269643  0.54314330  0.89505416  1
  S  S35  1  0.32766382  0.46694926  0.10098369  1
  S  S36  1  0.60224319  0.01008016  0.65135315  1
  S  S37  1  0.39546145  0.02465518  0.33208641  1
  S  S38  1  0.24313217  0.51691706  0.33377357  1
  S  S39  1  0.76317191  0.48504682  0.69048532  1
  S  S40  1  0.66330492  0.03094716  0.44235129  1
  S  S41  1  0.33299631  0.91611449  0.55440506  1
