# generated using pymatgen
data_Pr2Mn3(SbS3)4
_symmetry_space_group_name_H-M   'P 1'
_cell_length_a   20.02960800
_cell_length_b   3.90410600
_cell_length_c   14.95364829
_cell_angle_alpha   90.00000000
_cell_angle_beta   126.33350609
_cell_angle_gamma   90.00000000
_symmetry_Int_Tables_number   1
_chemical_formula_structural   Pr2Mn3(SbS3)4
_chemical_formula_sum   'Pr4 Mn6 Sb8 S24'
_cell_volume   942.00006694
_cell_formula_units_Z   2
loop_
 _symmetry_equiv_pos_site_id
 _symmetry_equiv_pos_as_xyz
  1  'x, y, z'
loop_
 _atom_site_type_symbol
 _atom_site_label
 _atom_site_symmetry_multiplicity
 _atom_site_fract_x
 _atom_site_fract_y
 _atom_site_fract_z
 _atom_site_occupancy
  Pr  Pr0  1  0.27609533  0.48118733  0.86915601  1
  Pr  Pr1  1  0.73298193  0.51582665  0.14298987  1
  Pr  Pr2  1  0.77307748  0.04464094  0.88228776  1
  Pr  Pr3  1  0.23433287  0.90904916  0.12800865  1
  Mn  Mn4  1  0.29309722  0.42686427  0.60284182  1
  Mn  Mn5  1  0.69167036  0.49354358  0.36041017  1
  Mn  Mn6  1  0.00698700  0.01200721  0.01937227  1
  Mn  Mn7  1  0.80014603  0.00403743  0.64337457  1
  Mn  Mn8  1  0.21210092  0.06756806  0.39374727  1
  Mn  Mn9  1  0.48843186  0.46658626  0.98749997  1
  Sb  Sb10  1  0.88245391  0.86861560  0.45779694  1
  Sb  Sb11  1  0.11356236  0.98595760  0.54213711  1
  Sb  Sb12  1  0.03639597  0.47657313  0.82322766  1
  Sb  Sb13  1  0.95995553  0.47346157  0.19286732  1
  Sb  Sb14  1  0.41397345  0.55025282  0.46050808  1
  Sb  Sb15  1  0.60749825  0.57591511  0.53687734  1
  Sb  Sb16  1  0.53269460  0.94342495  0.80325755  1
  Sb  Sb17  1  0.46322733  0.98680457  0.17796453  1
  S  S18  1  0.93981014  0.98914661  0.80995186  1
  S  S19  1  0.06021229  0.02371344  0.20111721  1
  S  S20  1  0.41675272  0.96251934  0.97627516  1
  S  S21  1  0.58266195  0.04463917  0.00834205  1
  S  S22  1  0.16544050  0.98436122  0.88057808  1
  S  S23  1  0.82659625  0.01804966  0.10325332  1
  S  S24  1  0.10543472  0.47262100  0.64371222  1
  S  S25  1  0.90147575  0.43321868  0.35803980  1
  S  S26  1  0.73360578  0.99619039  0.30157896  1
  S  S27  1  0.26384144  0.90680223  0.67829612  1
  S  S28  1  0.16452938  0.45942439  0.45354863  1
  S  S29  1  0.81448272  0.54707293  0.54192589  1
  S  S30  1  0.43394711  0.47535177  0.80551746  1
  S  S31  1  0.56163885  0.51124795  0.19177623  1
  S  S32  1  0.91810354  0.52703866  0.99285490  1
  S  S33  1  0.08512851  0.46930133  0.02002077  1
  S  S34  1  0.66267484  0.54262515  0.89516893  1
  S  S35  1  0.32748623  0.46680166  0.10083325  1
  S  S36  1  0.60205377  0.01054000  0.65082009  1
  S  S37  1  0.39560803  0.02446837  0.33238081  1
  S  S38  1  0.24331146  0.51732348  0.33397885  1
  S  S39  1  0.76329882  0.48526929  0.69069388  1
  S  S40  1  0.66342145  0.03218139  0.44243421  1
  S  S41  1  0.33295685  0.91663508  0.55438009  1
