# generated using pymatgen
data_Pr2Mn3(SbS3)4
_symmetry_space_group_name_H-M   'P 1'
_cell_length_a   20.02960800
_cell_length_b   3.90410600
_cell_length_c   14.95364829
_cell_angle_alpha   90.00000000
_cell_angle_beta   126.33350609
_cell_angle_gamma   90.00000000
_symmetry_Int_Tables_number   1
_chemical_formula_structural   Pr2Mn3(SbS3)4
_chemical_formula_sum   'Pr4 Mn6 Sb8 S24'
_cell_volume   942.00006694
_cell_formula_units_Z   2
loop_
 _symmetry_equiv_pos_site_id
 _symmetry_equiv_pos_as_xyz
  1  'x, y, z'
loop_
 _atom_site_type_symbol
 _atom_site_label
 _atom_site_symmetry_multiplicity
 _atom_site_fract_x
 _atom_site_fract_y
 _atom_site_fract_z
 _atom_site_occupancy
  Pr  Pr0  1  0.27615864  0.48142447  0.86892723  1
  Pr  Pr1  1  0.73298857  0.51622216  0.14282980  1
  Pr  Pr2  1  0.77299136  0.04433768  0.88221405  1
  Pr  Pr3  1  0.23435281  0.90926147  0.12807097  1
  Mn  Mn4  1  0.29325321  0.42590979  0.60298556  1
  Mn  Mn5  1  0.69166095  0.49401962  0.36055487  1
  Mn  Mn6  1  0.00690205  0.01243188  0.01945047  1
  Mn  Mn7  1  0.80031355  0.00420820  0.64320025  1
  Mn  Mn8  1  0.21221328  0.06722278  0.39406663  1
  Mn  Mn9  1  0.48848028  0.46725306  0.98773241  1
  Sb  Sb10  1  0.88250024  0.86859120  0.45796132  1
  Sb  Sb11  1  0.11347213  0.98665310  0.54211479  1
  Sb  Sb12  1  0.03635720  0.47644883  0.82323739  1
  Sb  Sb13  1  0.95988333  0.47321405  0.19282889  1
  Sb  Sb14  1  0.41392932  0.55056975  0.46035091  1
  Sb  Sb15  1  0.60749188  0.57591132  0.53684538  1
  Sb  Sb16  1  0.53266933  0.94378205  0.80328474  1
  Sb  Sb17  1  0.46303329  0.98657373  0.17785850  1
  S  S18  1  0.93971269  0.98919190  0.81007218  1
  S  S19  1  0.05991814  0.02274898  0.20065175  1
  S  S20  1  0.41676397  0.96204984  0.97590148  1
  S  S21  1  0.58237851  0.04413004  0.00809737  1
  S  S22  1  0.16569653  0.98471102  0.88129681  1
  S  S23  1  0.82656186  0.01908974  0.10349092  1
  S  S24  1  0.10560457  0.47331279  0.64384850  1
  S  S25  1  0.90153061  0.43353534  0.35808786  1
  S  S26  1  0.73375461  0.99642404  0.30185938  1
  S  S27  1  0.26351407  0.90752461  0.67791761  1
  S  S28  1  0.16465120  0.46125204  0.45377893  1
  S  S29  1  0.81457370  0.54634537  0.54214407  1
  S  S30  1  0.43408942  0.47569817  0.80564087  1
  S  S31  1  0.56146320  0.51157330  0.19160105  1
  S  S32  1  0.91841533  0.52710828  0.99327023  1
  S  S33  1  0.08510978  0.46860079  0.01974331  1
  S  S34  1  0.66266799  0.54220435  0.89527181  1
  S  S35  1  0.32728157  0.46631057  0.10066769  1
  S  S36  1  0.60174400  0.01152136  0.65019217  1
  S  S37  1  0.39563041  0.02381479  0.33253170  1
  S  S38  1  0.24340832  0.51794851  0.33414390  1
  S  S39  1  0.76337941  0.48652572  0.69077774  1
  S  S40  1  0.66349232  0.03348196  0.44261389  1
  S  S41  1  0.33285727  0.91730437  0.55417107  1
