# generated using pymatgen
data_Pr2Mn3(SbS3)4
_symmetry_space_group_name_H-M   'P 1'
_cell_length_a   20.02960800
_cell_length_b   3.90410600
_cell_length_c   14.95364829
_cell_angle_alpha   90.00000000
_cell_angle_beta   126.33350609
_cell_angle_gamma   90.00000000
_symmetry_Int_Tables_number   1
_chemical_formula_structural   Pr2Mn3(SbS3)4
_chemical_formula_sum   'Pr4 Mn6 Sb8 S24'
_cell_volume   942.00006694
_cell_formula_units_Z   2
loop_
 _symmetry_equiv_pos_site_id
 _symmetry_equiv_pos_as_xyz
  1  'x, y, z'
loop_
 _atom_site_type_symbol
 _atom_site_label
 _atom_site_symmetry_multiplicity
 _atom_site_fract_x
 _atom_site_fract_y
 _atom_site_fract_z
 _atom_site_occupancy
  Pr  Pr0  1  0.27625527  0.48181617  0.86874576  1
  Pr  Pr1  1  0.73296639  0.51659722  0.14265856  1
  Pr  Pr2  1  0.77285786  0.04384292  0.88201621  1
  Pr  Pr3  1  0.23441809  0.90939490  0.12824853  1
  Mn  Mn4  1  0.29337580  0.42450532  0.60304782  1
  Mn  Mn5  1  0.69168313  0.49421485  0.36074043  1
  Mn  Mn6  1  0.00694865  0.01276289  0.01957882  1
  Mn  Mn7  1  0.80049486  0.00445057  0.64313119  1
  Mn  Mn8  1  0.21238280  0.06680563  0.39443693  1
  Mn  Mn9  1  0.48846205  0.46780342  0.98784831  1
  Sb  Sb10  1  0.88258972  0.86822659  0.45811674  1
  Sb  Sb11  1  0.11335737  0.98766357  0.54207197  1
  Sb  Sb12  1  0.03630672  0.47646337  0.82325493  1
  Sb  Sb13  1  0.95979767  0.47293999  0.19279528  1
  Sb  Sb14  1  0.41386794  0.55071589  0.46015830  1
  Sb  Sb15  1  0.60757629  0.57596066  0.53687050  1
  Sb  Sb16  1  0.53263163  0.94420266  0.80325794  1
  Sb  Sb17  1  0.46282949  0.98651803  0.17774861  1
  S  S18  1  0.93965881  0.98945826  0.81027893  1
  S  S19  1  0.05948143  0.02180965  0.20018256  1
  S  S20  1  0.41680539  0.96157597  0.97558687  1
  S  S21  1  0.58204171  0.04332473  0.00771570  1
  S  S22  1  0.16591736  0.98479339  0.88188962  1
  S  S23  1  0.82663305  0.01996596  0.10385014  1
  S  S24  1  0.10569192  0.47367489  0.64391929  1
  S  S25  1  0.90165994  0.43354210  0.35801646  1
  S  S26  1  0.73386433  0.99717081  0.30202604  1
  S  S27  1  0.26325119  0.90821983  0.67749554  1
  S  S28  1  0.16489809  0.46314483  0.45415998  1
  S  S29  1  0.81461847  0.54488860  0.54224373  1
  S  S30  1  0.43414917  0.47631310  0.80570365  1
  S  S31  1  0.56123953  0.51168349  0.19138257  1
  S  S32  1  0.91872328  0.52745780  0.99363015  1
  S  S33  1  0.08513133  0.46775223  0.01970597  1
  S  S34  1  0.66251274  0.54191750  0.89516940  1
  S  S35  1  0.32702327  0.46590272  0.10061422  1
  S  S36  1  0.60138780  0.01263041  0.64941412  1
  S  S37  1  0.39567728  0.02311057  0.33266978  1
  S  S38  1  0.24350683  0.51878226  0.33425497  1
  S  S39  1  0.76355108  0.48791655  0.69091614  1
  S  S40  1  0.66354536  0.03471463  0.44266171  1
  S  S41  1  0.33290334  0.91798632  0.55398734  1
