# generated using pymatgen
data_Pr2Mn3(SbS3)4
_symmetry_space_group_name_H-M   'P 1'
_cell_length_a   20.02960800
_cell_length_b   3.90410600
_cell_length_c   14.95364829
_cell_angle_alpha   90.00000000
_cell_angle_beta   126.33350609
_cell_angle_gamma   90.00000000
_symmetry_Int_Tables_number   1
_chemical_formula_structural   Pr2Mn3(SbS3)4
_chemical_formula_sum   'Pr4 Mn6 Sb8 S24'
_cell_volume   942.00006694
_cell_formula_units_Z   2
loop_
 _symmetry_equiv_pos_site_id
 _symmetry_equiv_pos_as_xyz
  1  'x, y, z'
loop_
 _atom_site_type_symbol
 _atom_site_label
 _atom_site_symmetry_multiplicity
 _atom_site_fract_x
 _atom_site_fract_y
 _atom_site_fract_z
 _atom_site_occupancy
  Pr  Pr0  1  0.27631569  0.48220920  0.86856628  1
  Pr  Pr1  1  0.73296719  0.51678499  0.14252801  1
  Pr  Pr2  1  0.77271421  0.04317590  0.88181592  1
  Pr  Pr3  1  0.23448414  0.90943423  0.12842017  1
  Mn  Mn4  1  0.29354720  0.42325328  0.60321125  1
  Mn  Mn5  1  0.69169760  0.49468014  0.36092410  1
  Mn  Mn6  1  0.00689068  0.01316400  0.01960710  1
  Mn  Mn7  1  0.80069659  0.00499622  0.64309714  1
  Mn  Mn8  1  0.21255415  0.06623802  0.39478993  1
  Mn  Mn9  1  0.48837628  0.46840068  0.98794791  1
  Sb  Sb10  1  0.88274377  0.86795035  0.45825112  1
  Sb  Sb11  1  0.11323516  0.98841465  0.54198317  1
  Sb  Sb12  1  0.03628177  0.47647257  0.82332498  1
  Sb  Sb13  1  0.95965878  0.47278231  0.19266422  1
  Sb  Sb14  1  0.41384597  0.55088139  0.46006022  1
  Sb  Sb15  1  0.60759615  0.57610729  0.53690942  1
  Sb  Sb16  1  0.53252136  0.94488322  0.80317777  1
  Sb  Sb17  1  0.46266589  0.98634252  0.17765314  1
  S  S18  1  0.93960496  0.98967390  0.81059506  1
  S  S19  1  0.05910153  0.02042583  0.19968056  1
  S  S20  1  0.41673733  0.96120533  0.97513791  1
  S  S21  1  0.58176256  0.04268365  0.00750208  1
  S  S22  1  0.16608678  0.98495078  0.88233166  1
  S  S23  1  0.82667435  0.02009755  0.10411806  1
  S  S24  1  0.10572130  0.47369329  0.64390063  1
  S  S25  1  0.90161007  0.43351142  0.35793949  1
  S  S26  1  0.73390740  0.99791639  0.30207962  1
  S  S27  1  0.26296105  0.90886356  0.67708593  1
  S  S28  1  0.16508678  0.46537219  0.45430339  1
  S  S29  1  0.81462932  0.54373845  0.54236461  1
  S  S30  1  0.43417809  0.47700412  0.80569812  1
  S  S31  1  0.56103325  0.51153161  0.19119662  1
  S  S32  1  0.91887373  0.52751602  0.99392961  1
  S  S33  1  0.08507619  0.46670410  0.01972991  1
  S  S34  1  0.66243574  0.54128906  0.89520710  1
  S  S35  1  0.32672126  0.46562790  0.10052310  1
  S  S36  1  0.60113536  0.01372171  0.64868962  1
  S  S37  1  0.39566671  0.02248110  0.33277277  1
  S  S38  1  0.24365052  0.51931943  0.33448569  1
  S  S39  1  0.76375300  0.48873795  0.69115784  1
  S  S40  1  0.66359173  0.03552491  0.44264929  1
  S  S41  1  0.33293940  0.91847191  0.55388717  1
