# generated using pymatgen
data_Pr2Mn3(SbS3)4
_symmetry_space_group_name_H-M   'P 1'
_cell_length_a   20.02960800
_cell_length_b   3.90410600
_cell_length_c   14.95364829
_cell_angle_alpha   90.00000000
_cell_angle_beta   126.33350609
_cell_angle_gamma   90.00000000
_symmetry_Int_Tables_number   1
_chemical_formula_structural   Pr2Mn3(SbS3)4
_chemical_formula_sum   'Pr4 Mn6 Sb8 S24'
_cell_volume   942.00006694
_cell_formula_units_Z   2
loop_
 _symmetry_equiv_pos_site_id
 _symmetry_equiv_pos_as_xyz
  1  'x, y, z'
loop_
 _atom_site_type_symbol
 _atom_site_label
 _atom_site_symmetry_multiplicity
 _atom_site_fract_x
 _atom_site_fract_y
 _atom_site_fract_z
 _atom_site_occupancy
  Pr  Pr0  1  0.27633693  0.48283272  0.86839081  1
  Pr  Pr1  1  0.73302847  0.51707879  0.14244981  1
  Pr  Pr2  1  0.77254196  0.04254951  0.88160779  1
  Pr  Pr3  1  0.23454408  0.90952656  0.12861090  1
  Mn  Mn4  1  0.29369060  0.42217728  0.60334329  1
  Mn  Mn5  1  0.69176356  0.49482409  0.36120036  1
  Mn  Mn6  1  0.00686959  0.01308493  0.01961632  1
  Mn  Mn7  1  0.80089834  0.00560492  0.64308004  1
  Mn  Mn8  1  0.21267746  0.06537035  0.39504488  1
  Mn  Mn9  1  0.48829529  0.46848629  0.98805730  1
  Sb  Sb10  1  0.88285052  0.86764662  0.45837628  1
  Sb  Sb11  1  0.11311038  0.98942550  0.54185292  1
  Sb  Sb12  1  0.03620322  0.47643200  0.82330424  1
  Sb  Sb13  1  0.95954570  0.47247601  0.19254269  1
  Sb  Sb14  1  0.41383674  0.55097281  0.46006321  1
  Sb  Sb15  1  0.60758613  0.57637900  0.53690857  1
  Sb  Sb16  1  0.53241868  0.94528816  0.80311870  1
  Sb  Sb17  1  0.46245785  0.98613613  0.17748025  1
  S  S18  1  0.93958013  0.99006080  0.81085637  1
  S  S19  1  0.05877766  0.01955667  0.19930667  1
  S  S20  1  0.41652555  0.96068664  0.97451843  1
  S  S21  1  0.58152490  0.04237339  0.00738875  1
  S  S22  1  0.16617263  0.98495286  0.88272348  1
  S  S23  1  0.82665639  0.02018391  0.10422016  1
  S  S24  1  0.10567742  0.47432789  0.64408843  1
  S  S25  1  0.90164000  0.43306448  0.35786667  1
  S  S26  1  0.73380284  0.99831834  0.30199598  1
  S  S27  1  0.26281179  0.90911699  0.67677584  1
  S  S28  1  0.16530383  0.46742561  0.45443211  1
  S  S29  1  0.81457401  0.54258025  0.54256553  1
  S  S30  1  0.43421804  0.47800320  0.80565438  1
  S  S31  1  0.56066615  0.51148218  0.19083876  1
  S  S32  1  0.91903035  0.52780602  0.99426192  1
  S  S33  1  0.08507716  0.46563625  0.01975877  1
  S  S34  1  0.66228534  0.54063504  0.89521032  1
  S  S35  1  0.32645167  0.46469696  0.10044603  1
  S  S36  1  0.60089119  0.01508973  0.64811837  1
  S  S37  1  0.39574607  0.02183857  0.33295595  1
  S  S38  1  0.24377495  0.51920478  0.33467669  1
  S  S39  1  0.76400595  0.48953077  0.69144072  1
  S  S40  1  0.66374325  0.03586251  0.44270832  1
  S  S41  1  0.33286554  0.91945261  0.55360206  1
