# generated using pymatgen
data_Pr2Mn3(SbS3)4
_symmetry_space_group_name_H-M   'P 1'
_cell_length_a   20.02960800
_cell_length_b   3.90410600
_cell_length_c   14.95364829
_cell_angle_alpha   90.00000000
_cell_angle_beta   126.33350609
_cell_angle_gamma   90.00000000
_symmetry_Int_Tables_number   1
_chemical_formula_structural   Pr2Mn3(SbS3)4
_chemical_formula_sum   'Pr4 Mn6 Sb8 S24'
_cell_volume   942.00006694
_cell_formula_units_Z   2
loop_
 _symmetry_equiv_pos_site_id
 _symmetry_equiv_pos_as_xyz
  1  'x, y, z'
loop_
 _atom_site_type_symbol
 _atom_site_label
 _atom_site_symmetry_multiplicity
 _atom_site_fract_x
 _atom_site_fract_y
 _atom_site_fract_z
 _atom_site_occupancy
  Pr  Pr0  1  0.27639483  0.48345477  0.86827998  1
  Pr  Pr1  1  0.73307775  0.51721949  0.14237772  1
  Pr  Pr2  1  0.77242150  0.04213892  0.88141942  1
  Pr  Pr3  1  0.23457876  0.90962832  0.12878955  1
  Mn  Mn4  1  0.29376236  0.42089530  0.60347341  1
  Mn  Mn5  1  0.69178161  0.49525702  0.36139202  1
  Mn  Mn6  1  0.00683207  0.01324388  0.01961033  1
  Mn  Mn7  1  0.80108583  0.00600400  0.64307223  1
  Mn  Mn8  1  0.21284193  0.06442594  0.39544496  1
  Mn  Mn9  1  0.48808445  0.46880826  0.98798254  1
  Sb  Sb10  1  0.88299751  0.86736285  0.45852384  1
  Sb  Sb11  1  0.11302907  0.99048770  0.54177747  1
  Sb  Sb12  1  0.03610453  0.47630218  0.82325888  1
  Sb  Sb13  1  0.95944998  0.47194220  0.19237616  1
  Sb  Sb14  1  0.41380680  0.55094374  0.46005261  1
  Sb  Sb15  1  0.60754609  0.57656962  0.53696164  1
  Sb  Sb16  1  0.53237062  0.94567722  0.80307513  1
  Sb  Sb17  1  0.46232347  0.98577639  0.17737858  1
  S  S18  1  0.93966661  0.99034477  0.81118070  1
  S  S19  1  0.05855131  0.01862245  0.19905662  1
  S  S20  1  0.41642968  0.96019577  0.97413073  1
  S  S21  1  0.58134387  0.04185671  0.00739718  1
  S  S22  1  0.16630211  0.98443689  0.88289952  1
  S  S23  1  0.82651749  0.01999878  0.10426629  1
  S  S24  1  0.10556790  0.47476929  0.64429495  1
  S  S25  1  0.90166580  0.43241626  0.35773452  1
  S  S26  1  0.73372070  0.99860994  0.30185376  1
  S  S27  1  0.26272771  0.90995717  0.67655222  1
  S  S28  1  0.16541342  0.46940469  0.45450501  1
  S  S29  1  0.81460108  0.54135186  0.54284144  1
  S  S30  1  0.43410340  0.47882627  0.80566769  1
  S  S31  1  0.56046209  0.51159062  0.19068705  1
  S  S32  1  0.91920758  0.52847375  0.99454596  1
  S  S33  1  0.08499495  0.46460316  0.01957552  1
  S  S34  1  0.66207034  0.54003898  0.89516060  1
  S  S35  1  0.32624966  0.46419378  0.10048566  1
  S  S36  1  0.60078896  0.01678451  0.64770804  1
  S  S37  1  0.39587420  0.02162545  0.33309740  1
  S  S38  1  0.24389480  0.51945276  0.33485153  1
  S  S39  1  0.76422117  0.49009613  0.69171601  1
  S  S40  1  0.66394886  0.03606862  0.44285382  1
  S  S41  1  0.33275424  0.92021724  0.55331840  1
