# generated using pymatgen
data_Pr2Mn3(SbS3)4
_symmetry_space_group_name_H-M   'P 1'
_cell_length_a   20.02960800
_cell_length_b   3.90410600
_cell_length_c   14.95364829
_cell_angle_alpha   90.00000000
_cell_angle_beta   126.33350609
_cell_angle_gamma   90.00000000
_symmetry_Int_Tables_number   1
_chemical_formula_structural   Pr2Mn3(SbS3)4
_chemical_formula_sum   'Pr4 Mn6 Sb8 S24'
_cell_volume   942.00006694
_cell_formula_units_Z   2
loop_
 _symmetry_equiv_pos_site_id
 _symmetry_equiv_pos_as_xyz
  1  'x, y, z'
loop_
 _atom_site_type_symbol
 _atom_site_label
 _atom_site_symmetry_multiplicity
 _atom_site_fract_x
 _atom_site_fract_y
 _atom_site_fract_z
 _atom_site_occupancy
  Pr  Pr0  1  0.27642563  0.48412780  0.86813489  1
  Pr  Pr1  1  0.73308834  0.51715403  0.14231211  1
  Pr  Pr2  1  0.77233905  0.04137306  0.88123326  1
  Pr  Pr3  1  0.23458977  0.90964208  0.12894241  1
  Mn  Mn4  1  0.29376681  0.41995331  0.60353878  1
  Mn  Mn5  1  0.69174696  0.49581271  0.36148285  1
  Mn  Mn6  1  0.00679893  0.01297296  0.01967397  1
  Mn  Mn7  1  0.80127985  0.00664502  0.64298821  1
  Mn  Mn8  1  0.21291913  0.06377615  0.39582856  1
  Mn  Mn9  1  0.48777061  0.46883059  0.98770205  1
  Sb  Sb10  1  0.88308333  0.86705419  0.45856976  1
  Sb  Sb11  1  0.11299977  0.99113168  0.54175508  1
  Sb  Sb12  1  0.03606310  0.47618317  0.82323574  1
  Sb  Sb13  1  0.95942865  0.47141059  0.19229746  1
  Sb  Sb14  1  0.41375362  0.55097831  0.46001297  1
  Sb  Sb15  1  0.60753636  0.57698845  0.53700908  1
  Sb  Sb16  1  0.53226000  0.94622223  0.80298079  1
  Sb  Sb17  1  0.46212737  0.98538982  0.17721463  1
  S  S18  1  0.93980455  0.99040660  0.81151154  1
  S  S19  1  0.05829305  0.01762678  0.19879937  1
  S  S20  1  0.41629553  0.95941569  0.97371674  1
  S  S21  1  0.58117595  0.04087367  0.00751158  1
  S  S22  1  0.16647829  0.98389928  0.88310432  1
  S  S23  1  0.82650098  0.01975581  0.10438333  1
  S  S24  1  0.10533950  0.47526103  0.64444832  1
  S  S25  1  0.90171240  0.43187155  0.35768319  1
  S  S26  1  0.73363940  0.99831695  0.30159269  1
  S  S27  1  0.26262377  0.91084823  0.67633028  1
  S  S28  1  0.16560641  0.47177289  0.45458327  1
  S  S29  1  0.81457908  0.54070052  0.54302084  1
  S  S30  1  0.43393666  0.47937463  0.80575839  1
  S  S31  1  0.56049844  0.51177596  0.19062143  1
  S  S32  1  0.91937834  0.52892600  0.99471790  1
  S  S33  1  0.08502117  0.46400815  0.01947149  1
  S  S34  1  0.66186700  0.53940681  0.89518306  1
  S  S35  1  0.32604632  0.46363663  0.10048961  1
  S  S36  1  0.60078867  0.01913255  0.64748351  1
  S  S37  1  0.39605956  0.02169539  0.33334800  1
  S  S38  1  0.24388989  0.52001939  0.33476272  1
  S  S39  1  0.76429449  0.49006586  0.69186622  1
  S  S40  1  0.66412192  0.03691723  0.44297155  1
  S  S41  1  0.33260395  0.92087579  0.55301873  1
