# generated using pymatgen
data_Pr2Mn3(SbS3)4
_symmetry_space_group_name_H-M   'P 1'
_cell_length_a   20.02960800
_cell_length_b   3.90410600
_cell_length_c   14.95364829
_cell_angle_alpha   90.00000000
_cell_angle_beta   126.33350609
_cell_angle_gamma   90.00000000
_symmetry_Int_Tables_number   1
_chemical_formula_structural   Pr2Mn3(SbS3)4
_chemical_formula_sum   'Pr4 Mn6 Sb8 S24'
_cell_volume   942.00006694
_cell_formula_units_Z   2
loop_
 _symmetry_equiv_pos_site_id
 _symmetry_equiv_pos_as_xyz
  1  'x, y, z'
loop_
 _atom_site_type_symbol
 _atom_site_label
 _atom_site_symmetry_multiplicity
 _atom_site_fract_x
 _atom_site_fract_y
 _atom_site_fract_z
 _atom_site_occupancy
  Pr  Pr0  1  0.27648716  0.48468061  0.86802484  1
  Pr  Pr1  1  0.73308381  0.51714762  0.14224164  1
  Pr  Pr2  1  0.77224976  0.04033333  0.88109872  1
  Pr  Pr3  1  0.23458324  0.91006308  0.12899686  1
  Mn  Mn4  1  0.29371048  0.41941623  0.60357944  1
  Mn  Mn5  1  0.69170046  0.49678112  0.36149556  1
  Mn  Mn6  1  0.00681492  0.01220835  0.01978713  1
  Mn  Mn7  1  0.80154187  0.00724839  0.64297204  1
  Mn  Mn8  1  0.21297525  0.06297293  0.39619434  1
  Mn  Mn9  1  0.48750234  0.46895154  0.98752796  1
  Sb  Sb10  1  0.88313910  0.86684604  0.45853567  1
  Sb  Sb11  1  0.11296915  0.99186244  0.54162668  1
  Sb  Sb12  1  0.03600765  0.47606459  0.82314715  1
  Sb  Sb13  1  0.95939779  0.47068135  0.19219643  1
  Sb  Sb14  1  0.41368440  0.55097408  0.45997145  1
  Sb  Sb15  1  0.60751909  0.57740040  0.53709439  1
  Sb  Sb16  1  0.53212231  0.94661213  0.80284999  1
  Sb  Sb17  1  0.46198241  0.98527572  0.17711874  1
  S  S18  1  0.93994399  0.99031402  0.81184923  1
  S  S19  1  0.05793207  0.01644813  0.19851999  1
  S  S20  1  0.41620342  0.95858400  0.97339031  1
  S  S21  1  0.58103229  0.03977339  0.00755005  1
  S  S22  1  0.16666671  0.98319415  0.88335738  1
  S  S23  1  0.82643176  0.01974883  0.10443471  1
  S  S24  1  0.10486049  0.47548178  0.64433509  1
  S  S25  1  0.90165927  0.43134993  0.35767167  1
  S  S26  1  0.73354512  0.99848823  0.30138131  1
  S  S27  1  0.26251195  0.91174431  0.67607604  1
  S  S28  1  0.16570501  0.47448253  0.45461529  1
  S  S29  1  0.81460708  0.53986076  0.54319102  1
  S  S30  1  0.43380615  0.48050198  0.80578323  1
  S  S31  1  0.56035747  0.51219764  0.19043815  1
  S  S32  1  0.91951398  0.52953764  0.99480618  1
  S  S33  1  0.08514336  0.46288970  0.01930838  1
  S  S34  1  0.66161204  0.53875377  0.89518965  1
  S  S35  1  0.32585496  0.46297439  0.10039688  1
  S  S36  1  0.60069676  0.02097621  0.64727246  1
  S  S37  1  0.39620394  0.02180276  0.33353961  1
  S  S38  1  0.24383608  0.52030332  0.33452262  1
  S  S39  1  0.76436736  0.49062460  0.69196992  1
  S  S40  1  0.66428216  0.03793858  0.44308198  1
  S  S41  1  0.33243276  0.92104605  0.55272787  1
