# generated using pymatgen
data_Pr2Mn3(SbS3)4
_symmetry_space_group_name_H-M   'P 1'
_cell_length_a   20.02960800
_cell_length_b   3.90410600
_cell_length_c   14.95364829
_cell_angle_alpha   90.00000000
_cell_angle_beta   126.33350609
_cell_angle_gamma   90.00000000
_symmetry_Int_Tables_number   1
_chemical_formula_structural   Pr2Mn3(SbS3)4
_chemical_formula_sum   'Pr4 Mn6 Sb8 S24'
_cell_volume   942.00006694
_cell_formula_units_Z   2
loop_
 _symmetry_equiv_pos_site_id
 _symmetry_equiv_pos_as_xyz
  1  'x, y, z'
loop_
 _atom_site_type_symbol
 _atom_site_label
 _atom_site_symmetry_multiplicity
 _atom_site_fract_x
 _atom_site_fract_y
 _atom_site_fract_z
 _atom_site_occupancy
  Pr  Pr0  1  0.27650928  0.48521215  0.86791517  1
  Pr  Pr1  1  0.73310292  0.51710581  0.14218411  1
  Pr  Pr2  1  0.77217413  0.03915110  0.88104528  1
  Pr  Pr3  1  0.23452594  0.91073449  0.12899665  1
  Mn  Mn4  1  0.29369005  0.41877300  0.60363620  1
  Mn  Mn5  1  0.69157753  0.49797693  0.36144311  1
  Mn  Mn6  1  0.00677414  0.01120907  0.01970909  1
  Mn  Mn7  1  0.80165539  0.00787995  0.64280084  1
  Mn  Mn8  1  0.21299942  0.06258575  0.39648654  1
  Mn  Mn9  1  0.48723992  0.46877648  0.98738025  1
  Sb  Sb10  1  0.88321638  0.86659021  0.45852336  1
  Sb  Sb11  1  0.11296665  0.99253795  0.54154201  1
  Sb  Sb12  1  0.03596886  0.47607496  0.82303959  1
  Sb  Sb13  1  0.95939230  0.46980138  0.19216060  1
  Sb  Sb14  1  0.41361499  0.55102885  0.45983744  1
  Sb  Sb15  1  0.60745355  0.57759446  0.53709830  1
  Sb  Sb16  1  0.53193388  0.94679916  0.80274028  1
  Sb  Sb17  1  0.46193727  0.98536206  0.17710685  1
  S  S18  1  0.94010424  0.99023782  0.81222630  1
  S  S19  1  0.05758831  0.01481509  0.19827224  1
  S  S20  1  0.41604219  0.95803338  0.97298436  1
  S  S21  1  0.58093913  0.03837963  0.00767100  1
  S  S22  1  0.16681698  0.98270216  0.88360233  1
  S  S23  1  0.82635114  0.01985948  0.10445793  1
  S  S24  1  0.10438397  0.47574218  0.64433102  1
  S  S25  1  0.90160616  0.43107142  0.35763769  1
  S  S26  1  0.73347066  0.99854764  0.30120690  1
  S  S27  1  0.26230047  0.91235191  0.67570477  1
  S  S28  1  0.16576994  0.47668739  0.45473885  1
  S  S29  1  0.81471937  0.53913383  0.54340193  1
  S  S30  1  0.43372442  0.48112868  0.80592824  1
  S  S31  1  0.56024001  0.51269015  0.19036265  1
  S  S32  1  0.91967041  0.53004057  0.99475360  1
  S  S33  1  0.08524111  0.46203647  0.01913703  1
  S  S34  1  0.66120546  0.53877581  0.89499075  1
  S  S35  1  0.32569101  0.46262742  0.10028821  1
  S  S36  1  0.60066155  0.02288342  0.64713869  1
  S  S37  1  0.39641006  0.02227322  0.33383468  1
  S  S38  1  0.24382779  0.52055535  0.33429923  1
  S  S39  1  0.76442852  0.49116593  0.69203373  1
  S  S40  1  0.66449887  0.03919718  0.44334156  1
  S  S41  1  0.33215546  0.92093865  0.55243006  1
