# generated using pymatgen
data_Pr2Mn3(SbS3)4
_symmetry_space_group_name_H-M   'P 1'
_cell_length_a   20.02960800
_cell_length_b   3.90410600
_cell_length_c   14.95364829
_cell_angle_alpha   90.00000000
_cell_angle_beta   126.33350609
_cell_angle_gamma   90.00000000
_symmetry_Int_Tables_number   1
_chemical_formula_structural   Pr2Mn3(SbS3)4
_chemical_formula_sum   'Pr4 Mn6 Sb8 S24'
_cell_volume   942.00006694
_cell_formula_units_Z   2
loop_
 _symmetry_equiv_pos_site_id
 _symmetry_equiv_pos_as_xyz
  1  'x, y, z'
loop_
 _atom_site_type_symbol
 _atom_site_label
 _atom_site_symmetry_multiplicity
 _atom_site_fract_x
 _atom_site_fract_y
 _atom_site_fract_z
 _atom_site_occupancy
  Pr  Pr0  1  0.26481249  0.47005716  0.86690857  1
  Pr  Pr1  1  0.73605714  0.52400871  0.13680729  1
  Pr  Pr2  1  0.76496175  0.01255266  0.86468467  1
  Pr  Pr3  1  0.23813559  0.00656129  0.13818292  1
  Mn  Mn4  1  0.29426916  0.48588258  0.60204587  1
  Mn  Mn5  1  0.69227311  0.51346554  0.38097825  1
  Mn  Mn6  1  0.00909153  0.99863547  0.01439067  1
  Mn  Mn7  1  0.80468828  0.01187024  0.61459611  1
  Mn  Mn8  1  0.19704244  0.97326986  0.37847949  1
  Mn  Mn9  1  0.49565210  0.45403804  0.98968041  1
  Sb  Sb10  1  0.88990895  0.98705505  0.45093797  1
  Sb  Sb11  1  0.11134607  0.97189697  0.54861587  1
  Sb  Sb12  1  0.03862673  0.51917026  0.81739735  1
  Sb  Sb13  1  0.96574451  0.50885385  0.18661771  1
  Sb  Sb14  1  0.39573280  0.51497786  0.45553807  1
  Sb  Sb15  1  0.60639703  0.47531779  0.54721808  1
  Sb  Sb16  1  0.53496499  0.00644526  0.81083910  1
  Sb  Sb17  1  0.46021279  0.01469815  0.18126508  1
  S  S18  1  0.93293555  0.99000992  0.80275009  1
  S  S19  1  0.06711568  0.98432182  0.18836775  1
  S  S20  1  0.40966210  0.99370282  0.98112064  1
  S  S21  1  0.59075706  0.99294280  0.01937621  1
  S  S22  1  0.16929370  0.00672031  0.89625640  1
  S  S23  1  0.82405264  0.01531063  0.09618875  1
  S  S24  1  0.08876834  0.48375929  0.64236870  1
  S  S25  1  0.90804861  0.46555827  0.35395725  1
  S  S26  1  0.73982130  0.95536919  0.29675768  1
  S  S27  1  0.26086367  0.00144293  0.70782996  1
  S  S28  1  0.16678753  0.47265667  0.43924154  1
  S  S29  1  0.82947735  0.48979583  0.54780919  1
  S  S30  1  0.43313876  0.50030993  0.79427620  1
  S  S31  1  0.56238225  0.50749015  0.18174456  1
  S  S32  1  0.91435133  0.51169829  0.99072754  1
  S  S33  1  0.08383963  0.48592012  0.01468224  1
  S  S34  1  0.66722103  0.50084753  0.88981008  1
  S  S35  1  0.32792575  0.51305212  0.09161480  1
  S  S36  1  0.59692023  0.99659236  0.66098274  1
  S  S37  1  0.40582487  0.97367959  0.34723932  1
  S  S38  1  0.24647868  0.44397925  0.31171786  1
  S  S39  1  0.76650574  0.49936890  0.70434953  1
  S  S40  1  0.67107558  0.03275133  0.45319493  1
  S  S41  1  0.32358609  0.96643493  0.54385211  1
