# generated using pymatgen
data_Pr2Mn3(SbS3)4
_symmetry_space_group_name_H-M   'P 1'
_cell_length_a   20.02960800
_cell_length_b   3.90410600
_cell_length_c   14.95364829
_cell_angle_alpha   90.00000000
_cell_angle_beta   126.33350609
_cell_angle_gamma   90.00000000
_symmetry_Int_Tables_number   1
_chemical_formula_structural   Pr2Mn3(SbS3)4
_chemical_formula_sum   'Pr4 Mn6 Sb8 S24'
_cell_volume   942.00006694
_cell_formula_units_Z   2
loop_
 _symmetry_equiv_pos_site_id
 _symmetry_equiv_pos_as_xyz
  1  'x, y, z'
loop_
 _atom_site_type_symbol
 _atom_site_label
 _atom_site_symmetry_multiplicity
 _atom_site_fract_x
 _atom_site_fract_y
 _atom_site_fract_z
 _atom_site_occupancy
  Pr  Pr0  1  0.27652565  0.48549104  0.86777126  1
  Pr  Pr1  1  0.73313181  0.51708952  0.14212927  1
  Pr  Pr2  1  0.77216387  0.03801790  0.88102957  1
  Pr  Pr3  1  0.23445376  0.91114760  0.12900780  1
  Mn  Mn4  1  0.29364401  0.41794928  0.60360220  1
  Mn  Mn5  1  0.69144855  0.49939944  0.36134851  1
  Mn  Mn6  1  0.00666570  0.01045968  0.01958584  1
  Mn  Mn7  1  0.80177646  0.00824359  0.64270497  1
  Mn  Mn8  1  0.21300102  0.06213261  0.39673721  1
  Mn  Mn9  1  0.48708658  0.46913551  0.98743035  1
  Sb  Sb10  1  0.88331074  0.86640785  0.45852927  1
  Sb  Sb11  1  0.11294969  0.99324447  0.54146133  1
  Sb  Sb12  1  0.03597054  0.47643760  0.82296361  1
  Sb  Sb13  1  0.95944134  0.46896407  0.19219159  1
  Sb  Sb14  1  0.41354859  0.55123006  0.45971668  1
  Sb  Sb15  1  0.60738131  0.57762667  0.53707696  1
  Sb  Sb16  1  0.53171629  0.94687729  0.80262324  1
  Sb  Sb17  1  0.46189983  0.98530051  0.17715428  1
  S  S18  1  0.94028538  0.99043090  0.81271234  1
  S  S19  1  0.05741267  0.01365297  0.19826850  1
  S  S20  1  0.41588272  0.95789912  0.97264075  1
  S  S21  1  0.58075577  0.03718355  0.00770193  1
  S  S22  1  0.16699428  0.98242874  0.88391538  1
  S  S23  1  0.82605195  0.01980090  0.10430388  1
  S  S24  1  0.10395075  0.47612821  0.64438059  1
  S  S25  1  0.90147680  0.43067517  0.35757941  1
  S  S26  1  0.73340388  0.99830241  0.30104764  1
  S  S27  1  0.26221356  0.91267028  0.67536685  1
  S  S28  1  0.16584322  0.47839405  0.45486392  1
  S  S29  1  0.81492713  0.53838765  0.54383340  1
  S  S30  1  0.43366339  0.48120700  0.80607975  1
  S  S31  1  0.56010959  0.51297312  0.19032700  1
  S  S32  1  0.91993049  0.53062214  0.99489187  1
  S  S33  1  0.08533405  0.46207408  0.01895041  1
  S  S34  1  0.66068868  0.53857878  0.89478181  1
  S  S35  1  0.32548006  0.46222692  0.10025161  1
  S  S36  1  0.60068426  0.02473031  0.64710786  1
  S  S37  1  0.39654201  0.02274880  0.33414444  1
  S  S38  1  0.24377097  0.52081900  0.33405262  1
  S  S39  1  0.76451701  0.49167504  0.69212788  1
  S  S40  1  0.66485394  0.04039520  0.44362988  1
  S  S41  1  0.33196904  0.92121275  0.55213365  1
