# generated using pymatgen
data_Pr2Mn3(SbS3)4
_symmetry_space_group_name_H-M   'P 1'
_cell_length_a   20.02960800
_cell_length_b   3.90410600
_cell_length_c   14.95364829
_cell_angle_alpha   90.00000000
_cell_angle_beta   126.33350609
_cell_angle_gamma   90.00000000
_symmetry_Int_Tables_number   1
_chemical_formula_structural   Pr2Mn3(SbS3)4
_chemical_formula_sum   'Pr4 Mn6 Sb8 S24'
_cell_volume   942.00006694
_cell_formula_units_Z   2
loop_
 _symmetry_equiv_pos_site_id
 _symmetry_equiv_pos_as_xyz
  1  'x, y, z'
loop_
 _atom_site_type_symbol
 _atom_site_label
 _atom_site_symmetry_multiplicity
 _atom_site_fract_x
 _atom_site_fract_y
 _atom_site_fract_z
 _atom_site_occupancy
  Pr  Pr0  1  0.27660663  0.48584339  0.86763869  1
  Pr  Pr1  1  0.73312994  0.51684752  0.14206225  1
  Pr  Pr2  1  0.77215012  0.03711205  0.88096267  1
  Pr  Pr3  1  0.23447745  0.91160628  0.12910182  1
  Mn  Mn4  1  0.29356008  0.41748907  0.60361826  1
  Mn  Mn5  1  0.69127448  0.50066069  0.36119566  1
  Mn  Mn6  1  0.00659127  0.00991123  0.01944420  1
  Mn  Mn7  1  0.80189761  0.00863190  0.64267505  1
  Mn  Mn8  1  0.21297622  0.06162833  0.39683867  1
  Mn  Mn9  1  0.48689084  0.46942026  0.98744710  1
  Sb  Sb10  1  0.88340404  0.86603298  0.45854467  1
  Sb  Sb11  1  0.11294726  0.99402435  0.54142487  1
  Sb  Sb12  1  0.03599163  0.47668655  0.82288154  1
  Sb  Sb13  1  0.95951146  0.46837690  0.19227090  1
  Sb  Sb14  1  0.41347336  0.55125300  0.45962773  1
  Sb  Sb15  1  0.60727817  0.57747415  0.53695823  1
  Sb  Sb16  1  0.53143351  0.94669786  0.80252232  1
  Sb  Sb17  1  0.46190764  0.98512131  0.17719447  1
  S  S18  1  0.94048612  0.99036211  0.81323132  1
  S  S19  1  0.05732093  0.01321905  0.19842605  1
  S  S20  1  0.41572038  0.95776493  0.97231013  1
  S  S21  1  0.58052058  0.03565359  0.00766970  1
  S  S22  1  0.16706870  0.98229342  0.88421094  1
  S  S23  1  0.82590540  0.02011595  0.10424009  1
  S  S24  1  0.10354380  0.47667661  0.64441779  1
  S  S25  1  0.90135220  0.43027654  0.35743795  1
  S  S26  1  0.73334678  0.99785608  0.30083869  1
  S  S27  1  0.26224679  0.91286735  0.67533232  1
  S  S28  1  0.16590877  0.47953267  0.45496604  1
  S  S29  1  0.81514691  0.53762659  0.54425620  1
  S  S30  1  0.43370008  0.48070387  0.80627992  1
  S  S31  1  0.56005684  0.51370121  0.19043859  1
  S  S32  1  0.92019453  0.53079840  0.99510524  1
  S  S33  1  0.08529719  0.46211689  0.01867999  1
  S  S34  1  0.66023973  0.53861266  0.89466761  1
  S  S35  1  0.32533699  0.46160389  0.10022827  1
  S  S36  1  0.60077906  0.02606105  0.64719140  1
  S  S37  1  0.39656289  0.02342550  0.33430982  1
  S  S38  1  0.24364110  0.52080211  0.33365140  1
  S  S39  1  0.76456940  0.49173805  0.69214137  1
  S  S40  1  0.66522895  0.04167496  0.44389170  1
  S  S41  1  0.33177784  0.92165012  0.55192474  1
