# generated using pymatgen
data_Pr2Mn3(SbS3)4
_symmetry_space_group_name_H-M   'P 1'
_cell_length_a   20.02960800
_cell_length_b   3.90410600
_cell_length_c   14.95364829
_cell_angle_alpha   90.00000000
_cell_angle_beta   126.33350609
_cell_angle_gamma   90.00000000
_symmetry_Int_Tables_number   1
_chemical_formula_structural   Pr2Mn3(SbS3)4
_chemical_formula_sum   'Pr4 Mn6 Sb8 S24'
_cell_volume   942.00006694
_cell_formula_units_Z   2
loop_
 _symmetry_equiv_pos_site_id
 _symmetry_equiv_pos_as_xyz
  1  'x, y, z'
loop_
 _atom_site_type_symbol
 _atom_site_label
 _atom_site_symmetry_multiplicity
 _atom_site_fract_x
 _atom_site_fract_y
 _atom_site_fract_z
 _atom_site_occupancy
  Pr  Pr0  1  0.27667328  0.48610330  0.86753182  1
  Pr  Pr1  1  0.73307679  0.51657095  0.14196880  1
  Pr  Pr2  1  0.77212063  0.03631795  0.88086217  1
  Pr  Pr3  1  0.23450504  0.91201258  0.12923158  1
  Mn  Mn4  1  0.29347449  0.41675126  0.60368118  1
  Mn  Mn5  1  0.69126627  0.50199857  0.36128470  1
  Mn  Mn6  1  0.00656848  0.00955719  0.01929702  1
  Mn  Mn7  1  0.80202299  0.00929645  0.64267409  1
  Mn  Mn8  1  0.21293963  0.06092085  0.39690161  1
  Mn  Mn9  1  0.48676124  0.46970373  0.98743470  1
  Sb  Sb10  1  0.88346538  0.86584587  0.45846720  1
  Sb  Sb11  1  0.11293883  0.99507724  0.54133771  1
  Sb  Sb12  1  0.03600253  0.47678693  0.82284388  1
  Sb  Sb13  1  0.95956866  0.46809688  0.19227689  1
  Sb  Sb14  1  0.41341512  0.55119826  0.45958973  1
  Sb  Sb15  1  0.60718336  0.57750951  0.53683827  1
  Sb  Sb16  1  0.53116315  0.94664223  0.80243753  1
  Sb  Sb17  1  0.46191468  0.98493357  0.17722747  1
  S  S18  1  0.94067957  0.99081537  0.81359804  1
  S  S19  1  0.05712276  0.01267466  0.19847960  1
  S  S20  1  0.41567766  0.95785053  0.97229469  1
  S  S21  1  0.58028900  0.03446620  0.00760211  1
  S  S22  1  0.16723895  0.98177186  0.88452421  1
  S  S23  1  0.82585830  0.02042605  0.10416611  1
  S  S24  1  0.10314960  0.47716326  0.64439685  1
  S  S25  1  0.90122113  0.42981209  0.35738208  1
  S  S26  1  0.73339435  0.99706054  0.30085158  1
  S  S27  1  0.26238512  0.91340158  0.67545776  1
  S  S28  1  0.16589217  0.48036641  0.45496148  1
  S  S29  1  0.81528921  0.53706052  0.54460814  1
  S  S30  1  0.43375627  0.48027413  0.80637688  1
  S  S31  1  0.56005563  0.51426971  0.19052446  1
  S  S32  1  0.92034843  0.53120896  0.99511427  1
  S  S33  1  0.08524636  0.46200333  0.01830097  1
  S  S34  1  0.65984323  0.53895278  0.89458341  1
  S  S35  1  0.32521057  0.46095047  0.10018760  1
  S  S36  1  0.60094815  0.02675699  0.64742067  1
  S  S37  1  0.39666142  0.02397541  0.33457793  1
  S  S38  1  0.24353483  0.51998923  0.33329491  1
  S  S39  1  0.76451459  0.49207379  0.69214946  1
  S  S40  1  0.66557156  0.04278457  0.44401137  1
  S  S41  1  0.33166509  0.92152519  0.55184511  1
