# generated using pymatgen
data_Pr2Mn3(SbS3)4
_symmetry_space_group_name_H-M   'P 1'
_cell_length_a   20.02960800
_cell_length_b   3.90410600
_cell_length_c   14.95364829
_cell_angle_alpha   90.00000000
_cell_angle_beta   126.33350609
_cell_angle_gamma   90.00000000
_symmetry_Int_Tables_number   1
_chemical_formula_structural   Pr2Mn3(SbS3)4
_chemical_formula_sum   'Pr4 Mn6 Sb8 S24'
_cell_volume   942.00006694
_cell_formula_units_Z   2
loop_
 _symmetry_equiv_pos_site_id
 _symmetry_equiv_pos_as_xyz
  1  'x, y, z'
loop_
 _atom_site_type_symbol
 _atom_site_label
 _atom_site_symmetry_multiplicity
 _atom_site_fract_x
 _atom_site_fract_y
 _atom_site_fract_z
 _atom_site_occupancy
  Pr  Pr0  1  0.27676798  0.48614598  0.86744759  1
  Pr  Pr1  1  0.73302398  0.51637529  0.14191121  1
  Pr  Pr2  1  0.77205050  0.03560182  0.88072685  1
  Pr  Pr3  1  0.23445984  0.91237738  0.12927604  1
  Mn  Mn4  1  0.29332306  0.41618809  0.60362426  1
  Mn  Mn5  1  0.69123801  0.50299043  0.36129515  1
  Mn  Mn6  1  0.00640399  0.00925273  0.01901498  1
  Mn  Mn7  1  0.80214782  0.00921349  0.64269790  1
  Mn  Mn8  1  0.21288953  0.06034876  0.39681017  1
  Mn  Mn9  1  0.48666367  0.46996090  0.98746542  1
  Sb  Sb10  1  0.88344047  0.86559516  0.45828265  1
  Sb  Sb11  1  0.11289328  0.99610284  0.54122526  1
  Sb  Sb12  1  0.03602519  0.47690616  0.82284611  1
  Sb  Sb13  1  0.95961745  0.46776352  0.19227341  1
  Sb  Sb14  1  0.41341936  0.55105954  0.45963350  1
  Sb  Sb15  1  0.60711926  0.57747271  0.53676547  1
  Sb  Sb16  1  0.53095653  0.94666877  0.80238852  1
  Sb  Sb17  1  0.46197840  0.98460840  0.17729922  1
  S  S18  1  0.94080210  0.99124863  0.81390840  1
  S  S19  1  0.05685690  0.01136243  0.19849241  1
  S  S20  1  0.41559563  0.95773966  0.97217378  1
  S  S21  1  0.58016882  0.03313084  0.00751188  1
  S  S22  1  0.16740462  0.98177855  0.88480673  1
  S  S23  1  0.82573550  0.02087404  0.10399270  1
  S  S24  1  0.10272477  0.47793549  0.64433396  1
  S  S25  1  0.90116539  0.42912685  0.35735945  1
  S  S26  1  0.73343855  0.99684787  0.30074695  1
  S  S27  1  0.26250281  0.91406291  0.67553242  1
  S  S28  1  0.16586319  0.48094826  0.45485739  1
  S  S29  1  0.81546191  0.53643843  0.54483145  1
  S  S30  1  0.43390984  0.47948646  0.80645888  1
  S  S31  1  0.56000829  0.51406084  0.19051384  1
  S  S32  1  0.92054245  0.53156313  0.99506893  1
  S  S33  1  0.08526962  0.46163680  0.01815363  1
  S  S34  1  0.65943695  0.53928524  0.89431802  1
  S  S35  1  0.32507316  0.46040214  0.10016325  1
  S  S36  1  0.60104600  0.02699215  0.64746243  1
  S  S37  1  0.39678283  0.02470500  0.33486864  1
  S  S38  1  0.24323158  0.51922212  0.33279328  1
  S  S39  1  0.76443354  0.49215641  0.69206751  1
  S  S40  1  0.66576689  0.04389350  0.44404769  1
  S  S41  1  0.33163448  0.92164465  0.55193305  1
