# generated using pymatgen
data_Pr2Mn3(SbS3)4
_symmetry_space_group_name_H-M   'P 1'
_cell_length_a   20.02960800
_cell_length_b   3.90410600
_cell_length_c   14.95364829
_cell_angle_alpha   90.00000000
_cell_angle_beta   126.33350609
_cell_angle_gamma   90.00000000
_symmetry_Int_Tables_number   1
_chemical_formula_structural   Pr2Mn3(SbS3)4
_chemical_formula_sum   'Pr4 Mn6 Sb8 S24'
_cell_volume   942.00006694
_cell_formula_units_Z   2
loop_
 _symmetry_equiv_pos_site_id
 _symmetry_equiv_pos_as_xyz
  1  'x, y, z'
loop_
 _atom_site_type_symbol
 _atom_site_label
 _atom_site_symmetry_multiplicity
 _atom_site_fract_x
 _atom_site_fract_y
 _atom_site_fract_z
 _atom_site_occupancy
  Pr  Pr0  1  0.27689712  0.48622013  0.86742247  1
  Pr  Pr1  1  0.73296737  0.51621100  0.14181855  1
  Pr  Pr2  1  0.77196973  0.03492273  0.88066237  1
  Pr  Pr3  1  0.23442533  0.91249279  0.12934170  1
  Mn  Mn4  1  0.29325117  0.41563585  0.60359807  1
  Mn  Mn5  1  0.69118528  0.50364658  0.36127615  1
  Mn  Mn6  1  0.00627302  0.00859512  0.01870196  1
  Mn  Mn7  1  0.80226814  0.00899110  0.64267217  1
  Mn  Mn8  1  0.21290544  0.05988228  0.39677172  1
  Mn  Mn9  1  0.48651511  0.47030972  0.98746721  1
  Sb  Sb10  1  0.88335944  0.86577216  0.45809672  1
  Sb  Sb11  1  0.11286022  0.99695935  0.54112670  1
  Sb  Sb12  1  0.03605487  0.47702328  0.82294207  1
  Sb  Sb13  1  0.95968876  0.46760153  0.19230065  1
  Sb  Sb14  1  0.41342388  0.55107652  0.45977281  1
  Sb  Sb15  1  0.60710353  0.57727956  0.53665757  1
  Sb  Sb16  1  0.53074350  0.94654545  0.80237876  1
  Sb  Sb17  1  0.46210423  0.98447558  0.17745852  1
  S  S18  1  0.94093442  0.99136337  0.81406516  1
  S  S19  1  0.05657165  0.01055188  0.19861343  1
  S  S20  1  0.41552865  0.95769534  0.97218757  1
  S  S21  1  0.58027467  0.03176524  0.00759100  1
  S  S22  1  0.16753354  0.98212184  0.88495430  1
  S  S23  1  0.82561598  0.02110850  0.10372735  1
  S  S24  1  0.10246074  0.47869694  0.64431386  1
  S  S25  1  0.90124640  0.42850421  0.35744400  1
  S  S26  1  0.73350456  0.99701263  0.30077624  1
  S  S27  1  0.26248584  0.91480007  0.67552451  1
  S  S28  1  0.16582934  0.48175813  0.45483334  1
  S  S29  1  0.81563325  0.53585873  0.54500519  1
  S  S30  1  0.43388128  0.47866804  0.80634328  1
  S  S31  1  0.56001464  0.51373297  0.19058553  1
  S  S32  1  0.92062836  0.53129558  0.99491815  1
  S  S33  1  0.08532640  0.46129640  0.01811934  1
  S  S34  1  0.65911258  0.53990500  0.89423061  1
  S  S35  1  0.32498117  0.45961354  0.10011844  1
  S  S36  1  0.60118447  0.02684403  0.64772278  1
  S  S37  1  0.39675043  0.02509834  0.33499552  1
  S  S38  1  0.24293629  0.51822889  0.33238667  1
  S  S39  1  0.76425931  0.49171817  0.69192816  1
  S  S40  1  0.66599253  0.04448310  0.44400227  1
  S  S41  1  0.33155795  0.92212523  0.55190046  1
