# generated using pymatgen
data_Pr2Mn3(SbS3)4
_symmetry_space_group_name_H-M   'P 1'
_cell_length_a   20.02960800
_cell_length_b   3.90410600
_cell_length_c   14.95364829
_cell_angle_alpha   90.00000000
_cell_angle_beta   126.33350609
_cell_angle_gamma   90.00000000
_symmetry_Int_Tables_number   1
_chemical_formula_structural   Pr2Mn3(SbS3)4
_chemical_formula_sum   'Pr4 Mn6 Sb8 S24'
_cell_volume   942.00006694
_cell_formula_units_Z   2
loop_
 _symmetry_equiv_pos_site_id
 _symmetry_equiv_pos_as_xyz
  1  'x, y, z'
loop_
 _atom_site_type_symbol
 _atom_site_label
 _atom_site_symmetry_multiplicity
 _atom_site_fract_x
 _atom_site_fract_y
 _atom_site_fract_z
 _atom_site_occupancy
  Pr  Pr0  1  0.27701015  0.48592456  0.86731294  1
  Pr  Pr1  1  0.73297971  0.51638922  0.14175961  1
  Pr  Pr2  1  0.77196201  0.03447483  0.88073497  1
  Pr  Pr3  1  0.23444571  0.91266992  0.12947079  1
  Mn  Mn4  1  0.29322653  0.41558825  0.60358254  1
  Mn  Mn5  1  0.69112385  0.50425524  0.36130806  1
  Mn  Mn6  1  0.00609723  0.00772006  0.01836530  1
  Mn  Mn7  1  0.80246293  0.00884960  0.64266299  1
  Mn  Mn8  1  0.21288750  0.05931669  0.39667739  1
  Mn  Mn9  1  0.48642924  0.47018275  0.98757311  1
  Sb  Sb10  1  0.88326833  0.86581385  0.45788787  1
  Sb  Sb11  1  0.11283712  0.99757312  0.54101106  1
  Sb  Sb12  1  0.03608024  0.47724680  0.82302280  1
  Sb  Sb13  1  0.95974715  0.46769185  0.19227713  1
  Sb  Sb14  1  0.41355133  0.55088833  0.45992810  1
  Sb  Sb15  1  0.60709640  0.57731218  0.53654263  1
  Sb  Sb16  1  0.53061014  0.94651264  0.80246078  1
  Sb  Sb17  1  0.46221224  0.98458805  0.17760139  1
  S  S18  1  0.94102649  0.99123522  0.81415818  1
  S  S19  1  0.05631669  0.00997101  0.19868930  1
  S  S20  1  0.41553722  0.95799205  0.97211619  1
  S  S21  1  0.58038934  0.03031485  0.00759814  1
  S  S22  1  0.16755932  0.98273334  0.88486997  1
  S  S23  1  0.82554856  0.02147750  0.10354022  1
  S  S24  1  0.10215299  0.47940138  0.64429996  1
  S  S25  1  0.90134776  0.42820981  0.35771602  1
  S  S26  1  0.73355326  0.99754767  0.30067883  1
  S  S27  1  0.26256991  0.91571164  0.67547532  1
  S  S28  1  0.16580752  0.48256848  0.45476544  1
  S  S29  1  0.81580020  0.53502091  0.54518347  1
  S  S30  1  0.43380048  0.47783465  0.80622509  1
  S  S31  1  0.56003750  0.51353261  0.19049493  1
  S  S32  1  0.92078880  0.53105570  0.99491881  1
  S  S33  1  0.08534737  0.46086975  0.01795895  1
  S  S34  1  0.65879676  0.54039076  0.89402316  1
  S  S35  1  0.32493835  0.45947541  0.10015045  1
  S  S36  1  0.60128248  0.02682258  0.64795307  1
  S  S37  1  0.39670467  0.02477417  0.33520661  1
  S  S38  1  0.24269777  0.51729258  0.33190849  1
  S  S39  1  0.76415502  0.49131211  0.69184544  1
  S  S40  1  0.66630019  0.04488279  0.44402299  1
  S  S41  1  0.33146405  0.92188764  0.55187274  1
