# generated using pymatgen
data_Pr2Mn3(SbS3)4
_symmetry_space_group_name_H-M   'P 1'
_cell_length_a   20.02960800
_cell_length_b   3.90410600
_cell_length_c   14.95364829
_cell_angle_alpha   90.00000000
_cell_angle_beta   126.33350609
_cell_angle_gamma   90.00000000
_symmetry_Int_Tables_number   1
_chemical_formula_structural   Pr2Mn3(SbS3)4
_chemical_formula_sum   'Pr4 Mn6 Sb8 S24'
_cell_volume   942.00006694
_cell_formula_units_Z   2
loop_
 _symmetry_equiv_pos_site_id
 _symmetry_equiv_pos_as_xyz
  1  'x, y, z'
loop_
 _atom_site_type_symbol
 _atom_site_label
 _atom_site_symmetry_multiplicity
 _atom_site_fract_x
 _atom_site_fract_y
 _atom_site_fract_z
 _atom_site_occupancy
  Pr  Pr0  1  0.27711955  0.48558217  0.86720790  1
  Pr  Pr1  1  0.73297338  0.51645020  0.14171812  1
  Pr  Pr2  1  0.77198744  0.03418012  0.88080958  1
  Pr  Pr3  1  0.23444398  0.91282766  0.12958642  1
  Mn  Mn4  1  0.29326457  0.41572170  0.60350920  1
  Mn  Mn5  1  0.69109327  0.50469069  0.36130035  1
  Mn  Mn6  1  0.00591731  0.00693463  0.01809654  1
  Mn  Mn7  1  0.80271142  0.00898495  0.64272654  1
  Mn  Mn8  1  0.21296994  0.05847244  0.39662185  1
  Mn  Mn9  1  0.48639612  0.46997237  0.98772998  1
  Sb  Sb10  1  0.88322644  0.86582680  0.45774074  1
  Sb  Sb11  1  0.11288910  0.99785023  0.54097610  1
  Sb  Sb12  1  0.03614170  0.47765825  0.82311554  1
  Sb  Sb13  1  0.95985392  0.46777794  0.19231953  1
  Sb  Sb14  1  0.41373761  0.55042934  0.46012122  1
  Sb  Sb15  1  0.60707519  0.57715587  0.53641965  1
  Sb  Sb16  1  0.53051962  0.94624352  0.80257196  1
  Sb  Sb17  1  0.46237658  0.98477644  0.17780039  1
  S  S18  1  0.94120367  0.99057726  0.81436691  1
  S  S19  1  0.05608716  0.00962937  0.19884614  1
  S  S20  1  0.41559765  0.95804400  0.97210251  1
  S  S21  1  0.58050874  0.02883938  0.00764024  1
  S  S22  1  0.16764636  0.98324764  0.88483063  1
  S  S23  1  0.82547116  0.02203219  0.10332053  1
  S  S24  1  0.10184811  0.47939380  0.64430778  1
  S  S25  1  0.90134855  0.42811830  0.35793335  1
  S  S26  1  0.73354404  0.99873556  0.30043228  1
  S  S27  1  0.26275449  0.91713020  0.67545116  1
  S  S28  1  0.16592652  0.48327009  0.45463822  1
  S  S29  1  0.81587181  0.53412626  0.54543462  1
  S  S30  1  0.43369315  0.47685504  0.80615004  1
  S  S31  1  0.56012394  0.51340892  0.19058917  1
  S  S32  1  0.92082263  0.53107301  0.99472573  1
  S  S33  1  0.08533304  0.46014074  0.01767821  1
  S  S34  1  0.65834416  0.54071861  0.89371987  1
  S  S35  1  0.32484066  0.45955339  0.10017400  1
  S  S36  1  0.60140950  0.02624945  0.64826629  1
  S  S37  1  0.39671315  0.02472617  0.33535715  1
  S  S38  1  0.24251703  0.51674141  0.33145941  1
  S  S39  1  0.76412017  0.49106272  0.69189976  1
  S  S40  1  0.66667300  0.04551121  0.44411148  1
  S  S41  1  0.33140921  0.92130378  0.55182308  1
