# generated using pymatgen
data_Pr2Mn3(SbS3)4
_symmetry_space_group_name_H-M   'P 1'
_cell_length_a   20.02960800
_cell_length_b   3.90410600
_cell_length_c   14.95364829
_cell_angle_alpha   90.00000000
_cell_angle_beta   126.33350609
_cell_angle_gamma   90.00000000
_symmetry_Int_Tables_number   1
_chemical_formula_structural   Pr2Mn3(SbS3)4
_chemical_formula_sum   'Pr4 Mn6 Sb8 S24'
_cell_volume   942.00006694
_cell_formula_units_Z   2
loop_
 _symmetry_equiv_pos_site_id
 _symmetry_equiv_pos_as_xyz
  1  'x, y, z'
loop_
 _atom_site_type_symbol
 _atom_site_label
 _atom_site_symmetry_multiplicity
 _atom_site_fract_x
 _atom_site_fract_y
 _atom_site_fract_z
 _atom_site_occupancy
  Pr  Pr0  1  0.27713394  0.48516926  0.86704721  1
  Pr  Pr1  1  0.73297919  0.51650183  0.14164165  1
  Pr  Pr2  1  0.77206734  0.03382657  0.88083564  1
  Pr  Pr3  1  0.23444147  0.91291591  0.12970297  1
  Mn  Mn4  1  0.29333104  0.41613748  0.60336345  1
  Mn  Mn5  1  0.69107964  0.50511586  0.36139786  1
  Mn  Mn6  1  0.00574980  0.00619320  0.01791082  1
  Mn  Mn7  1  0.80278364  0.00919932  0.64269566  1
  Mn  Mn8  1  0.21312023  0.05793706  0.39661425  1
  Mn  Mn9  1  0.48641834  0.47007336  0.98805162  1
  Sb  Sb10  1  0.88321180  0.86613611  0.45766569  1
  Sb  Sb11  1  0.11289713  0.99813266  0.54100575  1
  Sb  Sb12  1  0.03621434  0.47807541  0.82325783  1
  Sb  Sb13  1  0.96001054  0.46780576  0.19238560  1
  Sb  Sb14  1  0.41390047  0.54994390  0.46024068  1
  Sb  Sb15  1  0.60707120  0.57709782  0.53634461  1
  Sb  Sb16  1  0.53043882  0.94604591  0.80266115  1
  Sb  Sb17  1  0.46254047  0.98482254  0.17803457  1
  S  S18  1  0.94125895  0.99017444  0.81455991  1
  S  S19  1  0.05597122  0.00907992  0.19900976  1
  S  S20  1  0.41557349  0.95846484  0.97213352  1
  S  S21  1  0.58067872  0.02728862  0.00777753  1
  S  S22  1  0.16771952  0.98418326  0.88488429  1
  S  S23  1  0.82534641  0.02241313  0.10303952  1
  S  S24  1  0.10159358  0.47958540  0.64445738  1
  S  S25  1  0.90140155  0.42791621  0.35813110  1
  S  S26  1  0.73344251  0.00002429  0.30015021  1
  S  S27  1  0.26302525  0.91890198  0.67561245  1
  S  S28  1  0.16587767  0.48373522  0.45450846  1
  S  S29  1  0.81595689  0.53403580  0.54578289  1
  S  S30  1  0.43361927  0.47575924  0.80602280  1
  S  S31  1  0.56022134  0.51367276  0.19080702  1
  S  S32  1  0.92092889  0.53092982  0.99459324  1
  S  S33  1  0.08532742  0.45941900  0.01739218  1
  S  S34  1  0.65786808  0.54129903  0.89325199  1
  S  S35  1  0.32482552  0.45953238  0.10035044  1
  S  S36  1  0.60159833  0.02555587  0.64856049  1
  S  S37  1  0.39668319  0.02456500  0.33539244  1
  S  S38  1  0.24224970  0.51654649  0.33103792  1
  S  S39  1  0.76406413  0.49091863  0.69196048  1
  S  S40  1  0.66697494  0.04621568  0.44406258  1
  S  S41  1  0.33136708  0.92096062  0.55184431  1
