# generated using pymatgen
data_Pr2Mn3(SbS3)4
_symmetry_space_group_name_H-M   'P 1'
_cell_length_a   20.02960800
_cell_length_b   3.90410600
_cell_length_c   14.95364829
_cell_angle_alpha   90.00000000
_cell_angle_beta   126.33350609
_cell_angle_gamma   90.00000000
_symmetry_Int_Tables_number   1
_chemical_formula_structural   Pr2Mn3(SbS3)4
_chemical_formula_sum   'Pr4 Mn6 Sb8 S24'
_cell_volume   942.00006694
_cell_formula_units_Z   2
loop_
 _symmetry_equiv_pos_site_id
 _symmetry_equiv_pos_as_xyz
  1  'x, y, z'
loop_
 _atom_site_type_symbol
 _atom_site_label
 _atom_site_symmetry_multiplicity
 _atom_site_fract_x
 _atom_site_fract_y
 _atom_site_fract_z
 _atom_site_occupancy
  Pr  Pr0  1  0.27713536  0.48481635  0.86692001  1
  Pr  Pr1  1  0.73293141  0.51667586  0.14156623  1
  Pr  Pr2  1  0.77215898  0.03354011  0.88088744  1
  Pr  Pr3  1  0.23438408  0.91306161  0.12966444  1
  Mn  Mn4  1  0.29341040  0.41652327  0.60324939  1
  Mn  Mn5  1  0.69099954  0.50524291  0.36145369  1
  Mn  Mn6  1  0.00562343  0.00563085  0.01776855  1
  Mn  Mn7  1  0.80270582  0.00913650  0.64255426  1
  Mn  Mn8  1  0.21320181  0.05762588  0.39654587  1
  Mn  Mn9  1  0.48638168  0.47026549  0.98831835  1
  Sb  Sb10  1  0.88318717  0.86636237  0.45751725  1
  Sb  Sb11  1  0.11287054  0.99851509  0.54100094  1
  Sb  Sb12  1  0.03624683  0.47836052  0.82341908  1
  Sb  Sb13  1  0.96017314  0.46776076  0.19244779  1
  Sb  Sb14  1  0.41408196  0.54945383  0.46044019  1
  Sb  Sb15  1  0.60709678  0.57714483  0.53624912  1
  Sb  Sb16  1  0.53035696  0.94604659  0.80274591  1
  Sb  Sb17  1  0.46267402  0.98486723  0.17823510  1
  S  S18  1  0.94122686  0.99014297  0.81460328  1
  S  S19  1  0.05585979  0.00879110  0.19922594  1
  S  S20  1  0.41547904  0.95905319  0.97207177  1
  S  S21  1  0.58079103  0.02623762  0.00793521  1
  S  S22  1  0.16789785  0.98483516  0.88507759  1
  S  S23  1  0.82521152  0.02263033  0.10277737  1
  S  S24  1  0.10133898  0.47924037  0.64438992  1
  S  S25  1  0.90137148  0.42783932  0.35813862  1
  S  S26  1  0.73339905  0.00123655  0.29997775  1
  S  S27  1  0.26334956  0.91997095  0.67579695  1
  S  S28  1  0.16583899  0.48409711  0.45439293  1
  S  S29  1  0.81618660  0.53389554  0.54617205  1
  S  S30  1  0.43360779  0.47431015  0.80593048  1
  S  S31  1  0.56019737  0.51364317  0.19090851  1
  S  S32  1  0.92099613  0.53043790  0.99426781  1
  S  S33  1  0.08532755  0.45863418  0.01713330  1
  S  S34  1  0.65748233  0.54203337  0.89293840  1
  S  S35  1  0.32486547  0.45956632  0.10046516  1
  S  S36  1  0.60167074  0.02519951  0.64874714  1
  S  S37  1  0.39667810  0.02424053  0.33538201  1
  S  S38  1  0.24209186  0.51653941  0.33069909  1
  S  S39  1  0.76409399  0.49058417  0.69211601  1
  S  S40  1  0.66723737  0.04673669  0.44406730  1
  S  S41  1  0.33131921  0.92086384  0.55180776  1
