# generated using pymatgen
data_Pr2Mn3(SbS3)4
_symmetry_space_group_name_H-M   'P 1'
_cell_length_a   20.02960800
_cell_length_b   3.90410600
_cell_length_c   14.95364829
_cell_angle_alpha   90.00000000
_cell_angle_beta   126.33350609
_cell_angle_gamma   90.00000000
_symmetry_Int_Tables_number   1
_chemical_formula_structural   Pr2Mn3(SbS3)4
_chemical_formula_sum   'Pr4 Mn6 Sb8 S24'
_cell_volume   942.00006694
_cell_formula_units_Z   2
loop_
 _symmetry_equiv_pos_site_id
 _symmetry_equiv_pos_as_xyz
  1  'x, y, z'
loop_
 _atom_site_type_symbol
 _atom_site_label
 _atom_site_symmetry_multiplicity
 _atom_site_fract_x
 _atom_site_fract_y
 _atom_site_fract_z
 _atom_site_occupancy
  Pr  Pr0  1  0.27708119  0.48437770  0.86681347  1
  Pr  Pr1  1  0.73292427  0.51668774  0.14152217  1
  Pr  Pr2  1  0.77222990  0.03330391  0.88096294  1
  Pr  Pr3  1  0.23430354  0.91307028  0.12957602  1
  Mn  Mn4  1  0.29349471  0.41649120  0.60315462  1
  Mn  Mn5  1  0.69114203  0.50539457  0.36159557  1
  Mn  Mn6  1  0.00550037  0.00517308  0.01758548  1
  Mn  Mn7  1  0.80281840  0.00922910  0.64254529  1
  Mn  Mn8  1  0.21326811  0.05718562  0.39632793  1
  Mn  Mn9  1  0.48634874  0.47042188  0.98852002  1
  Sb  Sb10  1  0.88312440  0.86651892  0.45731620  1
  Sb  Sb11  1  0.11285861  0.99883970  0.54099084  1
  Sb  Sb12  1  0.03628057  0.47860433  0.82357712  1
  Sb  Sb13  1  0.96027335  0.46766178  0.19245986  1
  Sb  Sb14  1  0.41432198  0.54871033  0.46065800  1
  Sb  Sb15  1  0.60711130  0.57736817  0.53620432  1
  Sb  Sb16  1  0.53022886  0.94585454  0.80281159  1
  Sb  Sb17  1  0.46281628  0.98483660  0.17846737  1
  S  S18  1  0.94116294  0.99034901  0.81470344  1
  S  S19  1  0.05595531  0.00869760  0.19959975  1
  S  S20  1  0.41526634  0.96012646  0.97194481  1
  S  S21  1  0.58093974  0.02547539  0.00806688  1
  S  S22  1  0.16813948  0.98537172  0.88540811  1
  S  S23  1  0.82516177  0.02277887  0.10250543  1
  S  S24  1  0.10105111  0.47877391  0.64426962  1
  S  S25  1  0.90143404  0.42779264  0.35828417  1
  S  S26  1  0.73332348  0.00220050  0.29976742  1
  S  S27  1  0.26342599  0.92117279  0.67574200  1
  S  S28  1  0.16597455  0.48424497  0.45446852  1
  S  S29  1  0.81644114  0.53359245  0.54663453  1
  S  S30  1  0.43350270  0.47261480  0.80577436  1
  S  S31  1  0.56017292  0.51341908  0.19096835  1
  S  S32  1  0.92098079  0.53045408  0.99393465  1
  S  S33  1  0.08536491  0.45797595  0.01699601  1
  S  S34  1  0.65718497  0.54252387  0.89269622  1
  S  S35  1  0.32495734  0.45967036  0.10070903  1
  S  S36  1  0.60172373  0.02480720  0.64888018  1
  S  S37  1  0.39668550  0.02379244  0.33529155  1
  S  S38  1  0.24189671  0.51670646  0.33033878  1
  S  S39  1  0.76407305  0.49020836  0.69221977  1
  S  S40  1  0.66733055  0.04690508  0.44392209  1
  S  S41  1  0.33138874  0.92037039  0.55197995  1
