# generated using pymatgen
data_Pr2Mn3(SbS3)4
_symmetry_space_group_name_H-M   'P 1'
_cell_length_a   20.02960800
_cell_length_b   3.90410600
_cell_length_c   14.95364829
_cell_angle_alpha   90.00000000
_cell_angle_beta   126.33350609
_cell_angle_gamma   90.00000000
_symmetry_Int_Tables_number   1
_chemical_formula_structural   Pr2Mn3(SbS3)4
_chemical_formula_sum   'Pr4 Mn6 Sb8 S24'
_cell_volume   942.00006694
_cell_formula_units_Z   2
loop_
 _symmetry_equiv_pos_site_id
 _symmetry_equiv_pos_as_xyz
  1  'x, y, z'
loop_
 _atom_site_type_symbol
 _atom_site_label
 _atom_site_symmetry_multiplicity
 _atom_site_fract_x
 _atom_site_fract_y
 _atom_site_fract_z
 _atom_site_occupancy
  Pr  Pr0  1  0.26487745  0.46991120  0.86688158  1
  Pr  Pr1  1  0.73597848  0.52408865  0.13678858  1
  Pr  Pr2  1  0.76497285  0.01267986  0.86470155  1
  Pr  Pr3  1  0.23832403  0.00652421  0.13835437  1
  Mn  Mn4  1  0.29422017  0.48614891  0.60199416  1
  Mn  Mn5  1  0.69213962  0.51306386  0.38088985  1
  Mn  Mn6  1  0.00910182  0.99901218  0.01451306  1
  Mn  Mn7  1  0.80454649  0.01208689  0.61444171  1
  Mn  Mn8  1  0.19711097  0.97340954  0.37868262  1
  Mn  Mn9  1  0.49554563  0.45428359  0.98984235  1
  Sb  Sb10  1  0.89002397  0.98664863  0.45098562  1
  Sb  Sb11  1  0.11141059  0.97194720  0.54851703  1
  Sb  Sb12  1  0.03865885  0.51929062  0.81743329  1
  Sb  Sb13  1  0.96588976  0.50860830  0.18661890  1
  Sb  Sb14  1  0.39588333  0.51477229  0.45556681  1
  Sb  Sb15  1  0.60643043  0.47523162  0.54732000  1
  Sb  Sb16  1  0.53489917  0.00633015  0.81071502  1
  Sb  Sb17  1  0.46025235  0.01464181  0.18132217  1
  S  S18  1  0.93284804  0.98929554  0.80263081  1
  S  S19  1  0.06722728  0.98532339  0.18880586  1
  S  S20  1  0.40947082  0.99158446  0.98121627  1
  S  S21  1  0.59060699  0.99242960  0.01899080  1
  S  S22  1  0.16918153  0.00752441  0.89629533  1
  S  S23  1  0.82404503  0.01582365  0.09626917  1
  S  S24  1  0.08890072  0.48386943  0.64249392  1
  S  S25  1  0.90805800  0.46613809  0.35386931  1
  S  S26  1  0.73998419  0.95490674  0.29710342  1
  S  S27  1  0.26103164  0.00109674  0.70801554  1
  S  S28  1  0.16635539  0.47254810  0.43915218  1
  S  S29  1  0.82959958  0.48994057  0.54806294  1
  S  S30  1  0.43293886  0.49935821  0.79410404  1
  S  S31  1  0.56226673  0.50756363  0.18182773  1
  S  S32  1  0.91429140  0.51144200  0.99032683  1
  S  S33  1  0.08419315  0.48575587  0.01522840  1
  S  S34  1  0.66718224  0.50114261  0.88975807  1
  S  S35  1  0.32787058  0.51440563  0.09154614  1
  S  S36  1  0.59676906  0.99662093  0.66085169  1
  S  S37  1  0.40579276  0.97385530  0.34732857  1
  S  S38  1  0.24636256  0.44457680  0.31138702  1
  S  S39  1  0.76685944  0.49903464  0.70451373  1
  S  S40  1  0.67077434  0.03258562  0.45282142  1
  S  S41  1  0.32344185  0.96657421  0.54376825  1
