# generated using pymatgen
data_Pr2Mn3(SbS3)4
_symmetry_space_group_name_H-M   'P 1'
_cell_length_a   20.02960800
_cell_length_b   3.90410600
_cell_length_c   14.95364829
_cell_angle_alpha   90.00000000
_cell_angle_beta   126.33350609
_cell_angle_gamma   90.00000000
_symmetry_Int_Tables_number   1
_chemical_formula_structural   Pr2Mn3(SbS3)4
_chemical_formula_sum   'Pr4 Mn6 Sb8 S24'
_cell_volume   942.00006694
_cell_formula_units_Z   2
loop_
 _symmetry_equiv_pos_site_id
 _symmetry_equiv_pos_as_xyz
  1  'x, y, z'
loop_
 _atom_site_type_symbol
 _atom_site_label
 _atom_site_symmetry_multiplicity
 _atom_site_fract_x
 _atom_site_fract_y
 _atom_site_fract_z
 _atom_site_occupancy
  Pr  Pr0  1  0.27703656  0.48392024  0.86669098  1
  Pr  Pr1  1  0.73291486  0.51695765  0.14151955  1
  Pr  Pr2  1  0.77231438  0.03290804  0.88106569  1
  Pr  Pr3  1  0.23424418  0.91279029  0.12947602  1
  Mn  Mn4  1  0.29353090  0.41638161  0.60316800  1
  Mn  Mn5  1  0.69136190  0.50511742  0.36171886  1
  Mn  Mn6  1  0.00548779  0.00455160  0.01746562  1
  Mn  Mn7  1  0.80297506  0.00948728  0.64255199  1
  Mn  Mn8  1  0.21336611  0.05661618  0.39615988  1
  Mn  Mn9  1  0.48635880  0.47061822  0.98868483  1
  Sb  Sb10  1  0.88310880  0.86667141  0.45720661  1
  Sb  Sb11  1  0.11280242  0.99912713  0.54088217  1
  Sb  Sb12  1  0.03630778  0.47889056  0.82371851  1
  Sb  Sb13  1  0.96035554  0.46756836  0.19250290  1
  Sb  Sb14  1  0.41457846  0.54794292  0.46090533  1
  Sb  Sb15  1  0.60712592  0.57753439  0.53613765  1
  Sb  Sb16  1  0.53012375  0.94591728  0.80281296  1
  Sb  Sb17  1  0.46294610  0.98515615  0.17869077  1
  S  S18  1  0.94115927  0.99038791  0.81494415  1
  S  S19  1  0.05599790  0.00893473  0.19980844  1
  S  S20  1  0.41515221  0.96111825  0.97191690  1
  S  S21  1  0.58098716  0.02458851  0.00804507  1
  S  S22  1  0.16834040  0.98572425  0.88562083  1
  S  S23  1  0.82519225  0.02281389  0.10235012  1
  S  S24  1  0.10072206  0.47840950  0.64405679  1
  S  S25  1  0.90153317  0.42800652  0.35848609  1
  S  S26  1  0.73340596  0.00323621  0.29978497  1
  S  S27  1  0.26344390  0.92221096  0.67575830  1
  S  S28  1  0.16606704  0.48492765  0.45454819  1
  S  S29  1  0.81658800  0.53279403  0.54704876  1
  S  S30  1  0.43347131  0.47109660  0.80560488  1
  S  S31  1  0.56021468  0.51342729  0.19113993  1
  S  S32  1  0.92093473  0.53033888  0.99368433  1
  S  S33  1  0.08533200  0.45737530  0.01678291  1
  S  S34  1  0.65694721  0.54286188  0.89250378  1
  S  S35  1  0.32504896  0.45891724  0.10098184  1
  S  S36  1  0.60188274  0.02488304  0.64917791  1
  S  S37  1  0.39683455  0.02330567  0.33544451  1
  S  S38  1  0.24178574  0.51637684  0.33005598  1
  S  S39  1  0.76412607  0.48953197  0.69242088  1
  S  S40  1  0.66734267  0.04653061  0.44362253  1
  S  S41  1  0.33154602  0.92046021  0.55218988  1
