# generated using pymatgen
data_Pr2Mn3(SbS3)4
_symmetry_space_group_name_H-M   'P 1'
_cell_length_a   20.02960800
_cell_length_b   3.90410600
_cell_length_c   14.95364829
_cell_angle_alpha   90.00000000
_cell_angle_beta   126.33350609
_cell_angle_gamma   90.00000000
_symmetry_Int_Tables_number   1
_chemical_formula_structural   Pr2Mn3(SbS3)4
_chemical_formula_sum   'Pr4 Mn6 Sb8 S24'
_cell_volume   942.00006694
_cell_formula_units_Z   2
loop_
 _symmetry_equiv_pos_site_id
 _symmetry_equiv_pos_as_xyz
  1  'x, y, z'
loop_
 _atom_site_type_symbol
 _atom_site_label
 _atom_site_symmetry_multiplicity
 _atom_site_fract_x
 _atom_site_fract_y
 _atom_site_fract_z
 _atom_site_occupancy
  Pr  Pr0  1  0.27697061  0.48314324  0.86657720  1
  Pr  Pr1  1  0.73293028  0.51719338  0.14156801  1
  Pr  Pr2  1  0.77232109  0.03272110  0.88105178  1
  Pr  Pr3  1  0.23415711  0.91263579  0.12938403  1
  Mn  Mn4  1  0.29348305  0.41622738  0.60308684  1
  Mn  Mn5  1  0.69161932  0.50510205  0.36183878  1
  Mn  Mn6  1  0.00549600  0.00392568  0.01733943  1
  Mn  Mn7  1  0.80309090  0.00943001  0.64255785  1
  Mn  Mn8  1  0.21340040  0.05583677  0.39584973  1
  Mn  Mn9  1  0.48640418  0.47093124  0.98882136  1
  Sb  Sb10  1  0.88311498  0.86685966  0.45709008  1
  Sb  Sb11  1  0.11272289  0.99933973  0.54073295  1
  Sb  Sb12  1  0.03635625  0.47924122  0.82385208  1
  Sb  Sb13  1  0.96050276  0.46717600  0.19255310  1
  Sb  Sb14  1  0.41477830  0.54751764  0.46105513  1
  Sb  Sb15  1  0.60717758  0.57748199  0.53608643  1
  Sb  Sb16  1  0.53002480  0.94614786  0.80282587  1
  Sb  Sb17  1  0.46296267  0.98580085  0.17885436  1
  S  S18  1  0.94118006  0.99030733  0.81528039  1
  S  S19  1  0.05597290  0.00926254  0.19991651  1
  S  S20  1  0.41506345  0.96237425  0.97185715  1
  S  S21  1  0.58095608  0.02349634  0.00784999  1
  S  S22  1  0.16855713  0.98596132  0.88589782  1
  S  S23  1  0.82536603  0.02286153  0.10221697  1
  S  S24  1  0.10035401  0.47734101  0.64391396  1
  S  S25  1  0.90155595  0.42787490  0.35852866  1
  S  S26  1  0.73354325  0.00475723  0.29967873  1
  S  S27  1  0.26350739  0.92332368  0.67583986  1
  S  S28  1  0.16616005  0.48528241  0.45465757  1
  S  S29  1  0.81647300  0.53225789  0.54734466  1
  S  S30  1  0.43331788  0.46947598  0.80541536  1
  S  S31  1  0.56032104  0.51323219  0.19132535  1
  S  S32  1  0.92090469  0.53083574  0.99348351  1
  S  S33  1  0.08526661  0.45664577  0.01663413  1
  S  S34  1  0.65688048  0.54333094  0.89243463  1
  S  S35  1  0.32513021  0.45835764  0.10127581  1
  S  S36  1  0.60209436  0.02522816  0.64947020  1
  S  S37  1  0.39702001  0.02270543  0.33565464  1
  S  S38  1  0.24172788  0.51580223  0.32973693  1
  S  S39  1  0.76425624  0.48935204  0.69270203  1
  S  S40  1  0.66758097  0.04643106  0.44350644  1
  S  S41  1  0.33168735  0.92038950  0.55230100  1
