# generated using pymatgen
data_Pr2Mn3(SbS3)4
_symmetry_space_group_name_H-M   'P 1'
_cell_length_a   20.02960800
_cell_length_b   3.90410600
_cell_length_c   14.95364829
_cell_angle_alpha   90.00000000
_cell_angle_beta   126.33350609
_cell_angle_gamma   90.00000000
_symmetry_Int_Tables_number   1
_chemical_formula_structural   Pr2Mn3(SbS3)4
_chemical_formula_sum   'Pr4 Mn6 Sb8 S24'
_cell_volume   942.00006694
_cell_formula_units_Z   2
loop_
 _symmetry_equiv_pos_site_id
 _symmetry_equiv_pos_as_xyz
  1  'x, y, z'
loop_
 _atom_site_type_symbol
 _atom_site_label
 _atom_site_symmetry_multiplicity
 _atom_site_fract_x
 _atom_site_fract_y
 _atom_site_fract_z
 _atom_site_occupancy
  Pr  Pr0  1  0.27694379  0.48236464  0.86650728  1
  Pr  Pr1  1  0.73294828  0.51752235  0.14166977  1
  Pr  Pr2  1  0.77234588  0.03267145  0.88100002  1
  Pr  Pr3  1  0.23405107  0.91242754  0.12927092  1
  Mn  Mn4  1  0.29336644  0.41582025  0.60300997  1
  Mn  Mn5  1  0.69181734  0.50499702  0.36201717  1
  Mn  Mn6  1  0.00547411  0.00382265  0.01725677  1
  Mn  Mn7  1  0.80321084  0.00950905  0.64258796  1
  Mn  Mn8  1  0.21337176  0.05482693  0.39553118  1
  Mn  Mn9  1  0.48648153  0.47121690  0.98900889  1
  Sb  Sb10  1  0.88310963  0.86691925  0.45694137  1
  Sb  Sb11  1  0.11264236  0.99952328  0.54066353  1
  Sb  Sb12  1  0.03642807  0.47963913  0.82397086  1
  Sb  Sb13  1  0.96060096  0.46715085  0.19260022  1
  Sb  Sb14  1  0.41493174  0.54721439  0.46117677  1
  Sb  Sb15  1  0.60724407  0.57756943  0.53607137  1
  Sb  Sb16  1  0.52998798  0.94620858  0.80284245  1
  Sb  Sb17  1  0.46306630  0.98636211  0.17914361  1
  S  S18  1  0.94112581  0.99027407  0.81555504  1
  S  S19  1  0.05595837  0.00964633  0.20001235  1
  S  S20  1  0.41507674  0.96403993  0.97177628  1
  S  S21  1  0.58087733  0.02238392  0.00764620  1
  S  S22  1  0.16889423  0.98575078  0.88613302  1
  S  S23  1  0.82564913  0.02280727  0.10212585  1
  S  S24  1  0.09999527  0.47666547  0.64373256  1
  S  S25  1  0.90160392  0.42774150  0.35850426  1
  S  S26  1  0.73365867  0.00591259  0.29958661  1
  S  S27  1  0.26363309  0.92379062  0.67600597  1
  S  S28  1  0.16619314  0.48571028  0.45452024  1
  S  S29  1  0.81643908  0.53222038  0.54761870  1
  S  S30  1  0.43316105  0.46798540  0.80513748  1
  S  S31  1  0.56048207  0.51339676  0.19151638  1
  S  S32  1  0.92084584  0.53133451  0.99316151  1
  S  S33  1  0.08517583  0.45603633  0.01645224  1
  S  S34  1  0.65677552  0.54304557  0.89221684  1
  S  S35  1  0.32526230  0.45778165  0.10150534  1
  S  S36  1  0.60227158  0.02561579  0.64970074  1
  S  S37  1  0.39721202  0.02161498  0.33572978  1
  S  S38  1  0.24165009  0.51552613  0.32934829  1
  S  S39  1  0.76440179  0.48925846  0.69310235  1
  S  S40  1  0.66786856  0.04603101  0.44350364  1
  S  S41  1  0.33184154  0.92006784  0.55245651  1
