# generated using pymatgen
data_Pr2Mn3(SbS3)4
_symmetry_space_group_name_H-M   'P 1'
_cell_length_a   20.02960800
_cell_length_b   3.90410600
_cell_length_c   14.95364829
_cell_angle_alpha   90.00000000
_cell_angle_beta   126.33350609
_cell_angle_gamma   90.00000000
_symmetry_Int_Tables_number   1
_chemical_formula_structural   Pr2Mn3(SbS3)4
_chemical_formula_sum   'Pr4 Mn6 Sb8 S24'
_cell_volume   942.00006694
_cell_formula_units_Z   2
loop_
 _symmetry_equiv_pos_site_id
 _symmetry_equiv_pos_as_xyz
  1  'x, y, z'
loop_
 _atom_site_type_symbol
 _atom_site_label
 _atom_site_symmetry_multiplicity
 _atom_site_fract_x
 _atom_site_fract_y
 _atom_site_fract_z
 _atom_site_occupancy
  Pr  Pr0  1  0.27686529  0.48174810  0.86640580  1
  Pr  Pr1  1  0.73299326  0.51764146  0.14181628  1
  Pr  Pr2  1  0.77238648  0.03258946  0.88092297  1
  Pr  Pr3  1  0.23396829  0.91201482  0.12918658  1
  Mn  Mn4  1  0.29321965  0.41552333  0.60288510  1
  Mn  Mn5  1  0.69202170  0.50469810  0.36213562  1
  Mn  Mn6  1  0.00545146  0.00364749  0.01722643  1
  Mn  Mn7  1  0.80332452  0.00990524  0.64247309  1
  Mn  Mn8  1  0.21336573  0.05407018  0.39524693  1
  Mn  Mn9  1  0.48658115  0.47138455  0.98913884  1
  Sb  Sb10  1  0.88314159  0.86681919  0.45681271  1
  Sb  Sb11  1  0.11260503  0.99974627  0.54064044  1
  Sb  Sb12  1  0.03650300  0.48019940  0.82407809  1
  Sb  Sb13  1  0.96062225  0.46712628  0.19256269  1
  Sb  Sb14  1  0.41504821  0.54696423  0.46126833  1
  Sb  Sb15  1  0.60734635  0.57768924  0.53609905  1
  Sb  Sb16  1  0.52998510  0.94635873  0.80284230  1
  Sb  Sb17  1  0.46321016  0.98700461  0.17947475  1
  S  S18  1  0.94106121  0.99022341  0.81584769  1
  S  S19  1  0.05592017  0.01010735  0.20009693  1
  S  S20  1  0.41493767  0.96542005  0.97152096  1
  S  S21  1  0.58083565  0.02162194  0.00738855  1
  S  S22  1  0.16919489  0.98516634  0.88633331  1
  S  S23  1  0.82577845  0.02260633  0.10193817  1
  S  S24  1  0.09976418  0.47627884  0.64366446  1
  S  S25  1  0.90163367  0.42753256  0.35851277  1
  S  S26  1  0.73378145  0.00699370  0.29962330  1
  S  S27  1  0.26385763  0.92387559  0.67632438  1
  S  S28  1  0.16623320  0.48612105  0.45443557  1
  S  S29  1  0.81628566  0.53181635  0.54776616  1
  S  S30  1  0.43308270  0.46659489  0.80489754  1
  S  S31  1  0.56035656  0.51354008  0.19145803  1
  S  S32  1  0.92070952  0.53176294  0.99285568  1
  S  S33  1  0.08497953  0.45554617  0.01625523  1
  S  S34  1  0.65670592  0.54290791  0.89199693  1
  S  S35  1  0.32544343  0.45726900  0.10173049  1
  S  S36  1  0.60227952  0.02596388  0.64975648  1
  S  S37  1  0.39730530  0.02080736  0.33570727  1
  S  S38  1  0.24151875  0.51568119  0.32907328  1
  S  S39  1  0.76453846  0.48914684  0.69336184  1
  S  S40  1  0.66816927  0.04523874  0.44366111  1
  S  S41  1  0.33206495  0.92004474  0.55272323  1
