# generated using pymatgen
data_Pr2Mn3(SbS3)4
_symmetry_space_group_name_H-M   'P 1'
_cell_length_a   20.02960800
_cell_length_b   3.90410600
_cell_length_c   14.95364829
_cell_angle_alpha   90.00000000
_cell_angle_beta   126.33350609
_cell_angle_gamma   90.00000000
_symmetry_Int_Tables_number   1
_chemical_formula_structural   Pr2Mn3(SbS3)4
_chemical_formula_sum   'Pr4 Mn6 Sb8 S24'
_cell_volume   942.00006694
_cell_formula_units_Z   2
loop_
 _symmetry_equiv_pos_site_id
 _symmetry_equiv_pos_as_xyz
  1  'x, y, z'
loop_
 _atom_site_type_symbol
 _atom_site_label
 _atom_site_symmetry_multiplicity
 _atom_site_fract_x
 _atom_site_fract_y
 _atom_site_fract_z
 _atom_site_occupancy
  Pr  Pr0  1  0.27674649  0.48115750  0.86631764  1
  Pr  Pr1  1  0.73304565  0.51761848  0.14195761  1
  Pr  Pr2  1  0.77236501  0.03254473  0.88084814  1
  Pr  Pr3  1  0.23389197  0.91167713  0.12914595  1
  Mn  Mn4  1  0.29301971  0.41483590  0.60279229  1
  Mn  Mn5  1  0.69225168  0.50441951  0.36235232  1
  Mn  Mn6  1  0.00535886  0.00396214  0.01709723  1
  Mn  Mn7  1  0.80348749  0.01013631  0.64238987  1
  Mn  Mn8  1  0.21333516  0.05366624  0.39500493  1
  Mn  Mn9  1  0.48660669  0.47167382  0.98924263  1
  Sb  Sb10  1  0.88313035  0.86639825  0.45661531  1
  Sb  Sb11  1  0.11256781  0.00028187  0.54060856  1
  Sb  Sb12  1  0.03654493  0.48042890  0.82414818  1
  Sb  Sb13  1  0.96069000  0.46688655  0.19260170  1
  Sb  Sb14  1  0.41516755  0.54681628  0.46127924  1
  Sb  Sb15  1  0.60741306  0.57757654  0.53609102  1
  Sb  Sb16  1  0.53001935  0.94651239  0.80286740  1
  Sb  Sb17  1  0.46336282  0.98759633  0.17975499  1
  S  S18  1  0.94096890  0.99032176  0.81615191  1
  S  S19  1  0.05589589  0.01084286  0.20019090  1
  S  S20  1  0.41482110  0.96709009  0.97127444  1
  S  S21  1  0.58068599  0.02099970  0.00716675  1
  S  S22  1  0.16952753  0.98449609  0.88654915  1
  S  S23  1  0.82567683  0.02245255  0.10154841  1
  S  S24  1  0.09942826  0.47599347  0.64348335  1
  S  S25  1  0.90167017  0.42756910  0.35828226  1
  S  S26  1  0.73395368  0.00776696  0.29974783  1
  S  S27  1  0.26421045  0.92395540  0.67684340  1
  S  S28  1  0.16633733  0.48641774  0.45431178  1
  S  S29  1  0.81617971  0.53136439  0.54802869  1
  S  S30  1  0.43304263  0.46575851  0.80460622  1
  S  S31  1  0.56027343  0.51374266  0.19137691  1
  S  S32  1  0.92064307  0.53177168  0.99258821  1
  S  S33  1  0.08479038  0.45479983  0.01604528  1
  S  S34  1  0.65658532  0.54283163  0.89163626  1
  S  S35  1  0.32558881  0.45650684  0.10200624  1
  S  S36  1  0.60209634  0.02596297  0.64979988  1
  S  S37  1  0.39726473  0.02008404  0.33553049  1
  S  S38  1  0.24124757  0.51554035  0.32848965  1
  S  S39  1  0.76473652  0.48909399  0.69360311  1
  S  S40  1  0.66847029  0.04484472  0.44381623  1
  S  S41  1  0.33232626  0.92026489  0.55303907  1
