# generated using pymatgen
data_Pr2Mn3(SbS3)4
_symmetry_space_group_name_H-M   'P 1'
_cell_length_a   20.02960800
_cell_length_b   3.90410600
_cell_length_c   14.95364829
_cell_angle_alpha   90.00000000
_cell_angle_beta   126.33350609
_cell_angle_gamma   90.00000000
_symmetry_Int_Tables_number   1
_chemical_formula_structural   Pr2Mn3(SbS3)4
_chemical_formula_sum   'Pr4 Mn6 Sb8 S24'
_cell_volume   942.00006694
_cell_formula_units_Z   2
loop_
 _symmetry_equiv_pos_site_id
 _symmetry_equiv_pos_as_xyz
  1  'x, y, z'
loop_
 _atom_site_type_symbol
 _atom_site_label
 _atom_site_symmetry_multiplicity
 _atom_site_fract_x
 _atom_site_fract_y
 _atom_site_fract_z
 _atom_site_occupancy
  Pr  Pr0  1  0.27660776  0.48062753  0.86623185  1
  Pr  Pr1  1  0.73304879  0.51747683  0.14208796  1
  Pr  Pr2  1  0.77235335  0.03243759  0.88083130  1
  Pr  Pr3  1  0.23378301  0.91126683  0.12906097  1
  Mn  Mn4  1  0.29281378  0.41410605  0.60259226  1
  Mn  Mn5  1  0.69247645  0.50382684  0.36257685  1
  Mn  Mn6  1  0.00532361  0.00375303  0.01703835  1
  Mn  Mn7  1  0.80363926  0.01041988  0.64223389  1
  Mn  Mn8  1  0.21330934  0.05345536  0.39466632  1
  Mn  Mn9  1  0.48651794  0.47219578  0.98925052  1
  Sb  Sb10  1  0.88312029  0.86607295  0.45645258  1
  Sb  Sb11  1  0.11253194  0.00098688  0.54056875  1
  Sb  Sb12  1  0.03660006  0.48096901  0.82418794  1
  Sb  Sb13  1  0.96077106  0.46665279  0.19267639  1
  Sb  Sb14  1  0.41527691  0.54684887  0.46128347  1
  Sb  Sb15  1  0.60750567  0.57735722  0.53615610  1
  Sb  Sb16  1  0.53003429  0.94666906  0.80291970  1
  Sb  Sb17  1  0.46355700  0.98846060  0.18000852  1
  S  S18  1  0.94097790  0.98962004  0.81640687  1
  S  S19  1  0.05586516  0.01099236  0.20030268  1
  S  S20  1  0.41474627  0.96865688  0.97104822  1
  S  S21  1  0.58056081  0.02046851  0.00691776  1
  S  S22  1  0.16993135  0.98422173  0.88684374  1
  S  S23  1  0.82561524  0.02230373  0.10114312  1
  S  S24  1  0.09918117  0.47558574  0.64333412  1
  S  S25  1  0.90157002  0.42746451  0.35785464  1
  S  S26  1  0.73417194  0.00881773  0.29990670  1
  S  S27  1  0.26450852  0.92450920  0.67733474  1
  S  S28  1  0.16637794  0.48685333  0.45406278  1
  S  S29  1  0.81608978  0.53102662  0.54822781  1
  S  S30  1  0.43300827  0.46508491  0.80437055  1
  S  S31  1  0.56016281  0.51361442  0.19118886  1
  S  S32  1  0.92051441  0.53171126  0.99234847  1
  S  S33  1  0.08471262  0.45425728  0.01592896  1
  S  S34  1  0.65655707  0.54289921  0.89147788  1
  S  S35  1  0.32567237  0.45597663  0.10210704  1
  S  S36  1  0.60199009  0.02569748  0.64993338  1
  S  S37  1  0.39722933  0.01932192  0.33542378  1
  S  S38  1  0.24095226  0.51619320  0.32784718  1
  S  S39  1  0.76489521  0.48838932  0.69376393  1
  S  S40  1  0.66875304  0.04466878  0.44395218  1
  S  S41  1  0.33245601  0.92035614  0.55325880  1
