# generated using pymatgen
data_Pr2Mn3(SbS3)4
_symmetry_space_group_name_H-M   'P 1'
_cell_length_a   20.02960800
_cell_length_b   3.90410600
_cell_length_c   14.95364829
_cell_angle_alpha   90.00000000
_cell_angle_beta   126.33350609
_cell_angle_gamma   90.00000000
_symmetry_Int_Tables_number   1
_chemical_formula_structural   Pr2Mn3(SbS3)4
_chemical_formula_sum   'Pr4 Mn6 Sb8 S24'
_cell_volume   942.00006694
_cell_formula_units_Z   2
loop_
 _symmetry_equiv_pos_site_id
 _symmetry_equiv_pos_as_xyz
  1  'x, y, z'
loop_
 _atom_site_type_symbol
 _atom_site_label
 _atom_site_symmetry_multiplicity
 _atom_site_fract_x
 _atom_site_fract_y
 _atom_site_fract_z
 _atom_site_occupancy
  Pr  Pr0  1  0.27646521  0.48001323  0.86614832  1
  Pr  Pr1  1  0.73305393  0.51744742  0.14217853  1
  Pr  Pr2  1  0.77235489  0.03244633  0.88078508  1
  Pr  Pr3  1  0.23367215  0.91077944  0.12897604  1
  Mn  Mn4  1  0.29262004  0.41301986  0.60243753  1
  Mn  Mn5  1  0.69268633  0.50378389  0.36266770  1
  Mn  Mn6  1  0.00529228  0.00332188  0.01701497  1
  Mn  Mn7  1  0.80383589  0.01047074  0.64212076  1
  Mn  Mn8  1  0.21328898  0.05324554  0.39432892  1
  Mn  Mn9  1  0.48647643  0.47252945  0.98938599  1
  Sb  Sb10  1  0.88307916  0.86572475  0.45626254  1
  Sb  Sb11  1  0.11248111  0.00165934  0.54047896  1
  Sb  Sb12  1  0.03664745  0.48126875  0.82424467  1
  Sb  Sb13  1  0.96076257  0.46630550  0.19269914  1
  Sb  Sb14  1  0.41534631  0.54677872  0.46125872  1
  Sb  Sb15  1  0.60757474  0.57729614  0.53623844  1
  Sb  Sb16  1  0.53011653  0.94694281  0.80308084  1
  Sb  Sb17  1  0.46372335  0.98920987  0.18025056  1
  S  S18  1  0.94098773  0.98908042  0.81660725  1
  S  S19  1  0.05579826  0.01117445  0.20031449  1
  S  S20  1  0.41465084  0.97039684  0.97078456  1
  S  S21  1  0.58040752  0.02000057  0.00659569  1
  S  S22  1  0.17020638  0.98445275  0.88705712  1
  S  S23  1  0.82547664  0.02206570  0.10079953  1
  S  S24  1  0.09910831  0.47510506  0.64338631  1
  S  S25  1  0.90149598  0.42784577  0.35748495  1
  S  S26  1  0.73434905  0.00949941  0.30010844  1
  S  S27  1  0.26472501  0.92542971  0.67773334  1
  S  S28  1  0.16634251  0.48735596  0.45376455  1
  S  S29  1  0.81603693  0.53053110  0.54836261  1
  S  S30  1  0.43292229  0.46413541  0.80398312  1
  S  S31  1  0.55997666  0.51333061  0.19094214  1
  S  S32  1  0.92036019  0.53128673  0.99205046  1
  S  S33  1  0.08464867  0.45395418  0.01577171  1
  S  S34  1  0.65654121  0.54294411  0.89131227  1
  S  S35  1  0.32566475  0.45516200  0.10207755  1
  S  S36  1  0.60173979  0.02529722  0.65002620  1
  S  S37  1  0.39717654  0.01926357  0.33530967  1
  S  S38  1  0.24070424  0.51722412  0.32724936  1
  S  S39  1  0.76506686  0.48782650  0.69398140  1
  S  S40  1  0.66910298  0.04442722  0.44420029  1
  S  S41  1  0.33255323  0.92036453  0.55342299  1
