# generated using pymatgen
data_Pr2Mn3(SbS3)4
_symmetry_space_group_name_H-M   'P 1'
_cell_length_a   20.02960800
_cell_length_b   3.90410600
_cell_length_c   14.95364829
_cell_angle_alpha   90.00000000
_cell_angle_beta   126.33350609
_cell_angle_gamma   90.00000000
_symmetry_Int_Tables_number   1
_chemical_formula_structural   Pr2Mn3(SbS3)4
_chemical_formula_sum   'Pr4 Mn6 Sb8 S24'
_cell_volume   942.00006694
_cell_formula_units_Z   2
loop_
 _symmetry_equiv_pos_site_id
 _symmetry_equiv_pos_as_xyz
  1  'x, y, z'
loop_
 _atom_site_type_symbol
 _atom_site_label
 _atom_site_symmetry_multiplicity
 _atom_site_fract_x
 _atom_site_fract_y
 _atom_site_fract_z
 _atom_site_occupancy
  Pr  Pr0  1  0.27633003  0.47942646  0.86606281  1
  Pr  Pr1  1  0.73301899  0.51741519  0.14223882  1
  Pr  Pr2  1  0.77233474  0.03229967  0.88073293  1
  Pr  Pr3  1  0.23355761  0.91066388  0.12891101  1
  Mn  Mn4  1  0.29239920  0.41204114  0.60223676  1
  Mn  Mn5  1  0.69288634  0.50401553  0.36267895  1
  Mn  Mn6  1  0.00526133  0.00294069  0.01703698  1
  Mn  Mn7  1  0.80398028  0.01071446  0.64195810  1
  Mn  Mn8  1  0.21319695  0.05299737  0.39392955  1
  Mn  Mn9  1  0.48635414  0.47280010  0.98933438  1
  Sb  Sb10  1  0.88303160  0.86512743  0.45613377  1
  Sb  Sb11  1  0.11238103  0.00236339  0.54036666  1
  Sb  Sb12  1  0.03674437  0.48172882  0.82420309  1
  Sb  Sb13  1  0.96075800  0.46584108  0.19265973  1
  Sb  Sb14  1  0.41541233  0.54682003  0.46127984  1
  Sb  Sb15  1  0.60764951  0.57720787  0.53622490  1
  Sb  Sb16  1  0.53018924  0.94718848  0.80324273  1
  Sb  Sb17  1  0.46388923  0.98997415  0.18040322  1
  S  S18  1  0.94108372  0.98843877  0.81690193  1
  S  S19  1  0.05582667  0.01147999  0.20038829  1
  S  S20  1  0.41462828  0.97234437  0.97066847  1
  S  S21  1  0.58039786  0.01996841  0.00636563  1
  S  S22  1  0.17052410  0.98449534  0.88726898  1
  S  S23  1  0.82538957  0.02221915  0.10042620  1
  S  S24  1  0.09904342  0.47404125  0.64354779  1
  S  S25  1  0.90147752  0.42852367  0.35721083  1
  S  S26  1  0.73450451  0.01058374  0.30033550  1
  S  S27  1  0.26492467  0.92637991  0.67812132  1
  S  S28  1  0.16629052  0.48744056  0.45341770  1
  S  S29  1  0.81601101  0.53020266  0.54850962  1
  S  S30  1  0.43287294  0.46316319  0.80351527  1
  S  S31  1  0.55979653  0.51316625  0.19074811  1
  S  S32  1  0.92014681  0.53060737  0.99177202  1
  S  S33  1  0.08464033  0.45354210  0.01570226  1
  S  S34  1  0.65652916  0.54277346  0.89106960  1
  S  S35  1  0.32551175  0.45475465  0.10188063  1
  S  S36  1  0.60155742  0.02468986  0.65001807  1
  S  S37  1  0.39713015  0.01852506  0.33519227  1
  S  S38  1  0.24059945  0.51860253  0.32679802  1
  S  S39  1  0.76524292  0.48765497  0.69437819  1
  S  S40  1  0.66934300  0.04408887  0.44441863  1
  S  S41  1  0.33262895  0.92078174  0.55346411  1
