# generated using pymatgen
data_Pr2Mn3(SbS3)4
_symmetry_space_group_name_H-M   'P 1'
_cell_length_a   20.02960800
_cell_length_b   3.90410600
_cell_length_c   14.95364829
_cell_angle_alpha   90.00000000
_cell_angle_beta   126.33350609
_cell_angle_gamma   90.00000000
_symmetry_Int_Tables_number   1
_chemical_formula_structural   Pr2Mn3(SbS3)4
_chemical_formula_sum   'Pr4 Mn6 Sb8 S24'
_cell_volume   942.00006694
_cell_formula_units_Z   2
loop_
 _symmetry_equiv_pos_site_id
 _symmetry_equiv_pos_as_xyz
  1  'x, y, z'
loop_
 _atom_site_type_symbol
 _atom_site_label
 _atom_site_symmetry_multiplicity
 _atom_site_fract_x
 _atom_site_fract_y
 _atom_site_fract_z
 _atom_site_occupancy
  Pr  Pr0  1  0.27621416  0.47889552  0.86599103  1
  Pr  Pr1  1  0.73298170  0.51748554  0.14230735  1
  Pr  Pr2  1  0.77230256  0.03205875  0.88063913  1
  Pr  Pr3  1  0.23343706  0.91050562  0.12886207  1
  Mn  Mn4  1  0.29222935  0.41086777  0.60211380  1
  Mn  Mn5  1  0.69299912  0.50431429  0.36262419  1
  Mn  Mn6  1  0.00522522  0.00253878  0.01700201  1
  Mn  Mn7  1  0.80415095  0.01121795  0.64178704  1
  Mn  Mn8  1  0.21304623  0.05264524  0.39354176  1
  Mn  Mn9  1  0.48619924  0.47310770  0.98924174  1
  Sb  Sb10  1  0.88298491  0.86449647  0.45600790  1
  Sb  Sb11  1  0.11237460  0.00313536  0.54033658  1
  Sb  Sb12  1  0.03688926  0.48275406  0.82427209  1
  Sb  Sb13  1  0.96073214  0.46552486  0.19262061  1
  Sb  Sb14  1  0.41544232  0.54663856  0.46127267  1
  Sb  Sb15  1  0.60771009  0.57696502  0.53617849  1
  Sb  Sb16  1  0.53020347  0.94723446  0.80340443  1
  Sb  Sb17  1  0.46402412  0.99040162  0.18060498  1
  S  S18  1  0.94110840  0.98755555  0.81719751  1
  S  S19  1  0.05580111  0.01167192  0.20024239  1
  S  S20  1  0.41469641  0.97380277  0.97057255  1
  S  S21  1  0.58040030  0.02006897  0.00611641  1
  S  S22  1  0.17079634  0.98421711  0.88745823  1
  S  S23  1  0.82534794  0.02238391  0.10027296  1
  S  S24  1  0.09903339  0.47318693  0.64366425  1
  S  S25  1  0.90148278  0.42907437  0.35692983  1
  S  S26  1  0.73464806  0.01135384  0.30062441  1
  S  S27  1  0.26503957  0.92659558  0.67842788  1
  S  S28  1  0.16618301  0.48724827  0.45316919  1
  S  S29  1  0.81601304  0.52977146  0.54882555  1
  S  S30  1  0.43290761  0.46173532  0.80321187  1
  S  S31  1  0.55959883  0.51266933  0.19054977  1
  S  S32  1  0.91994294  0.52975866  0.99142298  1
  S  S33  1  0.08478048  0.45305141  0.01585419  1
  S  S34  1  0.65644570  0.54243423  0.89064551  1
  S  S35  1  0.32540309  0.45366445  0.10170395  1
  S  S36  1  0.60134117  0.02433141  0.64997297  1
  S  S37  1  0.39707146  0.01787205  0.33510833  1
  S  S38  1  0.24055161  0.51976397  0.32667029  1
  S  S39  1  0.76535391  0.48748409  0.69473404  1
  S  S40  1  0.66963335  0.04383801  0.44477455  1
  S  S41  1  0.33275713  0.92075551  0.55346897  1
