# generated using pymatgen
data_Pr2Mn3(SbS3)4
_symmetry_space_group_name_H-M   'P 1'
_cell_length_a   20.02960800
_cell_length_b   3.90410600
_cell_length_c   14.95364829
_cell_angle_alpha   90.00000000
_cell_angle_beta   126.33350609
_cell_angle_gamma   90.00000000
_symmetry_Int_Tables_number   1
_chemical_formula_structural   Pr2Mn3(SbS3)4
_chemical_formula_sum   'Pr4 Mn6 Sb8 S24'
_cell_volume   942.00006694
_cell_formula_units_Z   2
loop_
 _symmetry_equiv_pos_site_id
 _symmetry_equiv_pos_as_xyz
  1  'x, y, z'
loop_
 _atom_site_type_symbol
 _atom_site_label
 _atom_site_symmetry_multiplicity
 _atom_site_fract_x
 _atom_site_fract_y
 _atom_site_fract_z
 _atom_site_occupancy
  Pr  Pr0  1  0.27604817  0.47846340  0.86590905  1
  Pr  Pr1  1  0.73290295  0.51758973  0.14234900  1
  Pr  Pr2  1  0.77225882  0.03186639  0.88063468  1
  Pr  Pr3  1  0.23331448  0.91041113  0.12883408  1
  Mn  Mn4  1  0.29214291  0.40996038  0.60209439  1
  Mn  Mn5  1  0.69307987  0.50484788  0.36254559  1
  Mn  Mn6  1  0.00517343  0.00240846  0.01691690  1
  Mn  Mn7  1  0.80427579  0.01184151  0.64164247  1
  Mn  Mn8  1  0.21296543  0.05192457  0.39332609  1
  Mn  Mn9  1  0.48604981  0.47336378  0.98911103  1
  Sb  Sb10  1  0.88290170  0.86394582  0.45575794  1
  Sb  Sb11  1  0.11230490  0.00401461  0.54028780  1
  Sb  Sb12  1  0.03704860  0.48381549  0.82434716  1
  Sb  Sb13  1  0.96070602  0.46521068  0.19257741  1
  Sb  Sb14  1  0.41544349  0.54674658  0.46126026  1
  Sb  Sb15  1  0.60769984  0.57675690  0.53603549  1
  Sb  Sb16  1  0.53016946  0.94726874  0.80344261  1
  Sb  Sb17  1  0.46417517  0.99081879  0.18085081  1
  S  S18  1  0.94094816  0.98661103  0.81741995  1
  S  S19  1  0.05566542  0.01194224  0.19994475  1
  S  S20  1  0.41476340  0.97530901  0.97042355  1
  S  S21  1  0.58029032  0.02037109  0.00591792  1
  S  S22  1  0.17103383  0.98433300  0.88750052  1
  S  S23  1  0.82543139  0.02211025  0.10019290  1
  S  S24  1  0.09897840  0.47244623  0.64373131  1
  S  S25  1  0.90147294  0.42913200  0.35668563  1
  S  S26  1  0.73481614  0.01177879  0.30096606  1
  S  S27  1  0.26516198  0.92618336  0.67869362  1
  S  S28  1  0.16595889  0.48731879  0.45286787  1
  S  S29  1  0.81613762  0.52924948  0.54936153  1
  S  S30  1  0.43305915  0.46055516  0.80316041  1
  S  S31  1  0.55950462  0.51200046  0.19042667  1
  S  S32  1  0.91973478  0.52893464  0.99108347  1
  S  S33  1  0.08490178  0.45256632  0.01588412  1
  S  S34  1  0.65636711  0.54175311  0.89018638  1
  S  S35  1  0.32528071  0.45228658  0.10141104  1
  S  S36  1  0.60119752  0.02385646  0.64991275  1
  S  S37  1  0.39697789  0.01744076  0.33496948  1
  S  S38  1  0.24064059  0.52063668  0.32670343  1
  S  S39  1  0.76539216  0.48697933  0.69500878  1
  S  S40  1  0.66998505  0.04356589  0.44519769  1
  S  S41  1  0.33279807  0.92096850  0.55336531  1
