# generated using pymatgen
data_Pr2Mn3(SbS3)4
_symmetry_space_group_name_H-M   'P 1'
_cell_length_a   20.02960800
_cell_length_b   3.90410600
_cell_length_c   14.95364829
_cell_angle_alpha   90.00000000
_cell_angle_beta   126.33350609
_cell_angle_gamma   90.00000000
_symmetry_Int_Tables_number   1
_chemical_formula_structural   Pr2Mn3(SbS3)4
_chemical_formula_sum   'Pr4 Mn6 Sb8 S24'
_cell_volume   942.00006694
_cell_formula_units_Z   2
loop_
 _symmetry_equiv_pos_site_id
 _symmetry_equiv_pos_as_xyz
  1  'x, y, z'
loop_
 _atom_site_type_symbol
 _atom_site_label
 _atom_site_symmetry_multiplicity
 _atom_site_fract_x
 _atom_site_fract_y
 _atom_site_fract_z
 _atom_site_occupancy
  Pr  Pr0  1  0.26490508  0.47000312  0.86677073  1
  Pr  Pr1  1  0.73595139  0.52367703  0.13681272  1
  Pr  Pr2  1  0.76500652  0.01276011  0.86478258  1
  Pr  Pr3  1  0.23848549  0.00671420  0.13854922  1
  Mn  Mn4  1  0.29421336  0.48587603  0.60198164  1
  Mn  Mn5  1  0.69206566  0.51281529  0.38082820  1
  Mn  Mn6  1  0.00923848  0.99962566  0.01481669  1
  Mn  Mn7  1  0.80440573  0.01229224  0.61432027  1
  Mn  Mn8  1  0.19716790  0.97379246  0.37880946  1
  Mn  Mn9  1  0.49532125  0.45440193  0.98991778  1
  Sb  Sb10  1  0.89011422  0.98640922  0.45104302  1
  Sb  Sb11  1  0.11146699  0.97194181  0.54847185  1
  Sb  Sb12  1  0.03870561  0.51947340  0.81752366  1
  Sb  Sb13  1  0.96599025  0.50829799  0.18662137  1
  Sb  Sb14  1  0.39600724  0.51447274  0.45554612  1
  Sb  Sb15  1  0.60647556  0.47490890  0.54742525  1
  Sb  Sb16  1  0.53493551  0.00640138  0.81076600  1
  Sb  Sb17  1  0.46025586  0.01470596  0.18139705  1
  S  S18  1  0.93276375  0.98881298  0.80252276  1
  S  S19  1  0.06725758  0.98630134  0.18907659  1
  S  S20  1  0.40931402  0.98938614  0.98154312  1
  S  S21  1  0.59027558  0.99214401  0.01856527  1
  S  S22  1  0.16911556  0.00807333  0.89638106  1
  S  S23  1  0.82400661  0.01638983  0.09621410  1
  S  S24  1  0.08897749  0.48365346  0.64256890  1
  S  S25  1  0.90811655  0.46695278  0.35389851  1
  S  S26  1  0.74006632  0.95430951  0.29744585  1
  S  S27  1  0.26125338  0.00035099  0.70824683  1
  S  S28  1  0.16593847  0.47219047  0.43904829  1
  S  S29  1  0.82966608  0.48999612  0.54834158  1
  S  S30  1  0.43282779  0.49830092  0.79408320  1
  S  S31  1  0.56218880  0.50767555  0.18196947  1
  S  S32  1  0.91414092  0.51065202  0.98987029  1
  S  S33  1  0.08440312  0.48560630  0.01568445  1
  S  S34  1  0.66716818  0.50109176  0.88975831  1
  S  S35  1  0.32789393  0.51576876  0.09164096  1
  S  S36  1  0.59657815  0.99652631  0.66068689  1
  S  S37  1  0.40574568  0.97398160  0.34740459  1
  S  S38  1  0.24621661  0.44478150  0.31102927  1
  S  S39  1  0.76726047  0.49897073  0.70481663  1
  S  S40  1  0.67060607  0.03223167  0.45267343  1
  S  S41  1  0.32331331  0.96644441  0.54364827  1
