# generated using pymatgen
data_Pr2Mn3(SbS3)4
_symmetry_space_group_name_H-M   'P 1'
_cell_length_a   20.02960800
_cell_length_b   3.90410600
_cell_length_c   14.95364829
_cell_angle_alpha   90.00000000
_cell_angle_beta   126.33350609
_cell_angle_gamma   90.00000000
_symmetry_Int_Tables_number   1
_chemical_formula_structural   Pr2Mn3(SbS3)4
_chemical_formula_sum   'Pr4 Mn6 Sb8 S24'
_cell_volume   942.00006694
_cell_formula_units_Z   2
loop_
 _symmetry_equiv_pos_site_id
 _symmetry_equiv_pos_as_xyz
  1  'x, y, z'
loop_
 _atom_site_type_symbol
 _atom_site_label
 _atom_site_symmetry_multiplicity
 _atom_site_fract_x
 _atom_site_fract_y
 _atom_site_fract_z
 _atom_site_occupancy
  Pr  Pr0  1  0.27594189  0.47809231  0.86588051  1
  Pr  Pr1  1  0.73282898  0.51762514  0.14237795  1
  Pr  Pr2  1  0.77220258  0.03164562  0.88067043  1
  Pr  Pr3  1  0.23326804  0.91048656  0.12884745  1
  Mn  Mn4  1  0.29211745  0.40939197  0.60215963  1
  Mn  Mn5  1  0.69304646  0.50532625  0.36230896  1
  Mn  Mn6  1  0.00513093  0.00257630  0.01683595  1
  Mn  Mn7  1  0.80446385  0.01231023  0.64151488  1
  Mn  Mn8  1  0.21283809  0.05120267  0.39308373  1
  Mn  Mn9  1  0.48590020  0.47361724  0.98891787  1
  Sb  Sb10  1  0.88279878  0.86325945  0.45551180  1
  Sb  Sb11  1  0.11224349  0.00457804  0.54027361  1
  Sb  Sb12  1  0.03717847  0.48506982  0.82447409  1
  Sb  Sb13  1  0.96070152  0.46511222  0.19249613  1
  Sb  Sb14  1  0.41546280  0.54678585  0.46128393  1
  Sb  Sb15  1  0.60768598  0.57650853  0.53589116  1
  Sb  Sb16  1  0.53017351  0.94746061  0.80349711  1
  Sb  Sb17  1  0.46431074  0.99133745  0.18109593  1
  S  S18  1  0.94079651  0.98611120  0.81765660  1
  S  S19  1  0.05554059  0.01205041  0.19977401  1
  S  S20  1  0.41486263  0.97697390  0.97020923  1
  S  S21  1  0.58015634  0.02035975  0.00562917  1
  S  S22  1  0.17130691  0.98418578  0.88745516  1
  S  S23  1  0.82548417  0.02202351  0.10012460  1
  S  S24  1  0.09884727  0.47184691  0.64359857  1
  S  S25  1  0.90134562  0.43005444  0.35642562  1
  S  S26  1  0.73483214  0.01234343  0.30129920  1
  S  S27  1  0.26529165  0.92546507  0.67888493  1
  S  S28  1  0.16574778  0.48720161  0.45271025  1
  S  S29  1  0.81638145  0.52825741  0.54982251  1
  S  S30  1  0.43315303  0.45956278  0.80322053  1
  S  S31  1  0.55938630  0.51145130  0.19030888  1
  S  S32  1  0.91953515  0.52869404  0.99075972  1
  S  S33  1  0.08508188  0.45255146  0.01590697  1
  S  S34  1  0.65626831  0.54110198  0.88976816  1
  S  S35  1  0.32524862  0.45130707  0.10111874  1
  S  S36  1  0.60114169  0.02388764  0.64988977  1
  S  S37  1  0.39698333  0.01687223  0.33495546  1
  S  S38  1  0.24075503  0.52173227  0.32680360  1
  S  S39  1  0.76554176  0.48628143  0.69525138  1
  S  S40  1  0.67035005  0.04320194  0.44553945  1
  S  S41  1  0.33290041  0.92117101  0.55332008  1
