# generated using pymatgen
data_Pr2Mn3(SbS3)4
_symmetry_space_group_name_H-M   'P 1'
_cell_length_a   20.02960800
_cell_length_b   3.90410600
_cell_length_c   14.95364829
_cell_angle_alpha   90.00000000
_cell_angle_beta   126.33350609
_cell_angle_gamma   90.00000000
_symmetry_Int_Tables_number   1
_chemical_formula_structural   Pr2Mn3(SbS3)4
_chemical_formula_sum   'Pr4 Mn6 Sb8 S24'
_cell_volume   942.00006694
_cell_formula_units_Z   2
loop_
 _symmetry_equiv_pos_site_id
 _symmetry_equiv_pos_as_xyz
  1  'x, y, z'
loop_
 _atom_site_type_symbol
 _atom_site_label
 _atom_site_symmetry_multiplicity
 _atom_site_fract_x
 _atom_site_fract_y
 _atom_site_fract_z
 _atom_site_occupancy
  Pr  Pr0  1  0.27587841  0.47760928  0.86593067  1
  Pr  Pr1  1  0.73278039  0.51778300  0.14239199  1
  Pr  Pr2  1  0.77219174  0.03132603  0.88071563  1
  Pr  Pr3  1  0.23320686  0.91073693  0.12887315  1
  Mn  Mn4  1  0.29211598  0.40891966  0.60234406  1
  Mn  Mn5  1  0.69303846  0.50594957  0.36204733  1
  Mn  Mn6  1  0.00507577  0.00291696  0.01674476  1
  Mn  Mn7  1  0.80457356  0.01332553  0.64132400  1
  Mn  Mn8  1  0.21277803  0.05064668  0.39288513  1
  Mn  Mn9  1  0.48567375  0.47431819  0.98865620  1
  Sb  Sb10  1  0.88275308  0.86265786  0.45533308  1
  Sb  Sb11  1  0.11215854  0.00529702  0.54023345  1
  Sb  Sb12  1  0.03720537  0.48616804  0.82454234  1
  Sb  Sb13  1  0.96068881  0.46529329  0.19243556  1
  Sb  Sb14  1  0.41547314  0.54711725  0.46126887  1
  Sb  Sb15  1  0.60761498  0.57634169  0.53567930  1
  Sb  Sb16  1  0.53018851  0.94778007  0.80355163  1
  Sb  Sb17  1  0.46442733  0.99203401  0.18130834  1
  S  S18  1  0.94057440  0.98565090  0.81768243  1
  S  S19  1  0.05534589  0.01225687  0.19955384  1
  S  S20  1  0.41481264  0.97870926  0.96994129  1
  S  S21  1  0.58009020  0.02013005  0.00538461  1
  S  S22  1  0.17155343  0.98436761  0.88750789  1
  S  S23  1  0.82556093  0.02255970  0.10016947  1
  S  S24  1  0.09876070  0.47111491  0.64356386  1
  S  S25  1  0.90123465  0.43054336  0.35620046  1
  S  S26  1  0.73491111  0.01275759  0.30159590  1
  S  S27  1  0.26529168  0.92485332  0.67892202  1
  S  S28  1  0.16547903  0.48712142  0.45232833  1
  S  S29  1  0.81650534  0.52703502  0.55021459  1
  S  S30  1  0.43330905  0.45840083  0.80322777  1
  S  S31  1  0.55938808  0.51122301  0.19026829  1
  S  S32  1  0.91936914  0.52865934  0.99050477  1
  S  S33  1  0.08528041  0.45221917  0.01602818  1
  S  S34  1  0.65630024  0.54022037  0.88938291  1
  S  S35  1  0.32517443  0.45020986  0.10074660  1
  S  S36  1  0.60111889  0.02353538  0.64982658  1
  S  S37  1  0.39697279  0.01670961  0.33492775  1
  S  S38  1  0.24088475  0.52303438  0.32689342  1
  S  S39  1  0.76564110  0.48628372  0.69548757  1
  S  S40  1  0.67065438  0.04288366  0.44589150  1
  S  S41  1  0.33287018  0.92166540  0.55325120  1
