# generated using pymatgen
data_Pr2Mn3(SbS3)4
_symmetry_space_group_name_H-M   'P 1'
_cell_length_a   20.02960800
_cell_length_b   3.90410600
_cell_length_c   14.95364829
_cell_angle_alpha   90.00000000
_cell_angle_beta   126.33350609
_cell_angle_gamma   90.00000000
_symmetry_Int_Tables_number   1
_chemical_formula_structural   Pr2Mn3(SbS3)4
_chemical_formula_sum   'Pr4 Mn6 Sb8 S24'
_cell_volume   942.00006694
_cell_formula_units_Z   2
loop_
 _symmetry_equiv_pos_site_id
 _symmetry_equiv_pos_as_xyz
  1  'x, y, z'
loop_
 _atom_site_type_symbol
 _atom_site_label
 _atom_site_symmetry_multiplicity
 _atom_site_fract_x
 _atom_site_fract_y
 _atom_site_fract_z
 _atom_site_occupancy
  Pr  Pr0  1  0.27577660  0.47714110  0.86592607  1
  Pr  Pr1  1  0.73270372  0.51775055  0.14233231  1
  Pr  Pr2  1  0.77215390  0.03094810  0.88072299  1
  Pr  Pr3  1  0.23317313  0.91127347  0.12887336  1
  Mn  Mn4  1  0.29204918  0.40833886  0.60239179  1
  Mn  Mn5  1  0.69309299  0.50673904  0.36190124  1
  Mn  Mn6  1  0.00501389  0.00356796  0.01673148  1
  Mn  Mn7  1  0.80470208  0.01414195  0.64129263  1
  Mn  Mn8  1  0.21273210  0.04994559  0.39268782  1
  Mn  Mn9  1  0.48556066  0.47532158  0.98846335  1
  Sb  Sb10  1  0.88273882  0.86201284  0.45515943  1
  Sb  Sb11  1  0.11204839  0.00610283  0.54022548  1
  Sb  Sb12  1  0.03718681  0.48717123  0.82459656  1
  Sb  Sb13  1  0.96075337  0.46524310  0.19244220  1
  Sb  Sb14  1  0.41545069  0.54738126  0.46123135  1
  Sb  Sb15  1  0.60765881  0.57636376  0.53555604  1
  Sb  Sb16  1  0.53025134  0.94795957  0.80363320  1
  Sb  Sb17  1  0.46448887  0.99285529  0.18147717  1
  S  S18  1  0.94040886  0.98549525  0.81766860  1
  S  S19  1  0.05518435  0.01270546  0.19959707  1
  S  S20  1  0.41481478  0.98029802  0.96978670  1
  S  S21  1  0.57999574  0.01999184  0.00513501  1
  S  S22  1  0.17180182  0.98463841  0.88756183  1
  S  S23  1  0.82558638  0.02315141  0.10008922  1
  S  S24  1  0.09864961  0.47049643  0.64359325  1
  S  S25  1  0.90121723  0.43091156  0.35590380  1
  S  S26  1  0.73496158  0.01277688  0.30178683  1
  S  S27  1  0.26532841  0.92421097  0.67902751  1
  S  S28  1  0.16525889  0.48640255  0.45203575  1
  S  S29  1  0.81642564  0.52618714  0.55055159  1
  S  S30  1  0.43350700  0.45755333  0.80337210  1
  S  S31  1  0.55946964  0.51121212  0.19018567  1
  S  S32  1  0.91930855  0.52842464  0.99028267  1
  S  S33  1  0.08554683  0.45195988  0.01605559  1
  S  S34  1  0.65627988  0.53946488  0.88898638  1
  S  S35  1  0.32510837  0.44921859  0.10037603  1
  S  S36  1  0.60113816  0.02338014  0.64974448  1
  S  S37  1  0.39697002  0.01650017  0.33484468  1
  S  S38  1  0.24094531  0.52432155  0.32680649  1
  S  S39  1  0.76583152  0.48636053  0.69594252  1
  S  S40  1  0.67094805  0.04242444  0.44628068  1
  S  S41  1  0.33290170  0.92280712  0.55326397  1
