# generated using pymatgen
data_Pr2Mn3(SbS3)4
_symmetry_space_group_name_H-M   'P 1'
_cell_length_a   20.02960800
_cell_length_b   3.90410600
_cell_length_c   14.95364829
_cell_angle_alpha   90.00000000
_cell_angle_beta   126.33350609
_cell_angle_gamma   90.00000000
_symmetry_Int_Tables_number   1
_chemical_formula_structural   Pr2Mn3(SbS3)4
_chemical_formula_sum   'Pr4 Mn6 Sb8 S24'
_cell_volume   942.00006694
_cell_formula_units_Z   2
loop_
 _symmetry_equiv_pos_site_id
 _symmetry_equiv_pos_as_xyz
  1  'x, y, z'
loop_
 _atom_site_type_symbol
 _atom_site_label
 _atom_site_symmetry_multiplicity
 _atom_site_fract_x
 _atom_site_fract_y
 _atom_site_fract_z
 _atom_site_occupancy
  Pr  Pr0  1  0.27566720  0.47651750  0.86591688  1
  Pr  Pr1  1  0.73264878  0.51796557  0.14233227  1
  Pr  Pr2  1  0.77214543  0.03057628  0.88076944  1
  Pr  Pr3  1  0.23317452  0.91189131  0.12894480  1
  Mn  Mn4  1  0.29203661  0.40794533  0.60242732  1
  Mn  Mn5  1  0.69317832  0.50723372  0.36183695  1
  Mn  Mn6  1  0.00494018  0.00458846  0.01667982  1
  Mn  Mn7  1  0.80489397  0.01506041  0.64137388  1
  Mn  Mn8  1  0.21279539  0.04977910  0.39260283  1
  Mn  Mn9  1  0.48552229  0.47591364  0.98830095  1
  Sb  Sb10  1  0.88271565  0.86142401  0.45495808  1
  Sb  Sb11  1  0.11185370  0.00685594  0.54020665  1
  Sb  Sb12  1  0.03718247  0.48802747  0.82466095  1
  Sb  Sb13  1  0.96082679  0.46473799  0.19243411  1
  Sb  Sb14  1  0.41538575  0.54751431  0.46114483  1
  Sb  Sb15  1  0.60764923  0.57644480  0.53544098  1
  Sb  Sb16  1  0.53035863  0.94781328  0.80369571  1
  Sb  Sb17  1  0.46453096  0.99378125  0.18156513  1
  S  S18  1  0.94027157  0.98531230  0.81774250  1
  S  S19  1  0.05509950  0.01270048  0.19961813  1
  S  S20  1  0.41479963  0.98211080  0.96959008  1
  S  S21  1  0.57995073  0.01982262  0.00496175  1
  S  S22  1  0.17207081  0.98516100  0.88769689  1
  S  S23  1  0.82556394  0.02334064  0.09994044  1
  S  S24  1  0.09839998  0.47014921  0.64354903  1
  S  S25  1  0.90128283  0.43122470  0.35564476  1
  S  S26  1  0.73505806  0.01347088  0.30198540  1
  S  S27  1  0.26543154  0.92325555  0.67910508  1
  S  S28  1  0.16516130  0.48608401  0.45178313  1
  S  S29  1  0.81645005  0.52539061  0.55090966  1
  S  S30  1  0.43377982  0.45657532  0.80371148  1
  S  S31  1  0.55954149  0.51109717  0.19019104  1
  S  S32  1  0.91911037  0.52795110  0.98989075  1
  S  S33  1  0.08588577  0.45130634  0.01608468  1
  S  S34  1  0.65620961  0.53915169  0.88851884  1
  S  S35  1  0.32508332  0.44811993  0.09992012  1
  S  S36  1  0.60113833  0.02261952  0.64965281  1
  S  S37  1  0.39707408  0.01612356  0.33493079  1
  S  S38  1  0.24086598  0.52541407  0.32660899  1
  S  S39  1  0.76602108  0.48625103  0.69639485  1
  S  S40  1  0.67119378  0.04200177  0.44651018  1
  S  S41  1  0.33295079  0.92442169  0.55329176  1
