# generated using pymatgen
data_Pr2Mn3(SbS3)4
_symmetry_space_group_name_H-M   'P 1'
_cell_length_a   20.02960800
_cell_length_b   3.90410600
_cell_length_c   14.95364829
_cell_angle_alpha   90.00000000
_cell_angle_beta   126.33350609
_cell_angle_gamma   90.00000000
_symmetry_Int_Tables_number   1
_chemical_formula_structural   Pr2Mn3(SbS3)4
_chemical_formula_sum   'Pr4 Mn6 Sb8 S24'
_cell_volume   942.00006694
_cell_formula_units_Z   2
loop_
 _symmetry_equiv_pos_site_id
 _symmetry_equiv_pos_as_xyz
  1  'x, y, z'
loop_
 _atom_site_type_symbol
 _atom_site_label
 _atom_site_symmetry_multiplicity
 _atom_site_fract_x
 _atom_site_fract_y
 _atom_site_fract_z
 _atom_site_occupancy
  Pr  Pr0  1  0.27564024  0.47610476  0.86590785  1
  Pr  Pr1  1  0.73263928  0.51824110  0.14235435  1
  Pr  Pr2  1  0.77216047  0.03007346  0.88084475  1
  Pr  Pr3  1  0.23317115  0.91230282  0.12906679  1
  Mn  Mn4  1  0.29204201  0.40720097  0.60251154  1
  Mn  Mn5  1  0.69318478  0.50782202  0.36175100  1
  Mn  Mn6  1  0.00481386  0.00532346  0.01663765  1
  Mn  Mn7  1  0.80509701  0.01579802  0.64144625  1
  Mn  Mn8  1  0.21273786  0.04933141  0.39250636  1
  Mn  Mn9  1  0.48544592  0.47664064  0.98806823  1
  Sb  Sb10  1  0.88263758  0.86118173  0.45470368  1
  Sb  Sb11  1  0.11170773  0.00739710  0.54022180  1
  Sb  Sb12  1  0.03718750  0.48884994  0.82474287  1
  Sb  Sb13  1  0.96086496  0.46437263  0.19247501  1
  Sb  Sb14  1  0.41537238  0.54735616  0.46108606  1
  Sb  Sb15  1  0.60771692  0.57684585  0.53545387  1
  Sb  Sb16  1  0.53047966  0.94786078  0.80379697  1
  Sb  Sb17  1  0.46454915  0.99442615  0.18170308  1
  S  S18  1  0.94017687  0.98530433  0.81784108  1
  S  S19  1  0.05517237  0.01250769  0.19988801  1
  S  S20  1  0.41463423  0.98354647  0.96928939  1
  S  S21  1  0.57994490  0.01945017  0.00489767  1
  S  S22  1  0.17219151  0.98551775  0.88775454  1
  S  S23  1  0.82557393  0.02344883  0.09984548  1
  S  S24  1  0.09805420  0.46983768  0.64341096  1
  S  S25  1  0.90130071  0.43168036  0.35532672  1
  S  S26  1  0.73513587  0.01438027  0.30224751  1
  S  S27  1  0.26545828  0.92242681  0.67912867  1
  S  S28  1  0.16509382  0.48561221  0.45154012  1
  S  S29  1  0.81649913  0.52469839  0.55122003  1
  S  S30  1  0.43396138  0.45568322  0.80403050  1
  S  S31  1  0.55959188  0.51111587  0.19025105  1
  S  S32  1  0.91891612  0.52728704  0.98944599  1
  S  S33  1  0.08628480  0.45096268  0.01609792  1
  S  S34  1  0.65625713  0.53970640  0.88808912  1
  S  S35  1  0.32512876  0.44742024  0.09959731  1
  S  S36  1  0.60118004  0.02210961  0.64964476  1
  S  S37  1  0.39720676  0.01616017  0.33506707  1
  S  S38  1  0.24078570  0.52606491  0.32637687  1
  S  S39  1  0.76621141  0.48585055  0.69677573  1
  S  S40  1  0.67150248  0.04118806  0.44657525  1
  S  S41  1  0.33289573  0.92624599  0.55315728  1
