# generated using pymatgen
data_Pr2Mn3(SbS3)4
_symmetry_space_group_name_H-M   'P 1'
_cell_length_a   20.02960800
_cell_length_b   3.90410600
_cell_length_c   14.95364829
_cell_angle_alpha   90.00000000
_cell_angle_beta   126.33350609
_cell_angle_gamma   90.00000000
_symmetry_Int_Tables_number   1
_chemical_formula_structural   Pr2Mn3(SbS3)4
_chemical_formula_sum   'Pr4 Mn6 Sb8 S24'
_cell_volume   942.00006694
_cell_formula_units_Z   2
loop_
 _symmetry_equiv_pos_site_id
 _symmetry_equiv_pos_as_xyz
  1  'x, y, z'
loop_
 _atom_site_type_symbol
 _atom_site_label
 _atom_site_symmetry_multiplicity
 _atom_site_fract_x
 _atom_site_fract_y
 _atom_site_fract_z
 _atom_site_occupancy
  Pr  Pr0  1  0.27561254  0.47554396  0.86583402  1
  Pr  Pr1  1  0.73264494  0.51847370  0.14232772  1
  Pr  Pr2  1  0.77217309  0.02965805  0.88088360  1
  Pr  Pr3  1  0.23319695  0.91241595  0.12925307  1
  Mn  Mn4  1  0.29195037  0.40648283  0.60254264  1
  Mn  Mn5  1  0.69321337  0.50819921  0.36178619  1
  Mn  Mn6  1  0.00462240  0.00593048  0.01657589  1
  Mn  Mn7  1  0.80530091  0.01630748  0.64158568  1
  Mn  Mn8  1  0.21270706  0.04892343  0.39240620  1
  Mn  Mn9  1  0.48547201  0.47731412  0.98788058  1
  Sb  Sb10  1  0.88254328  0.86085605  0.45447839  1
  Sb  Sb11  1  0.11154681  0.00776825  0.54022543  1
  Sb  Sb12  1  0.03716202  0.48960013  0.82480218  1
  Sb  Sb13  1  0.96092356  0.46413776  0.19253232  1
  Sb  Sb14  1  0.41539691  0.54704891  0.46109067  1
  Sb  Sb15  1  0.60772786  0.57707466  0.53547690  1
  Sb  Sb16  1  0.53061808  0.94792958  0.80399074  1
  Sb  Sb17  1  0.46460601  0.99522693  0.18184880  1
  S  S18  1  0.94016659  0.98471395  0.81788590  1
  S  S19  1  0.05504654  0.01237934  0.19993804  1
  S  S20  1  0.41442854  0.98463413  0.96910147  1
  S  S21  1  0.58003335  0.01909070  0.00483513  1
  S  S22  1  0.17244404  0.98592995  0.88801204  1
  S  S23  1  0.82556646  0.02406089  0.09971663  1
  S  S24  1  0.09772544  0.46920256  0.64318388  1
  S  S25  1  0.90130746  0.43223721  0.35505495  1
  S  S26  1  0.73517084  0.01506727  0.30240618  1
  S  S27  1  0.26569291  0.92213177  0.67928136  1
  S  S28  1  0.16506138  0.48506767  0.45136765  1
  S  S29  1  0.81655396  0.52360399  0.55139057  1
  S  S30  1  0.43418810  0.45446860  0.80428063  1
  S  S31  1  0.55974125  0.51084787  0.19042597  1
  S  S32  1  0.91874745  0.52617956  0.98908976  1
  S  S33  1  0.08666338  0.45081539  0.01620367  1
  S  S34  1  0.65635655  0.54036761  0.88775665  1
  S  S35  1  0.32508139  0.44642905  0.09923427  1
  S  S36  1  0.60123522  0.02181371  0.64968740  1
  S  S37  1  0.39741215  0.01688223  0.33530183  1
  S  S38  1  0.24058227  0.52634252  0.32616188  1
  S  S39  1  0.76626062  0.48499637  0.69701140  1
  S  S40  1  0.67174693  0.04050544  0.44659617  1
  S  S41  1  0.33290625  0.92794807  0.55318013  1
