# generated using pymatgen
data_Pr2Mn3(SbS3)4
_symmetry_space_group_name_H-M   'P 1'
_cell_length_a   20.02960800
_cell_length_b   3.90410600
_cell_length_c   14.95364829
_cell_angle_alpha   90.00000000
_cell_angle_beta   126.33350609
_cell_angle_gamma   90.00000000
_symmetry_Int_Tables_number   1
_chemical_formula_structural   Pr2Mn3(SbS3)4
_chemical_formula_sum   'Pr4 Mn6 Sb8 S24'
_cell_volume   942.00006694
_cell_formula_units_Z   2
loop_
 _symmetry_equiv_pos_site_id
 _symmetry_equiv_pos_as_xyz
  1  'x, y, z'
loop_
 _atom_site_type_symbol
 _atom_site_label
 _atom_site_symmetry_multiplicity
 _atom_site_fract_x
 _atom_site_fract_y
 _atom_site_fract_z
 _atom_site_occupancy
  Pr  Pr0  1  0.27555798  0.47541655  0.86571933  1
  Pr  Pr1  1  0.73274805  0.51847409  0.14234805  1
  Pr  Pr2  1  0.77222427  0.02944405  0.88093257  1
  Pr  Pr3  1  0.23320911  0.91254670  0.12945555  1
  Mn  Mn4  1  0.29183219  0.40620890  0.60259571  1
  Mn  Mn5  1  0.69322312  0.50858851  0.36189061  1
  Mn  Mn6  1  0.00441155  0.00634196  0.01659244  1
  Mn  Mn7  1  0.80540384  0.01666579  0.64165292  1
  Mn  Mn8  1  0.21263539  0.04833345  0.39231472  1
  Mn  Mn9  1  0.48549337  0.47759061  0.98765640  1
  Sb  Sb10  1  0.88245689  0.86062854  0.45436368  1
  Sb  Sb11  1  0.11142215  0.00827287  0.54018727  1
  Sb  Sb12  1  0.03714477  0.49021741  0.82487219  1
  Sb  Sb13  1  0.96101739  0.46426876  0.19260763  1
  Sb  Sb14  1  0.41536716  0.54704360  0.46100607  1
  Sb  Sb15  1  0.60772352  0.57721849  0.53547145  1
  Sb  Sb16  1  0.53073761  0.94789039  0.80411907  1
  Sb  Sb17  1  0.46461813  0.99608494  0.18190790  1
  S  S18  1  0.94010747  0.98406221  0.81781485  1
  S  S19  1  0.05501415  0.01219971  0.19997114  1
  S  S20  1  0.41429036  0.98555724  0.96896815  1
  S  S21  1  0.57999925  0.01907674  0.00472291  1
  S  S22  1  0.17261422  0.98624738  0.88822532  1
  S  S23  1  0.82552479  0.02512034  0.09955741  1
  S  S24  1  0.09755699  0.46872594  0.64300059  1
  S  S25  1  0.90122219  0.43274543  0.35459076  1
  S  S26  1  0.73508571  0.01542644  0.30247726  1
  S  S27  1  0.26580232  0.92201347  0.67917656  1
  S  S28  1  0.16504838  0.48465506  0.45125989  1
  S  S29  1  0.81658558  0.52320977  0.55142964  1
  S  S30  1  0.43432064  0.45330298  0.80454121  1
  S  S31  1  0.55996786  0.51103380  0.19069057  1
  S  S32  1  0.91852807  0.52493678  0.98876722  1
  S  S33  1  0.08699026  0.45115107  0.01635952  1
  S  S34  1  0.65645788  0.54124744  0.88741598  1
  S  S35  1  0.32501360  0.44562356  0.09899751  1
  S  S36  1  0.60130374  0.02139191  0.64969897  1
  S  S37  1  0.39757105  0.01767824  0.33542740  1
  S  S38  1  0.24049251  0.52626256  0.32609606  1
  S  S39  1  0.76632769  0.48437412  0.69728416  1
  S  S40  1  0.67204030  0.04024328  0.44679877  1
  S  S41  1  0.33304124  0.92958887  0.55334226  1
