# generated using pymatgen
data_Pr2Mn3(SbS3)4
_symmetry_space_group_name_H-M   'P 1'
_cell_length_a   20.02960800
_cell_length_b   3.90410600
_cell_length_c   14.95364829
_cell_angle_alpha   90.00000000
_cell_angle_beta   126.33350609
_cell_angle_gamma   90.00000000
_symmetry_Int_Tables_number   1
_chemical_formula_structural   Pr2Mn3(SbS3)4
_chemical_formula_sum   'Pr4 Mn6 Sb8 S24'
_cell_volume   942.00006694
_cell_formula_units_Z   2
loop_
 _symmetry_equiv_pos_site_id
 _symmetry_equiv_pos_as_xyz
  1  'x, y, z'
loop_
 _atom_site_type_symbol
 _atom_site_label
 _atom_site_symmetry_multiplicity
 _atom_site_fract_x
 _atom_site_fract_y
 _atom_site_fract_z
 _atom_site_occupancy
  Pr  Pr0  1  0.27549445  0.47550114  0.86564070  1
  Pr  Pr1  1  0.73275264  0.51858227  0.14231149  1
  Pr  Pr2  1  0.77234486  0.02921604  0.88099902  1
  Pr  Pr3  1  0.23320994  0.91260411  0.12961724  1
  Mn  Mn4  1  0.29168138  0.40617758  0.60275890  1
  Mn  Mn5  1  0.69334427  0.50930849  0.36209464  1
  Mn  Mn6  1  0.00421559  0.00678456  0.01669188  1
  Mn  Mn7  1  0.80551923  0.01692156  0.64175106  1
  Mn  Mn8  1  0.21254071  0.04775910  0.39217577  1
  Mn  Mn9  1  0.48549979  0.47757986  0.98750376  1
  Sb  Sb10  1  0.88241666  0.86036186  0.45432199  1
  Sb  Sb11  1  0.11128593  0.00882476  0.54008007  1
  Sb  Sb12  1  0.03715272  0.49086031  0.82496092  1
  Sb  Sb13  1  0.96113429  0.46422910  0.19269062  1
  Sb  Sb14  1  0.41531846  0.54682232  0.46093511  1
  Sb  Sb15  1  0.60769694  0.57750625  0.53555719  1
  Sb  Sb16  1  0.53088199  0.94758789  0.80417245  1
  Sb  Sb17  1  0.46464236  0.99699799  0.18194567  1
  S  S18  1  0.93997916  0.98347854  0.81763222  1
  S  S19  1  0.05499549  0.01228824  0.19998225  1
  S  S20  1  0.41412969  0.98645134  0.96896834  1
  S  S21  1  0.57994454  0.01922326  0.00455516  1
  S  S22  1  0.17270281  0.98657108  0.88834238  1
  S  S23  1  0.82545238  0.02637838  0.09933435  1
  S  S24  1  0.09731601  0.46893487  0.64282817  1
  S  S25  1  0.90122689  0.43359547  0.35428646  1
  S  S26  1  0.73502271  0.01626981  0.30259123  1
  S  S27  1  0.26592736  0.92165635  0.67902639  1
  S  S28  1  0.16499984  0.48415087  0.45117326  1
  S  S29  1  0.81647748  0.52308052  0.55131638  1
  S  S30  1  0.43437001  0.45256311  0.80460926  1
  S  S31  1  0.56004248  0.51065263  0.19086849  1
  S  S32  1  0.91826238  0.52357828  0.98832775  1
  S  S33  1  0.08739353  0.45151069  0.01655043  1
  S  S34  1  0.65644380  0.54200863  0.88692441  1
  S  S35  1  0.32493723  0.44461974  0.09878146  1
  S  S36  1  0.60134398  0.02101850  0.64983741  1
  S  S37  1  0.39761492  0.01847434  0.33544768  1
  S  S38  1  0.24040653  0.52647321  0.32595012  1
  S  S39  1  0.76640240  0.48400765  0.69753876  1
  S  S40  1  0.67239606  0.04030004  0.44704793  1
  S  S41  1  0.33321027  0.93123323  0.55352210  1
