# generated using pymatgen
data_Pr2Mn3(SbS3)4
_symmetry_space_group_name_H-M   'P 1'
_cell_length_a   20.02960800
_cell_length_b   3.90410600
_cell_length_c   14.95364829
_cell_angle_alpha   90.00000000
_cell_angle_beta   126.33350609
_cell_angle_gamma   90.00000000
_symmetry_Int_Tables_number   1
_chemical_formula_structural   Pr2Mn3(SbS3)4
_chemical_formula_sum   'Pr4 Mn6 Sb8 S24'
_cell_volume   942.00006694
_cell_formula_units_Z   2
loop_
 _symmetry_equiv_pos_site_id
 _symmetry_equiv_pos_as_xyz
  1  'x, y, z'
loop_
 _atom_site_type_symbol
 _atom_site_label
 _atom_site_symmetry_multiplicity
 _atom_site_fract_x
 _atom_site_fract_y
 _atom_site_fract_z
 _atom_site_occupancy
  Pr  Pr0  1  0.27547582  0.47589155  0.86550044  1
  Pr  Pr1  1  0.73274405  0.51857465  0.14220123  1
  Pr  Pr2  1  0.77248003  0.02871458  0.88110988  1
  Pr  Pr3  1  0.23320942  0.91281739  0.12977853  1
  Mn  Mn4  1  0.29159975  0.40605509  0.60298366  1
  Mn  Mn5  1  0.69338587  0.50967693  0.36218052  1
  Mn  Mn6  1  0.00411520  0.00693071  0.01693553  1
  Mn  Mn7  1  0.80566640  0.01754563  0.64188997  1
  Mn  Mn8  1  0.21240781  0.04725043  0.39216591  1
  Mn  Mn9  1  0.48544014  0.47743163  0.98734745  1
  Sb  Sb10  1  0.88237548  0.86006567  0.45437557  1
  Sb  Sb11  1  0.11116641  0.00939909  0.53996769  1
  Sb  Sb12  1  0.03710193  0.49122336  0.82493872  1
  Sb  Sb13  1  0.96122590  0.46425074  0.19272690  1
  Sb  Sb14  1  0.41523855  0.54649285  0.46086746  1
  Sb  Sb15  1  0.60762279  0.57767061  0.53563545  1
  Sb  Sb16  1  0.53102405  0.94701573  0.80417964  1
  Sb  Sb17  1  0.46465730  0.99778231  0.18191099  1
  S  S18  1  0.93978406  0.98333766  0.81737247  1
  S  S19  1  0.05506548  0.01261532  0.20004789  1
  S  S20  1  0.41391312  0.98694990  0.96885657  1
  S  S21  1  0.58002881  0.01925263  0.00468452  1
  S  S22  1  0.17263451  0.98662270  0.88828823  1
  S  S23  1  0.82539702  0.02730631  0.09907640  1
  S  S24  1  0.09714127  0.46934532  0.64263925  1
  S  S25  1  0.90117245  0.43385543  0.35405989  1
  S  S26  1  0.73490508  0.01679862  0.30254582  1
  S  S27  1  0.26619778  0.92094109  0.67903306  1
  S  S28  1  0.16496829  0.48300012  0.45104070  1
  S  S29  1  0.81641159  0.52357894  0.55123243  1
  S  S30  1  0.43448535  0.45179668  0.80477244  1
  S  S31  1  0.56016288  0.51024541  0.19108335  1
  S  S32  1  0.91798020  0.52239746  0.98787866  1
  S  S33  1  0.08778359  0.45201232  0.01666159  1
  S  S34  1  0.65630539  0.54220981  0.88645058  1
  S  S35  1  0.32481643  0.44395802  0.09852796  1
  S  S36  1  0.60151877  0.02022187  0.65001179  1
  S  S37  1  0.39770634  0.01938187  0.33553543  1
  S  S38  1  0.24032565  0.52658510  0.32579413  1
  S  S39  1  0.76635260  0.48370602  0.69778182  1
  S  S40  1  0.67267314  0.03998130  0.44716174  1
  S  S41  1  0.33345518  0.93234836  0.55384473  1
