# generated using pymatgen
data_Pr2Mn3(SbS3)4
_symmetry_space_group_name_H-M   'P 1'
_cell_length_a   20.02960800
_cell_length_b   3.90410600
_cell_length_c   14.95364829
_cell_angle_alpha   90.00000000
_cell_angle_beta   126.33350609
_cell_angle_gamma   90.00000000
_symmetry_Int_Tables_number   1
_chemical_formula_structural   Pr2Mn3(SbS3)4
_chemical_formula_sum   'Pr4 Mn6 Sb8 S24'
_cell_volume   942.00006694
_cell_formula_units_Z   2
loop_
 _symmetry_equiv_pos_site_id
 _symmetry_equiv_pos_as_xyz
  1  'x, y, z'
loop_
 _atom_site_type_symbol
 _atom_site_label
 _atom_site_symmetry_multiplicity
 _atom_site_fract_x
 _atom_site_fract_y
 _atom_site_fract_z
 _atom_site_occupancy
  Pr  Pr0  1  0.27545313  0.47629523  0.86541357  1
  Pr  Pr1  1  0.73271758  0.51870787  0.14206968  1
  Pr  Pr2  1  0.77261380  0.02818462  0.88113591  1
  Pr  Pr3  1  0.23316913  0.91294636  0.12993127  1
  Mn  Mn4  1  0.29163511  0.40561043  0.60335051  1
  Mn  Mn5  1  0.69337796  0.50982420  0.36223516  1
  Mn  Mn6  1  0.00401671  0.00724763  0.01710189  1
  Mn  Mn7  1  0.80570705  0.01823805  0.64196306  1
  Mn  Mn8  1  0.21234720  0.04682885  0.39217344  1
  Mn  Mn9  1  0.48542207  0.47712041  0.98724276  1
  Sb  Sb10  1  0.88226075  0.86007709  0.45426963  1
  Sb  Sb11  1  0.11098192  0.00987111  0.53987073  1
  Sb  Sb12  1  0.03706713  0.49152143  0.82492627  1
  Sb  Sb13  1  0.96132867  0.46425007  0.19274425  1
  Sb  Sb14  1  0.41518577  0.54619954  0.46081734  1
  Sb  Sb15  1  0.60751463  0.57775063  0.53564001  1
  Sb  Sb16  1  0.53114330  0.94646705  0.80423806  1
  Sb  Sb17  1  0.46471700  0.99852380  0.18195438  1
  S  S18  1  0.93957962  0.98308597  0.81715231  1
  S  S19  1  0.05518968  0.01317609  0.20021849  1
  S  S20  1  0.41383625  0.98714057  0.96881666  1
  S  S21  1  0.58025379  0.01950905  0.00483159  1
  S  S22  1  0.17258508  0.98617221  0.88820959  1
  S  S23  1  0.82537542  0.02824764  0.09888410  1
  S  S24  1  0.09713196  0.47033649  0.64263930  1
  S  S25  1  0.90114397  0.43397263  0.35378688  1
  S  S26  1  0.73483800  0.01693226  0.30247900  1
  S  S27  1  0.26648129  0.92059619  0.67901066  1
  S  S28  1  0.16499577  0.48223149  0.45095833  1
  S  S29  1  0.81633138  0.52405233  0.55111242  1
  S  S30  1  0.43466836  0.45145873  0.80493525  1
  S  S31  1  0.56031930  0.50997345  0.19134541  1
  S  S32  1  0.91765384  0.52125668  0.98742285  1
  S  S33  1  0.08819364  0.45244776  0.01666020  1
  S  S34  1  0.65621661  0.54266820  0.88593446  1
  S  S35  1  0.32474990  0.44358634  0.09840915  1
  S  S36  1  0.60158762  0.01883806  0.65009029  1
  S  S37  1  0.39785961  0.02019662  0.33577910  1
  S  S38  1  0.24028385  0.52640160  0.32571856  1
  S  S39  1  0.76619755  0.48310592  0.69795471  1
  S  S40  1  0.67292701  0.03982502  0.44730891  1
  S  S41  1  0.33368809  0.93287237  0.55413397  1
