# generated using pymatgen
data_Pr2Mn3(SbS3)4
_symmetry_space_group_name_H-M   'P 1'
_cell_length_a   20.02960800
_cell_length_b   3.90410600
_cell_length_c   14.95364829
_cell_angle_alpha   90.00000000
_cell_angle_beta   126.33350609
_cell_angle_gamma   90.00000000
_symmetry_Int_Tables_number   1
_chemical_formula_structural   Pr2Mn3(SbS3)4
_chemical_formula_sum   'Pr4 Mn6 Sb8 S24'
_cell_volume   942.00006694
_cell_formula_units_Z   2
loop_
 _symmetry_equiv_pos_site_id
 _symmetry_equiv_pos_as_xyz
  1  'x, y, z'
loop_
 _atom_site_type_symbol
 _atom_site_label
 _atom_site_symmetry_multiplicity
 _atom_site_fract_x
 _atom_site_fract_y
 _atom_site_fract_z
 _atom_site_occupancy
  Pr  Pr0  1  0.26494057  0.47034739  0.86660220  1
  Pr  Pr1  1  0.73590965  0.52325344  0.13678965  1
  Pr  Pr2  1  0.76501261  0.01288316  0.86482459  1
  Pr  Pr3  1  0.23858483  0.00677835  0.13860821  1
  Mn  Mn4  1  0.29415893  0.48537134  0.60196994  1
  Mn  Mn5  1  0.69195994  0.51224103  0.38084719  1
  Mn  Mn6  1  0.00935138  0.00034660  0.01508815  1
  Mn  Mn7  1  0.80434735  0.01278002  0.61423425  1
  Mn  Mn8  1  0.19713745  0.97422229  0.37887804  1
  Mn  Mn9  1  0.49504679  0.45469435  0.98988054  1
  Sb  Sb10  1  0.89022768  0.98589013  0.45103865  1
  Sb  Sb11  1  0.11154806  0.97228766  0.54848113  1
  Sb  Sb12  1  0.03874364  0.51957268  0.81756127  1
  Sb  Sb13  1  0.96609893  0.50786667  0.18663538  1
  Sb  Sb14  1  0.39606101  0.51410332  0.45557269  1
  Sb  Sb15  1  0.60645900  0.47495312  0.54749251  1
  Sb  Sb16  1  0.53490733  0.00662408  0.81072703  1
  Sb  Sb17  1  0.46027137  0.01466009  0.18147622  1
  S  S18  1  0.93264686  0.98850024  0.80235847  1
  S  S19  1  0.06724124  0.98745042  0.18937965  1
  S  S20  1  0.40916884  0.98774255  0.98181239  1
  S  S21  1  0.58995822  0.99198123  0.01816583  1
  S  S22  1  0.16908934  0.00859434  0.89649212  1
  S  S23  1  0.82394136  0.01696373  0.09624991  1
  S  S24  1  0.08903679  0.48322567  0.64263776  1
  S  S25  1  0.90827932  0.46767189  0.35405966  1
  S  S26  1  0.74016177  0.95393086  0.29788528  1
  S  S27  1  0.26148276  0.00001530  0.70852335  1
  S  S28  1  0.16569027  0.47144220  0.43902951  1
  S  S29  1  0.82954054  0.49000886  0.54824048  1
  S  S30  1  0.43275387  0.49733034  0.79417899  1
  S  S31  1  0.56210860  0.50836658  0.18206779  1
  S  S32  1  0.91401723  0.50988677  0.98946218  1
  S  S33  1  0.08459721  0.48512756  0.01618865  1
  S  S34  1  0.66703017  0.50153523  0.88958553  1
  S  S35  1  0.32778668  0.51716872  0.09161465  1
  S  S36  1  0.59648842  0.99619501  0.66063272  1
  S  S37  1  0.40569420  0.97482879  0.34759329  1
  S  S38  1  0.24617606  0.44507008  0.31068596  1
  S  S39  1  0.76752311  0.49965945  0.70487749  1
  S  S40  1  0.67039669  0.03219645  0.45240861  1
  S  S41  1  0.32319552  0.96659615  0.54366899  1
