# generated using pymatgen
data_Pr2Mn3(SbS3)4
_symmetry_space_group_name_H-M   'P 1'
_cell_length_a   20.02960800
_cell_length_b   3.90410600
_cell_length_c   14.95364829
_cell_angle_alpha   90.00000000
_cell_angle_beta   126.33350609
_cell_angle_gamma   90.00000000
_symmetry_Int_Tables_number   1
_chemical_formula_structural   Pr2Mn3(SbS3)4
_chemical_formula_sum   'Pr4 Mn6 Sb8 S24'
_cell_volume   942.00006694
_cell_formula_units_Z   2
loop_
 _symmetry_equiv_pos_site_id
 _symmetry_equiv_pos_as_xyz
  1  'x, y, z'
loop_
 _atom_site_type_symbol
 _atom_site_label
 _atom_site_symmetry_multiplicity
 _atom_site_fract_x
 _atom_site_fract_y
 _atom_site_fract_z
 _atom_site_occupancy
  Pr  Pr0  1  0.27544189  0.47685727  0.86532897  1
  Pr  Pr1  1  0.73268300  0.51846188  0.14188345  1
  Pr  Pr2  1  0.77274501  0.02764000  0.88122441  1
  Pr  Pr3  1  0.23307788  0.91304325  0.13000715  1
  Mn  Mn4  1  0.29169321  0.40530311  0.60368613  1
  Mn  Mn5  1  0.69329626  0.50990031  0.36226665  1
  Mn  Mn6  1  0.00388237  0.00752222  0.01720447  1
  Mn  Mn7  1  0.80567100  0.01837723  0.64206900  1
  Mn  Mn8  1  0.21218345  0.04646791  0.39206264  1
  Mn  Mn9  1  0.48541798  0.47711177  0.98711307  1
  Sb  Sb10  1  0.88214601  0.86005220  0.45420649  1
  Sb  Sb11  1  0.11077751  0.01039936  0.53980143  1
  Sb  Sb12  1  0.03700648  0.49156683  0.82489180  1
  Sb  Sb13  1  0.96141384  0.46395756  0.19273039  1
  Sb  Sb14  1  0.41507741  0.54598126  0.46073127  1
  Sb  Sb15  1  0.60740146  0.57760793  0.53564464  1
  Sb  Sb16  1  0.53126890  0.94616771  0.80428744  1
  Sb  Sb17  1  0.46478511  0.99890782  0.18197917  1
  S  S18  1  0.93936639  0.98323106  0.81681853  1
  S  S19  1  0.05529176  0.01358378  0.20024217  1
  S  S20  1  0.41377777  0.98746987  0.96886292  1
  S  S21  1  0.58038771  0.01923112  0.00499478  1
  S  S22  1  0.17253143  0.98522483  0.88808171  1
  S  S23  1  0.82522882  0.02903153  0.09872814  1
  S  S24  1  0.09697652  0.47076541  0.64248938  1
  S  S25  1  0.90122385  0.43414919  0.35372169  1
  S  S26  1  0.73481280  0.01638283  0.30248212  1
  S  S27  1  0.26677901  0.92015399  0.67896330  1
  S  S28  1  0.16504227  0.48167309  0.45090880  1
  S  S29  1  0.81621865  0.52459578  0.55100856  1
  S  S30  1  0.43477021  0.45123610  0.80514638  1
  S  S31  1  0.56042014  0.50946669  0.19150868  1
  S  S32  1  0.91725135  0.51968309  0.98685563  1
  S  S33  1  0.08854816  0.45306940  0.01675205  1
  S  S34  1  0.65610388  0.54267259  0.88533046  1
  S  S35  1  0.32465963  0.44345126  0.09835457  1
  S  S36  1  0.60172505  0.01750092  0.65012080  1
  S  S37  1  0.39805685  0.02072160  0.33605348  1
  S  S38  1  0.24026260  0.52573612  0.32566019  1
  S  S39  1  0.76617078  0.48243240  0.69816464  1
  S  S40  1  0.67309348  0.03937204  0.44737061  1
  S  S41  1  0.33393088  0.93322145  0.55453685  1
