# generated using pymatgen
data_Pr2Mn3(SbS3)4
_symmetry_space_group_name_H-M   'P 1'
_cell_length_a   20.02960800
_cell_length_b   3.90410600
_cell_length_c   14.95364829
_cell_angle_alpha   90.00000000
_cell_angle_beta   126.33350609
_cell_angle_gamma   90.00000000
_symmetry_Int_Tables_number   1
_chemical_formula_structural   Pr2Mn3(SbS3)4
_chemical_formula_sum   'Pr4 Mn6 Sb8 S24'
_cell_volume   942.00006694
_cell_formula_units_Z   2
loop_
 _symmetry_equiv_pos_site_id
 _symmetry_equiv_pos_as_xyz
  1  'x, y, z'
loop_
 _atom_site_type_symbol
 _atom_site_label
 _atom_site_symmetry_multiplicity
 _atom_site_fract_x
 _atom_site_fract_y
 _atom_site_fract_z
 _atom_site_occupancy
  Pr  Pr0  1  0.27545202  0.47750219  0.86527455  1
  Pr  Pr1  1  0.73257957  0.51804323  0.14159184  1
  Pr  Pr2  1  0.77285702  0.02725859  0.88132427  1
  Pr  Pr3  1  0.23302083  0.91343493  0.13008979  1
  Mn  Mn4  1  0.29171252  0.40517264  0.60395752  1
  Mn  Mn5  1  0.69320296  0.51003778  0.36221240  1
  Mn  Mn6  1  0.00374626  0.00731631  0.01725421  1
  Mn  Mn7  1  0.80569249  0.01851625  0.64219162  1
  Mn  Mn8  1  0.21204455  0.04600891  0.39206133  1
  Mn  Mn9  1  0.48546782  0.47706877  0.98707918  1
  Sb  Sb10  1  0.88203331  0.86012226  0.45416161  1
  Sb  Sb11  1  0.11054019  0.01087246  0.53969606  1
  Sb  Sb12  1  0.03695677  0.49168733  0.82486863  1
  Sb  Sb13  1  0.96153675  0.46361113  0.19280179  1
  Sb  Sb14  1  0.41491661  0.54571872  0.46060932  1
  Sb  Sb15  1  0.60732244  0.57731427  0.53568509  1
  Sb  Sb16  1  0.53143813  0.94571744  0.80437334  1
  Sb  Sb17  1  0.46486590  0.99878965  0.18206144  1
  S  S18  1  0.93921173  0.98310572  0.81663614  1
  S  S19  1  0.05538645  0.01438246  0.20010521  1
  S  S20  1  0.41370863  0.98804236  0.96874707  1
  S  S21  1  0.58056163  0.01886322  0.00526341  1
  S  S22  1  0.17256808  0.98438262  0.88792968  1
  S  S23  1  0.82508630  0.02990583  0.09859313  1
  S  S24  1  0.09685544  0.47161898  0.64237532  1
  S  S25  1  0.90128567  0.43465267  0.35374524  1
  S  S26  1  0.73481674  0.01588839  0.30243132  1
  S  S27  1  0.26706799  0.91970513  0.67882614  1
  S  S28  1  0.16510590  0.48154729  0.45087733  1
  S  S29  1  0.81610754  0.52459001  0.55083230  1
  S  S30  1  0.43474515  0.45076659  0.80521127  1
  S  S31  1  0.56053191  0.50877250  0.19159301  1
  S  S32  1  0.91689027  0.51857232  0.98650587  1
  S  S33  1  0.08888794  0.45410000  0.01675446  1
  S  S34  1  0.65597027  0.54249386  0.88478966  1
  S  S35  1  0.32472518  0.44376445  0.09837935  1
  S  S36  1  0.60180640  0.01616643  0.64992626  1
  S  S37  1  0.39816185  0.02149230  0.33639803  1
  S  S38  1  0.24024086  0.52514596  0.32550209  1
  S  S39  1  0.76605335  0.48150805  0.69817733  1
  S  S40  1  0.67327026  0.03946375  0.44741117  1
  S  S41  1  0.33407930  0.93387665  0.55475149  1
