# generated using pymatgen
data_Pr2Mn3(SbS3)4
_symmetry_space_group_name_H-M   'P 1'
_cell_length_a   20.02960800
_cell_length_b   3.90410600
_cell_length_c   14.95364829
_cell_angle_alpha   90.00000000
_cell_angle_beta   126.33350609
_cell_angle_gamma   90.00000000
_symmetry_Int_Tables_number   1
_chemical_formula_structural   Pr2Mn3(SbS3)4
_chemical_formula_sum   'Pr4 Mn6 Sb8 S24'
_cell_volume   942.00006694
_cell_formula_units_Z   2
loop_
 _symmetry_equiv_pos_site_id
 _symmetry_equiv_pos_as_xyz
  1  'x, y, z'
loop_
 _atom_site_type_symbol
 _atom_site_label
 _atom_site_symmetry_multiplicity
 _atom_site_fract_x
 _atom_site_fract_y
 _atom_site_fract_z
 _atom_site_occupancy
  Pr  Pr0  1  0.27543596  0.47789527  0.86511650  1
  Pr  Pr1  1  0.73250798  0.51748774  0.14127917  1
  Pr  Pr2  1  0.77295757  0.02675382  0.88134888  1
  Pr  Pr3  1  0.23295861  0.91391351  0.13022017  1
  Mn  Mn4  1  0.29181384  0.40510861  0.60419657  1
  Mn  Mn5  1  0.69307787  0.51019598  0.36202494  1
  Mn  Mn6  1  0.00366256  0.00715074  0.01733723  1
  Mn  Mn7  1  0.80571588  0.01853051  0.64221794  1
  Mn  Mn8  1  0.21189878  0.04582815  0.39204769  1
  Mn  Mn9  1  0.48558032  0.47717750  0.98698861  1
  Sb  Sb10  1  0.88196092  0.86023219  0.45410212  1
  Sb  Sb11  1  0.11029831  0.01115463  0.53955176  1
  Sb  Sb12  1  0.03692463  0.49179872  0.82491124  1
  Sb  Sb13  1  0.96159650  0.46333219  0.19283510  1
  Sb  Sb14  1  0.41482095  0.54585522  0.46062904  1
  Sb  Sb15  1  0.60726598  0.57706227  0.53575221  1
  Sb  Sb16  1  0.53155703  0.94513914  0.80441461  1
  Sb  Sb17  1  0.46497539  0.99861946  0.18220149  1
  S  S18  1  0.93890097  0.98313592  0.81632994  1
  S  S19  1  0.05542041  0.01499868  0.19980093  1
  S  S20  1  0.41362119  0.98897351  0.96861784  1
  S  S21  1  0.58073774  0.01892357  0.00554836  1
  S  S22  1  0.17272083  0.98349084  0.88797286  1
  S  S23  1  0.82490282  0.03049623  0.09847063  1
  S  S24  1  0.09686679  0.47230753  0.64248127  1
  S  S25  1  0.90141862  0.43500914  0.35399197  1
  S  S26  1  0.73473342  0.01533640  0.30233051  1
  S  S27  1  0.26739557  0.91950340  0.67874542  1
  S  S28  1  0.16520940  0.48079273  0.45069251  1
  S  S29  1  0.81590985  0.52410795  0.55064804  1
  S  S30  1  0.43473691  0.45061587  0.80524279  1
  S  S31  1  0.56058162  0.50815111  0.19154667  1
  S  S32  1  0.91664376  0.51780211  0.98623159  1
  S  S33  1  0.08911622  0.45479347  0.01676906  1
  S  S34  1  0.65586242  0.54148417  0.88427040  1
  S  S35  1  0.32492452  0.44427163  0.09858687  1
  S  S36  1  0.60196484  0.01515076  0.64981824  1
  S  S37  1  0.39834019  0.02231814  0.33691290  1
  S  S38  1  0.24022221  0.52461333  0.32528162  1
  S  S39  1  0.76595673  0.48089428  0.69816927  1
  S  S40  1  0.67339475  0.03984975  0.44735461  1
  S  S41  1  0.33429934  0.93528375  0.55475043  1
