# generated using pymatgen
data_Pr2Mn3(SbS3)4
_symmetry_space_group_name_H-M   'P 1'
_cell_length_a   20.02960800
_cell_length_b   3.90410600
_cell_length_c   14.95364829
_cell_angle_alpha   90.00000000
_cell_angle_beta   126.33350609
_cell_angle_gamma   90.00000000
_symmetry_Int_Tables_number   1
_chemical_formula_structural   Pr2Mn3(SbS3)4
_chemical_formula_sum   'Pr4 Mn6 Sb8 S24'
_cell_volume   942.00006694
_cell_formula_units_Z   2
loop_
 _symmetry_equiv_pos_site_id
 _symmetry_equiv_pos_as_xyz
  1  'x, y, z'
loop_
 _atom_site_type_symbol
 _atom_site_label
 _atom_site_symmetry_multiplicity
 _atom_site_fract_x
 _atom_site_fract_y
 _atom_site_fract_z
 _atom_site_occupancy
  Pr  Pr0  1  0.27536070  0.47814187  0.86495542  1
  Pr  Pr1  1  0.73239351  0.51705316  0.14101609  1
  Pr  Pr2  1  0.77304247  0.02619685  0.88134222  1
  Pr  Pr3  1  0.23293453  0.91438864  0.13033421  1
  Mn  Mn4  1  0.29191092  0.40518212  0.60446218  1
  Mn  Mn5  1  0.69293883  0.51010907  0.36191545  1
  Mn  Mn6  1  0.00353114  0.00737731  0.01725759  1
  Mn  Mn7  1  0.80578603  0.01866487  0.64227416  1
  Mn  Mn8  1  0.21171409  0.04529328  0.39206681  1
  Mn  Mn9  1  0.48570666  0.47723370  0.98690818  1
  Sb  Sb10  1  0.88195289  0.86047636  0.45408939  1
  Sb  Sb11  1  0.11008078  0.01128070  0.53942867  1
  Sb  Sb12  1  0.03680904  0.49190953  0.82484164  1
  Sb  Sb13  1  0.96163201  0.46312404  0.19284101  1
  Sb  Sb14  1  0.41474646  0.54565745  0.46064664  1
  Sb  Sb15  1  0.60724851  0.57722894  0.53587279  1
  Sb  Sb16  1  0.53166468  0.94460078  0.80445865  1
  Sb  Sb17  1  0.46497749  0.99852238  0.18220353  1
  S  S18  1  0.93882019  0.98354648  0.81608285  1
  S  S19  1  0.05548125  0.01569157  0.19950757  1
  S  S20  1  0.41334792  0.99003619  0.96857590  1
  S  S21  1  0.58087449  0.01877371  0.00584322  1
  S  S22  1  0.17301168  0.98230828  0.88817071  1
  S  S23  1  0.82474132  0.03112826  0.09835916  1
  S  S24  1  0.09691922  0.47289809  0.64257664  1
  S  S25  1  0.90156323  0.43572369  0.35400062  1
  S  S26  1  0.73475680  0.01469454  0.30234180  1
  S  S27  1  0.26753219  0.91956352  0.67855726  1
  S  S28  1  0.16535739  0.48008138  0.45059790  1
  S  S29  1  0.81572154  0.52396034  0.55043121  1
  S  S30  1  0.43473572  0.44986870  0.80529768  1
  S  S31  1  0.56066146  0.50738713  0.19144479  1
  S  S32  1  0.91651406  0.51709429  0.98618155  1
  S  S33  1  0.08938224  0.45553092  0.01682794  1
  S  S34  1  0.65579289  0.54032398  0.88385839  1
  S  S35  1  0.32517601  0.44523489  0.09871447  1
  S  S36  1  0.60208884  0.01411059  0.64962954  1
  S  S37  1  0.39866029  0.02314162  0.33753405  1
  S  S38  1  0.24024275  0.52428579  0.32497583  1
  S  S39  1  0.76580280  0.48001028  0.69802452  1
  S  S40  1  0.67346033  0.04055929  0.44718974  1
  S  S41  1  0.33455414  0.93670647  0.55475293  1
