# generated using pymatgen
data_Pr2Mn3(SbS3)4
_symmetry_space_group_name_H-M   'P 1'
_cell_length_a   20.02960800
_cell_length_b   3.90410600
_cell_length_c   14.95364829
_cell_angle_alpha   90.00000000
_cell_angle_beta   126.33350609
_cell_angle_gamma   90.00000000
_symmetry_Int_Tables_number   1
_chemical_formula_structural   Pr2Mn3(SbS3)4
_chemical_formula_sum   'Pr4 Mn6 Sb8 S24'
_cell_volume   942.00006694
_cell_formula_units_Z   2
loop_
 _symmetry_equiv_pos_site_id
 _symmetry_equiv_pos_as_xyz
  1  'x, y, z'
loop_
 _atom_site_type_symbol
 _atom_site_label
 _atom_site_symmetry_multiplicity
 _atom_site_fract_x
 _atom_site_fract_y
 _atom_site_fract_z
 _atom_site_occupancy
  Pr  Pr0  1  0.27529964  0.47831616  0.86481012  1
  Pr  Pr1  1  0.73224784  0.51676083  0.14064641  1
  Pr  Pr2  1  0.77306603  0.02563985  0.88127910  1
  Pr  Pr3  1  0.23292133  0.91492590  0.13045035  1
  Mn  Mn4  1  0.29198650  0.40532163  0.60466897  1
  Mn  Mn5  1  0.69277341  0.50994385  0.36179602  1
  Mn  Mn6  1  0.00342197  0.00728881  0.01710289  1
  Mn  Mn7  1  0.80587962  0.01875960  0.64229891  1
  Mn  Mn8  1  0.21154512  0.04479105  0.39208629  1
  Mn  Mn9  1  0.48584061  0.47731425  0.98671638  1
  Sb  Sb10  1  0.88192167  0.86091477  0.45400996  1
  Sb  Sb11  1  0.10992955  0.01161219  0.53931772  1
  Sb  Sb12  1  0.03670703  0.49206705  0.82484884  1
  Sb  Sb13  1  0.96169550  0.46278161  0.19290772  1
  Sb  Sb14  1  0.41469040  0.54559409  0.46067783  1
  Sb  Sb15  1  0.60716724  0.57736804  0.53588425  1
  Sb  Sb16  1  0.53175341  0.94421468  0.80452326  1
  Sb  Sb17  1  0.46493304  0.99813702  0.18215025  1
  S  S18  1  0.93871786  0.98404120  0.81582359  1
  S  S19  1  0.05549078  0.01676173  0.19923352  1
  S  S20  1  0.41313257  0.99124078  0.96865355  1
  S  S21  1  0.58104521  0.01893543  0.00619219  1
  S  S22  1  0.17341731  0.98123926  0.88852625  1
  S  S23  1  0.82461238  0.03211876  0.09832629  1
  S  S24  1  0.09701169  0.47383915  0.64274754  1
  S  S25  1  0.90162374  0.43703750  0.35381123  1
  S  S26  1  0.73483489  0.01432639  0.30239734  1
  S  S27  1  0.26760278  0.91954269  0.67838296  1
  S  S28  1  0.16549837  0.47917799  0.45040676  1
  S  S29  1  0.81573753  0.52482288  0.55050003  1
  S  S30  1  0.43466903  0.44952826  0.80513500  1
  S  S31  1  0.56066352  0.50694106  0.19134844  1
  S  S32  1  0.91632925  0.51681091  0.98608685  1
  S  S33  1  0.08967635  0.45658778  0.01689149  1
  S  S34  1  0.65566194  0.53952096  0.88351826  1
  S  S35  1  0.32538385  0.44582205  0.09870778  1
  S  S36  1  0.60232311  0.01258425  0.64966706  1
  S  S37  1  0.39901329  0.02395696  0.33817870  1
  S  S38  1  0.24031067  0.52406161  0.32469453  1
  S  S39  1  0.76553485  0.47971230  0.69774432  1
  S  S40  1  0.67352747  0.04115277  0.44708832  1
  S  S41  1  0.33479131  0.93820563  0.55464884  1
