# generated using pymatgen
data_Pr2Mn3(SbS3)4
_symmetry_space_group_name_H-M   'P 1'
_cell_length_a   20.02960800
_cell_length_b   3.90410600
_cell_length_c   14.95364829
_cell_angle_alpha   90.00000000
_cell_angle_beta   126.33350609
_cell_angle_gamma   90.00000000
_symmetry_Int_Tables_number   1
_chemical_formula_structural   Pr2Mn3(SbS3)4
_chemical_formula_sum   'Pr4 Mn6 Sb8 S24'
_cell_volume   942.00006694
_cell_formula_units_Z   2
loop_
 _symmetry_equiv_pos_site_id
 _symmetry_equiv_pos_as_xyz
  1  'x, y, z'
loop_
 _atom_site_type_symbol
 _atom_site_label
 _atom_site_symmetry_multiplicity
 _atom_site_fract_x
 _atom_site_fract_y
 _atom_site_fract_z
 _atom_site_occupancy
  Pr  Pr0  1  0.27523242  0.47838533  0.86470379  1
  Pr  Pr1  1  0.73209595  0.51659419  0.14022831  1
  Pr  Pr2  1  0.77305595  0.02540369  0.88114690  1
  Pr  Pr3  1  0.23292705  0.91546592  0.13054249  1
  Mn  Mn4  1  0.29214402  0.40577043  0.60500325  1
  Mn  Mn5  1  0.69262073  0.50950568  0.36158670  1
  Mn  Mn6  1  0.00338851  0.00725153  0.01701551  1
  Mn  Mn7  1  0.80599358  0.01871554  0.64229877  1
  Mn  Mn8  1  0.21137943  0.04441799  0.39209446  1
  Mn  Mn9  1  0.48601621  0.47731802  0.98662216  1
  Sb  Sb10  1  0.88184218  0.86125278  0.45389495  1
  Sb  Sb11  1  0.10981048  0.01196387  0.53918810  1
  Sb  Sb12  1  0.03656848  0.49204563  0.82483621  1
  Sb  Sb13  1  0.96178641  0.46244680  0.19301922  1
  Sb  Sb14  1  0.41470589  0.54553520  0.46081292  1
  Sb  Sb15  1  0.60707011  0.57732842  0.53596716  1
  Sb  Sb16  1  0.53183688  0.94390317  0.80452734  1
  Sb  Sb17  1  0.46485074  0.99803036  0.18203298  1
  S  S18  1  0.93872196  0.98421796  0.81558216  1
  S  S19  1  0.05553621  0.01750302  0.19911130  1
  S  S20  1  0.41301196  0.99235641  0.96890959  1
  S  S21  1  0.58117677  0.01865083  0.00657445  1
  S  S22  1  0.17378365  0.98025963  0.88886412  1
  S  S23  1  0.82446375  0.03356342  0.09825033  1
  S  S24  1  0.09707527  0.47456243  0.64294317  1
  S  S25  1  0.90171401  0.43782367  0.35367557  1
  S  S26  1  0.73495493  0.01391940  0.30242888  1
  S  S27  1  0.26765574  0.92014051  0.67841453  1
  S  S28  1  0.16568821  0.47804451  0.45030595  1
  S  S29  1  0.81588119  0.52589358  0.55055077  1
  S  S30  1  0.43467270  0.44991707  0.80514463  1
  S  S31  1  0.56065991  0.50639876  0.19128263  1
  S  S32  1  0.91604427  0.51610329  0.98590201  1
  S  S33  1  0.08986391  0.45754161  0.01693926  1
  S  S34  1  0.65562660  0.53851688  0.88327313  1
  S  S35  1  0.32564204  0.44626028  0.09881911  1
  S  S36  1  0.60247225  0.01129562  0.64965572  1
  S  S37  1  0.39936280  0.02528010  0.33878739  1
  S  S38  1  0.24034194  0.52387988  0.32461540  1
  S  S39  1  0.76522791  0.47981102  0.69746062  1
  S  S40  1  0.67364670  0.04164436  0.44716543  1
  S  S41  1  0.33505026  0.93945018  0.55448365  1
