# generated using pymatgen
data_Pr2Mn3(SbS3)4
_symmetry_space_group_name_H-M   'P 1'
_cell_length_a   20.02960800
_cell_length_b   3.90410600
_cell_length_c   14.95364829
_cell_angle_alpha   90.00000000
_cell_angle_beta   126.33350609
_cell_angle_gamma   90.00000000
_symmetry_Int_Tables_number   1
_chemical_formula_structural   Pr2Mn3(SbS3)4
_chemical_formula_sum   'Pr4 Mn6 Sb8 S24'
_cell_volume   942.00006694
_cell_formula_units_Z   2
loop_
 _symmetry_equiv_pos_site_id
 _symmetry_equiv_pos_as_xyz
  1  'x, y, z'
loop_
 _atom_site_type_symbol
 _atom_site_label
 _atom_site_symmetry_multiplicity
 _atom_site_fract_x
 _atom_site_fract_y
 _atom_site_fract_z
 _atom_site_occupancy
  Pr  Pr0  1  0.27520343  0.47852737  0.86460799  1
  Pr  Pr1  1  0.73194285  0.51651795  0.13983282  1
  Pr  Pr2  1  0.77300299  0.02497469  0.88094754  1
  Pr  Pr3  1  0.23292268  0.91594517  0.13058682  1
  Mn  Mn4  1  0.29237850  0.40661623  0.60530219  1
  Mn  Mn5  1  0.69254675  0.50897362  0.36148950  1
  Mn  Mn6  1  0.00334827  0.00758032  0.01683053  1
  Mn  Mn7  1  0.80608245  0.01853186  0.64234015  1
  Mn  Mn8  1  0.21113053  0.04371512  0.39197715  1
  Mn  Mn9  1  0.48610040  0.47753899  0.98645525  1
  Sb  Sb10  1  0.88178450  0.86164799  0.45384515  1
  Sb  Sb11  1  0.10968600  0.01222302  0.53901505  1
  Sb  Sb12  1  0.03651019  0.49222967  0.82492771  1
  Sb  Sb13  1  0.96189377  0.46205942  0.19316640  1
  Sb  Sb14  1  0.41474464  0.54544251  0.46097292  1
  Sb  Sb15  1  0.60692309  0.57749525  0.53596842  1
  Sb  Sb16  1  0.53188665  0.94391363  0.80451416  1
  Sb  Sb17  1  0.46480662  0.99768255  0.18192835  1
  S  S18  1  0.93875181  0.98445026  0.81545767  1
  S  S19  1  0.05558674  0.01794956  0.19892448  1
  S  S20  1  0.41295504  0.99317021  0.96922211  1
  S  S21  1  0.58124450  0.01847783  0.00686398  1
  S  S22  1  0.17406233  0.97949394  0.88916293  1
  S  S23  1  0.82422025  0.03493176  0.09829825  1
  S  S24  1  0.09707466  0.47511617  0.64317911  1
  S  S25  1  0.90176429  0.43863945  0.35349119  1
  S  S26  1  0.73513110  0.01336896  0.30236351  1
  S  S27  1  0.26766977  0.92075322  0.67854750  1
  S  S28  1  0.16593216  0.47743272  0.45019648  1
  S  S29  1  0.81603255  0.52675754  0.55064635  1
  S  S30  1  0.43466872  0.45013456  0.80525062  1
  S  S31  1  0.56067202  0.50627321  0.19141851  1
  S  S32  1  0.91576840  0.51579614  0.98586690  1
  S  S33  1  0.09009747  0.45843309  0.01704662  1
  S  S34  1  0.65559247  0.53770964  0.88285255  1
  S  S35  1  0.32584108  0.44701635  0.09897464  1
  S  S36  1  0.60269698  0.00959848  0.64975363  1
  S  S37  1  0.39976227  0.02594449  0.33938122  1
  S  S38  1  0.24022188  0.52356105  0.32437797  1
  S  S39  1  0.76492456  0.48018788  0.69709630  1
  S  S40  1  0.67383395  0.04191241  0.44730338  1
  S  S41  1  0.33526660  0.94078746  0.55424149  1
