# generated using pymatgen
data_Pr2Mn3(SbS3)4
_symmetry_space_group_name_H-M   'P 1'
_cell_length_a   20.02960800
_cell_length_b   3.90410600
_cell_length_c   14.95364829
_cell_angle_alpha   90.00000000
_cell_angle_beta   126.33350609
_cell_angle_gamma   90.00000000
_symmetry_Int_Tables_number   1
_chemical_formula_structural   Pr2Mn3(SbS3)4
_chemical_formula_sum   'Pr4 Mn6 Sb8 S24'
_cell_volume   942.00006694
_cell_formula_units_Z   2
loop_
 _symmetry_equiv_pos_site_id
 _symmetry_equiv_pos_as_xyz
  1  'x, y, z'
loop_
 _atom_site_type_symbol
 _atom_site_label
 _atom_site_symmetry_multiplicity
 _atom_site_fract_x
 _atom_site_fract_y
 _atom_site_fract_z
 _atom_site_occupancy
  Pr  Pr0  1  0.27514058  0.47853278  0.86446314  1
  Pr  Pr1  1  0.73176008  0.51633891  0.13938777  1
  Pr  Pr2  1  0.77291407  0.02452781  0.88077924  1
  Pr  Pr3  1  0.23292818  0.91620081  0.13067274  1
  Mn  Mn4  1  0.29260621  0.40761211  0.60551478  1
  Mn  Mn5  1  0.69253560  0.50875842  0.36139474  1
  Mn  Mn6  1  0.00326944  0.00785338  0.01661829  1
  Mn  Mn7  1  0.80612897  0.01816698  0.64228402  1
  Mn  Mn8  1  0.21089332  0.04299760  0.39183604  1
  Mn  Mn9  1  0.48612303  0.47807565  0.98627952  1
  Sb  Sb10  1  0.88167117  0.86177567  0.45375775  1
  Sb  Sb11  1  0.10958961  0.01225766  0.53889612  1
  Sb  Sb12  1  0.03648473  0.49282500  0.82503587  1
  Sb  Sb13  1  0.96200765  0.46204723  0.19342176  1
  Sb  Sb14  1  0.41477118  0.54546089  0.46115354  1
  Sb  Sb15  1  0.60683606  0.57762681  0.53596588  1
  Sb  Sb16  1  0.53195606  0.94408044  0.80453641  1
  Sb  Sb17  1  0.46475961  0.99776219  0.18191734  1
  S  S18  1  0.93884025  0.98445807  0.81540507  1
  S  S19  1  0.05554206  0.01803859  0.19862652  1
  S  S20  1  0.41289974  0.99376660  0.96951736  1
  S  S21  1  0.58130867  0.01877876  0.00710338  1
  S  S22  1  0.17417538  0.97875666  0.88941308  1
  S  S23  1  0.82394747  0.03595600  0.09824437  1
  S  S24  1  0.09711646  0.47556773  0.64329252  1
  S  S25  1  0.90176725  0.43940010  0.35324014  1
  S  S26  1  0.73512125  0.01287580  0.30218383  1
  S  S27  1  0.26772147  0.92122173  0.67873266  1
  S  S28  1  0.16605101  0.47638554  0.44996503  1
  S  S29  1  0.81619593  0.52776315  0.55062988  1
  S  S30  1  0.43469774  0.45053095  0.80533343  1
  S  S31  1  0.56069915  0.50603771  0.19164780  1
  S  S32  1  0.91546286  0.51594911  0.98572610  1
  S  S33  1  0.09036074  0.45909453  0.01723038  1
  S  S34  1  0.65555439  0.53765074  0.88255603  1
  S  S35  1  0.32604407  0.44793433  0.09913412  1
  S  S36  1  0.60287396  0.00798822  0.64979673  1
  S  S37  1  0.40013973  0.02640000  0.33990068  1
  S  S38  1  0.24009166  0.52356909  0.32424875  1
  S  S39  1  0.76474139  0.48088322  0.69681958  1
  S  S40  1  0.67397251  0.04156354  0.44733688  1
  S  S41  1  0.33551819  0.94246435  0.55404710  1
