# generated using pymatgen
data_Pr2Mn3(SbS3)4
_symmetry_space_group_name_H-M   'P 1'
_cell_length_a   20.02960800
_cell_length_b   3.90410600
_cell_length_c   14.95364829
_cell_angle_alpha   90.00000000
_cell_angle_beta   126.33350609
_cell_angle_gamma   90.00000000
_symmetry_Int_Tables_number   1
_chemical_formula_structural   Pr2Mn3(SbS3)4
_chemical_formula_sum   'Pr4 Mn6 Sb8 S24'
_cell_volume   942.00006694
_cell_formula_units_Z   2
loop_
 _symmetry_equiv_pos_site_id
 _symmetry_equiv_pos_as_xyz
  1  'x, y, z'
loop_
 _atom_site_type_symbol
 _atom_site_label
 _atom_site_symmetry_multiplicity
 _atom_site_fract_x
 _atom_site_fract_y
 _atom_site_fract_z
 _atom_site_occupancy
  Pr  Pr0  1  0.27508671  0.47862921  0.86438344  1
  Pr  Pr1  1  0.73164390  0.51612451  0.13899793  1
  Pr  Pr2  1  0.77282666  0.02402492  0.88058337  1
  Pr  Pr3  1  0.23301319  0.91662996  0.13079168  1
  Mn  Mn4  1  0.29280372  0.40879897  0.60567054  1
  Mn  Mn5  1  0.69253417  0.50885344  0.36134190  1
  Mn  Mn6  1  0.00327661  0.00827313  0.01638423  1
  Mn  Mn7  1  0.80613615  0.01762933  0.64215807  1
  Mn  Mn8  1  0.21066575  0.04239989  0.39165964  1
  Mn  Mn9  1  0.48613624  0.47846241  0.98604838  1
  Sb  Sb10  1  0.88161295  0.86208183  0.45372948  1
  Sb  Sb11  1  0.10949331  0.01217234  0.53880084  1
  Sb  Sb12  1  0.03652213  0.49315879  0.82517819  1
  Sb  Sb13  1  0.96208531  0.46206872  0.19370777  1
  Sb  Sb14  1  0.41478831  0.54536098  0.46134444  1
  Sb  Sb15  1  0.60672749  0.57762673  0.53595906  1
  Sb  Sb16  1  0.53202600  0.94418469  0.80454298  1
  Sb  Sb17  1  0.46469191  0.99758495  0.18180596  1
  S  S18  1  0.93887680  0.98468918  0.81535637  1
  S  S19  1  0.05564518  0.01801389  0.19857223  1
  S  S20  1  0.41294632  0.99431173  0.96984902  1
  S  S21  1  0.58135046  0.01895308  0.00728527  1
  S  S22  1  0.17416407  0.97766474  0.88952131  1
  S  S23  1  0.82361815  0.03674032  0.09817215  1
  S  S24  1  0.09715974  0.47559211  0.64339251  1
  S  S25  1  0.90184287  0.43983435  0.35309690  1
  S  S26  1  0.73533349  0.01195426  0.30202466  1
  S  S27  1  0.26780732  0.92166554  0.67873470  1
  S  S28  1  0.16608775  0.47560047  0.44973329  1
  S  S29  1  0.81631057  0.52853679  0.55064127  1
  S  S30  1  0.43467007  0.45036295  0.80537680  1
  S  S31  1  0.56078952  0.50613305  0.19181996  1
  S  S32  1  0.91517629  0.51600303  0.98548426  1
  S  S33  1  0.09055076  0.45947928  0.01741791  1
  S  S34  1  0.65551832  0.53741816  0.88230825  1
  S  S35  1  0.32628735  0.44851817  0.09933706  1
  S  S36  1  0.60295225  0.00662155  0.64990698  1
  S  S37  1  0.40036920  0.02662333  0.34023121  1
  S  S38  1  0.24008698  0.52359247  0.32414144  1
  S  S39  1  0.76457101  0.48175860  0.69668507  1
  S  S40  1  0.67419045  0.04136981  0.44738406  1
  S  S41  1  0.33567305  0.94382915  0.55376983  1
