# generated using pymatgen
data_Pr2Mn3(SbS3)4
_symmetry_space_group_name_H-M   'P 1'
_cell_length_a   20.02960800
_cell_length_b   3.90410600
_cell_length_c   14.95364829
_cell_angle_alpha   90.00000000
_cell_angle_beta   126.33350609
_cell_angle_gamma   90.00000000
_symmetry_Int_Tables_number   1
_chemical_formula_structural   Pr2Mn3(SbS3)4
_chemical_formula_sum   'Pr4 Mn6 Sb8 S24'
_cell_volume   942.00006694
_cell_formula_units_Z   2
loop_
 _symmetry_equiv_pos_site_id
 _symmetry_equiv_pos_as_xyz
  1  'x, y, z'
loop_
 _atom_site_type_symbol
 _atom_site_label
 _atom_site_symmetry_multiplicity
 _atom_site_fract_x
 _atom_site_fract_y
 _atom_site_fract_z
 _atom_site_occupancy
  Pr  Pr0  1  0.27511277  0.47859148  0.86443263  1
  Pr  Pr1  1  0.73150021  0.51582224  0.13865769  1
  Pr  Pr2  1  0.77279548  0.02338969  0.88042419  1
  Pr  Pr3  1  0.23301394  0.91708235  0.13088752  1
  Mn  Mn4  1  0.29303117  0.40985616  0.60587731  1
  Mn  Mn5  1  0.69244183  0.50926127  0.36116870  1
  Mn  Mn6  1  0.00325986  0.00856168  0.01628281  1
  Mn  Mn7  1  0.80615418  0.01728012  0.64211307  1
  Mn  Mn8  1  0.21052919  0.04213700  0.39160356  1
  Mn  Mn9  1  0.48607130  0.47869616  0.98563972  1
  Sb  Sb10  1  0.88159312  0.86224144  0.45371437  1
  Sb  Sb11  1  0.10936700  0.01231836  0.53870191  1
  Sb  Sb12  1  0.03649153  0.49358672  0.82528213  1
  Sb  Sb13  1  0.96208861  0.46201212  0.19391199  1
  Sb  Sb14  1  0.41478072  0.54555194  0.46148953  1
  Sb  Sb15  1  0.60667006  0.57766619  0.53601782  1
  Sb  Sb16  1  0.53207840  0.94446626  0.80451482  1
  Sb  Sb17  1  0.46465640  0.99747209  0.18170196  1
  S  S18  1  0.93888780  0.98541332  0.81531746  1
  S  S19  1  0.05579295  0.01810431  0.19858059  1
  S  S20  1  0.41292548  0.99462961  0.97011811  1
  S  S21  1  0.58156223  0.01943312  0.00761106  1
  S  S22  1  0.17418231  0.97722299  0.88966298  1
  S  S23  1  0.82314907  0.03722910  0.09799816  1
  S  S24  1  0.09720562  0.47528246  0.64349238  1
  S  S25  1  0.90194805  0.44049755  0.35315008  1
  S  S26  1  0.73542507  0.01149870  0.30180510  1
  S  S27  1  0.26783230  0.92199648  0.67856787  1
  S  S28  1  0.16608673  0.47472167  0.44943594  1
  S  S29  1  0.81640063  0.52956093  0.55065517  1
  S  S30  1  0.43467179  0.45032761  0.80545169  1
  S  S31  1  0.56084399  0.50605583  0.19211293  1
  S  S32  1  0.91488291  0.51608510  0.98522288  1
  S  S33  1  0.09077333  0.46014676  0.01762881  1
  S  S34  1  0.65528353  0.53730878  0.88197856  1
  S  S35  1  0.32657946  0.44868288  0.09961027  1
  S  S36  1  0.60284796  0.00527045  0.64985104  1
  S  S37  1  0.40058851  0.02709758  0.34053425  1
  S  S38  1  0.24017681  0.52358735  0.32414277  1
  S  S39  1  0.76451850  0.48229928  0.69665157  1
  S  S40  1  0.67434176  0.04106297  0.44735666  1
  S  S41  1  0.33573093  0.94503945  0.55338823  1
