# generated using pymatgen
data_Pr2Mn3(SbS3)4
_symmetry_space_group_name_H-M   'P 1'
_cell_length_a   20.02960800
_cell_length_b   3.90410600
_cell_length_c   14.95364829
_cell_angle_alpha   90.00000000
_cell_angle_beta   126.33350609
_cell_angle_gamma   90.00000000
_symmetry_Int_Tables_number   1
_chemical_formula_structural   Pr2Mn3(SbS3)4
_chemical_formula_sum   'Pr4 Mn6 Sb8 S24'
_cell_volume   942.00006694
_cell_formula_units_Z   2
loop_
 _symmetry_equiv_pos_site_id
 _symmetry_equiv_pos_as_xyz
  1  'x, y, z'
loop_
 _atom_site_type_symbol
 _atom_site_label
 _atom_site_symmetry_multiplicity
 _atom_site_fract_x
 _atom_site_fract_y
 _atom_site_fract_z
 _atom_site_occupancy
  Pr  Pr0  1  0.26500159  0.47070630  0.86639553  1
  Pr  Pr1  1  0.73589178  0.52290236  0.13673777  1
  Pr  Pr2  1  0.76503401  0.01300444  0.86488089  1
  Pr  Pr3  1  0.23864475  0.00696025  0.13859551  1
  Mn  Mn4  1  0.29416679  0.48497359  0.60192929  1
  Mn  Mn5  1  0.69175401  0.51158255  0.38072388  1
  Mn  Mn6  1  0.00950237  0.00097319  0.01538823  1
  Mn  Mn7  1  0.80428009  0.01338474  0.61413501  1
  Mn  Mn8  1  0.19718176  0.97464270  0.37888614  1
  Mn  Mn9  1  0.49488794  0.45539326  0.98995644  1
  Sb  Sb10  1  0.89030169  0.98547487  0.45101412  1
  Sb  Sb11  1  0.11169646  0.97253459  0.54851721  1
  Sb  Sb12  1  0.03880027  0.51938018  0.81765773  1
  Sb  Sb13  1  0.96620059  0.50737179  0.18671298  1
  Sb  Sb14  1  0.39612765  0.51358468  0.45558106  1
  Sb  Sb15  1  0.60642825  0.47493677  0.54749768  1
  Sb  Sb16  1  0.53482844  0.00715114  0.81058570  1
  Sb  Sb17  1  0.46024872  0.01470983  0.18151253  1
  S  S18  1  0.93256770  0.98810836  0.80220035  1
  S  S19  1  0.06710949  0.98907727  0.18960960  1
  S  S20  1  0.40903789  0.98659654  0.98197457  1
  S  S21  1  0.58960921  0.99184975  0.01777818  1
  S  S22  1  0.16908075  0.00926673  0.89661336  1
  S  S23  1  0.82394964  0.01764008  0.09629310  1
  S  S24  1  0.08917126  0.48368435  0.64275247  1
  S  S25  1  0.90852093  0.46809605  0.35433261  1
  S  S26  1  0.74028136  0.95353327  0.29841033  1
  S  S27  1  0.26168655  0.00000596  0.70874302  1
  S  S28  1  0.16545013  0.47039887  0.43904094  1
  S  S29  1  0.82937604  0.48969002  0.54807222  1
  S  S30  1  0.43273190  0.49638747  0.79429995  1
  S  S31  1  0.56207829  0.50884453  0.18226862  1
  S  S32  1  0.91381652  0.50895160  0.98905644  1
  S  S33  1  0.08482784  0.48492899  0.01653253  1
  S  S34  1  0.66683791  0.50180013  0.88928823  1
  S  S35  1  0.32769635  0.51824345  0.09171143  1
  S  S36  1  0.59648835  0.99585217  0.66076520  1
  S  S37  1  0.40573924  0.97604541  0.34792877  1
  S  S38  1  0.24600465  0.44509589  0.31043125  1
  S  S39  1  0.76780851  0.49999323  0.70496364  1
  S  S40  1  0.67022513  0.03188411  0.45231278  1
  S  S41  1  0.32304767  0.96686148  0.54368478  1
