# generated using pymatgen
data_Pr2Mn3(SbS3)4
_symmetry_space_group_name_H-M   'P 1'
_cell_length_a   20.02960800
_cell_length_b   3.90410600
_cell_length_c   14.95364829
_cell_angle_alpha   90.00000000
_cell_angle_beta   126.33350609
_cell_angle_gamma   90.00000000
_symmetry_Int_Tables_number   1
_chemical_formula_structural   Pr2Mn3(SbS3)4
_chemical_formula_sum   'Pr4 Mn6 Sb8 S24'
_cell_volume   942.00006694
_cell_formula_units_Z   2
loop_
 _symmetry_equiv_pos_site_id
 _symmetry_equiv_pos_as_xyz
  1  'x, y, z'
loop_
 _atom_site_type_symbol
 _atom_site_label
 _atom_site_symmetry_multiplicity
 _atom_site_fract_x
 _atom_site_fract_y
 _atom_site_fract_z
 _atom_site_occupancy
  Pr  Pr0  1  0.27515428  0.47875029  0.86452646  1
  Pr  Pr1  1  0.73143008  0.51534137  0.13843765  1
  Pr  Pr2  1  0.77278580  0.02280046  0.88029018  1
  Pr  Pr3  1  0.23306949  0.91738092  0.13102499  1
  Mn  Mn4  1  0.29324184  0.41115274  0.60599221  1
  Mn  Mn5  1  0.69242270  0.50955111  0.36107242  1
  Mn  Mn6  1  0.00328387  0.00887131  0.01622290  1
  Mn  Mn7  1  0.80627258  0.01697355  0.64204779  1
  Mn  Mn8  1  0.21044268  0.04189451  0.39160172  1
  Mn  Mn9  1  0.48603700  0.47847268  0.98533495  1
  Sb  Sb10  1  0.88155965  0.86219211  0.45366630  1
  Sb  Sb11  1  0.10923396  0.01206386  0.53856306  1
  Sb  Sb12  1  0.03645378  0.49405749  0.82534091  1
  Sb  Sb13  1  0.96210567  0.46177170  0.19409362  1
  Sb  Sb14  1  0.41477452  0.54582867  0.46170669  1
  Sb  Sb15  1  0.60660821  0.57791216  0.53603792  1
  Sb  Sb16  1  0.53209108  0.94461872  0.80450433  1
  Sb  Sb17  1  0.46460903  0.99756394  0.18155720  1
  S  S18  1  0.93889631  0.98594703  0.81525876  1
  S  S19  1  0.05585197  0.01818258  0.19849674  1
  S  S20  1  0.41285935  0.99493699  0.97035637  1
  S  S21  1  0.58175785  0.02006893  0.00792935  1
  S  S22  1  0.17421504  0.97626354  0.88976732  1
  S  S23  1  0.82263498  0.03767943  0.09771883  1
  S  S24  1  0.09720945  0.47485484  0.64355307  1
  S  S25  1  0.90217870  0.44091287  0.35329019  1
  S  S26  1  0.73529418  0.01051362  0.30138487  1
  S  S27  1  0.26791100  0.92183039  0.67841934  1
  S  S28  1  0.16595847  0.47371346  0.44923989  1
  S  S29  1  0.81640982  0.53015237  0.55071397  1
  S  S30  1  0.43465412  0.45021408  0.80546396  1
  S  S31  1  0.56084749  0.50600975  0.19232325  1
  S  S32  1  0.91469987  0.51642260  0.98518571  1
  S  S33  1  0.09098259  0.46083025  0.01785506  1
  S  S34  1  0.65506746  0.53677519  0.88170065  1
  S  S35  1  0.32686316  0.44856054  0.09982610  1
  S  S36  1  0.60275882  0.00391978  0.64975849  1
  S  S37  1  0.40084689  0.02739145  0.34091083  1
  S  S38  1  0.24026232  0.52373883  0.32407137  1
  S  S39  1  0.76432803  0.48307228  0.69653183  1
  S  S40  1  0.67460286  0.04031583  0.44735435  1
  S  S41  1  0.33568707  0.94606773  0.55308766  1
