# generated using pymatgen
data_Pr2Mn3(SbS3)4
_symmetry_space_group_name_H-M   'P 1'
_cell_length_a   20.02960800
_cell_length_b   3.90410600
_cell_length_c   14.95364829
_cell_angle_alpha   90.00000000
_cell_angle_beta   126.33350609
_cell_angle_gamma   90.00000000
_symmetry_Int_Tables_number   1
_chemical_formula_structural   Pr2Mn3(SbS3)4
_chemical_formula_sum   'Pr4 Mn6 Sb8 S24'
_cell_volume   942.00006694
_cell_formula_units_Z   2
loop_
 _symmetry_equiv_pos_site_id
 _symmetry_equiv_pos_as_xyz
  1  'x, y, z'
loop_
 _atom_site_type_symbol
 _atom_site_label
 _atom_site_symmetry_multiplicity
 _atom_site_fract_x
 _atom_site_fract_y
 _atom_site_fract_z
 _atom_site_occupancy
  Pr  Pr0  1  0.27514237  0.47886851  0.86456290  1
  Pr  Pr1  1  0.73138856  0.51518878  0.13829089  1
  Pr  Pr2  1  0.77275869  0.02210442  0.88017673  1
  Pr  Pr3  1  0.23309996  0.91760031  0.13103905  1
  Mn  Mn4  1  0.29343638  0.41213703  0.60614781  1
  Mn  Mn5  1  0.69235222  0.50956830  0.36093755  1
  Mn  Mn6  1  0.00322653  0.00922983  0.01611345  1
  Mn  Mn7  1  0.80637981  0.01676372  0.64191545  1
  Mn  Mn8  1  0.21037709  0.04125825  0.39161007  1
  Mn  Mn9  1  0.48611329  0.47855074  0.98518976  1
  Sb  Sb10  1  0.88154678  0.86224414  0.45371675  1
  Sb  Sb11  1  0.10911240  0.01194832  0.53837247  1
  Sb  Sb12  1  0.03640102  0.49470151  0.82550143  1
  Sb  Sb13  1  0.96212240  0.46150308  0.19423892  1
  Sb  Sb14  1  0.41478940  0.54623842  0.46190101  1
  Sb  Sb15  1  0.60652448  0.57789070  0.53602858  1
  Sb  Sb16  1  0.53210941  0.94490594  0.80449229  1
  Sb  Sb17  1  0.46461941  0.99758443  0.18145982  1
  S  S18  1  0.93891225  0.98632925  0.81534333  1
  S  S19  1  0.05571748  0.01830416  0.19822656  1
  S  S20  1  0.41278825  0.99530908  0.97065355  1
  S  S21  1  0.58209847  0.02056021  0.00844560  1
  S  S22  1  0.17434306  0.97515654  0.88998401  1
  S  S23  1  0.82221724  0.03789481  0.09748785  1
  S  S24  1  0.09712461  0.47446313  0.64368734  1
  S  S25  1  0.90238080  0.44120580  0.35344889  1
  S  S26  1  0.73522648  0.00994822  0.30101988  1
  S  S27  1  0.26777503  0.92183470  0.67819392  1
  S  S28  1  0.16591018  0.47233394  0.44917768  1
  S  S29  1  0.81639210  0.52993380  0.55062847  1
  S  S30  1  0.43468835  0.44968362  0.80556315  1
  S  S31  1  0.56085020  0.50596696  0.19244433  1
  S  S32  1  0.91453742  0.51656277  0.98508459  1
  S  S33  1  0.09123244  0.46145776  0.01804993  1
  S  S34  1  0.65476831  0.53662854  0.88141620  1
  S  S35  1  0.32713651  0.44866139  0.10009571  1
  S  S36  1  0.60275541  0.00255416  0.64981954  1
  S  S37  1  0.40116161  0.02752720  0.34125090  1
  S  S38  1  0.24032487  0.52403958  0.32399258  1
  S  S39  1  0.76401746  0.48385259  0.69637548  1
  S  S40  1  0.67469140  0.03961115  0.44728311  1
  S  S41  1  0.33557475  0.94695304  0.55269002  1
