# generated using pymatgen
data_Pr2Mn3(SbS3)4
_symmetry_space_group_name_H-M   'P 1'
_cell_length_a   20.02960800
_cell_length_b   3.90410600
_cell_length_c   14.95364829
_cell_angle_alpha   90.00000000
_cell_angle_beta   126.33350609
_cell_angle_gamma   90.00000000
_symmetry_Int_Tables_number   1
_chemical_formula_structural   Pr2Mn3(SbS3)4
_chemical_formula_sum   'Pr4 Mn6 Sb8 S24'
_cell_volume   942.00006694
_cell_formula_units_Z   2
loop_
 _symmetry_equiv_pos_site_id
 _symmetry_equiv_pos_as_xyz
  1  'x, y, z'
loop_
 _atom_site_type_symbol
 _atom_site_label
 _atom_site_symmetry_multiplicity
 _atom_site_fract_x
 _atom_site_fract_y
 _atom_site_fract_z
 _atom_site_occupancy
  Pr  Pr0  1  0.27522232  0.47910489  0.86465210  1
  Pr  Pr1  1  0.73135024  0.51510870  0.13810104  1
  Pr  Pr2  1  0.77272287  0.02136152  0.88010030  1
  Pr  Pr3  1  0.23313016  0.91774313  0.13105709  1
  Mn  Mn4  1  0.29357046  0.41315695  0.60626984  1
  Mn  Mn5  1  0.69214815  0.50917589  0.36064968  1
  Mn  Mn6  1  0.00315416  0.00935419  0.01603369  1
  Mn  Mn7  1  0.80647437  0.01655806  0.64180422  1
  Mn  Mn8  1  0.21027942  0.04053829  0.39164806  1
  Mn  Mn9  1  0.48627998  0.47870989  0.98507544  1
  Sb  Sb10  1  0.88155154  0.86239997  0.45371258  1
  Sb  Sb11  1  0.10901205  0.01183632  0.53822671  1
  Sb  Sb12  1  0.03636788  0.49489579  0.82567249  1
  Sb  Sb13  1  0.96215413  0.46122643  0.19442189  1
  Sb  Sb14  1  0.41480361  0.54643372  0.46209359  1
  Sb  Sb15  1  0.60644731  0.57759834  0.53601896  1
  Sb  Sb16  1  0.53209448  0.94530615  0.80449812  1
  Sb  Sb17  1  0.46465453  0.99773350  0.18139540  1
  S  S18  1  0.93897525  0.98689402  0.81536690  1
  S  S19  1  0.05562583  0.01855953  0.19800914  1
  S  S20  1  0.41277842  0.99546709  0.97095443  1
  S  S21  1  0.58248587  0.02125597  0.00908181  1
  S  S22  1  0.17449839  0.97412900  0.89013019  1
  S  S23  1  0.82188346  0.03932645  0.09728885  1
  S  S24  1  0.09702773  0.47433726  0.64375057  1
  S  S25  1  0.90253453  0.44119243  0.35371637  1
  S  S26  1  0.73522873  0.00936891  0.30095218  1
  S  S27  1  0.26751287  0.92182285  0.67796386  1
  S  S28  1  0.16588913  0.47121204  0.44905258  1
  S  S29  1  0.81635442  0.52967031  0.55065963  1
  S  S30  1  0.43474052  0.44892449  0.80572580  1
  S  S31  1  0.56087252  0.50630579  0.19273511  1
  S  S32  1  0.91433286  0.51669304  0.98499029  1
  S  S33  1  0.09145727  0.46242757  0.01812010  1
  S  S34  1  0.65474658  0.53675438  0.88137210  1
  S  S35  1  0.32742011  0.44899339  0.10034715  1
  S  S36  1  0.60281593  0.00118799  0.64992428  1
  S  S37  1  0.40134911  0.02725862  0.34148186  1
  S  S38  1  0.24037645  0.52426672  0.32406908  1
  S  S39  1  0.76372145  0.48416625  0.69627237  1
  S  S40  1  0.67479980  0.03888112  0.44735941  1
  S  S41  1  0.33549501  0.94749593  0.55238599  1
