# generated using pymatgen
data_Pr2Mn3(SbS3)4
_symmetry_space_group_name_H-M   'P 1'
_cell_length_a   20.02960800
_cell_length_b   3.90410600
_cell_length_c   14.95364829
_cell_angle_alpha   90.00000000
_cell_angle_beta   126.33350609
_cell_angle_gamma   90.00000000
_symmetry_Int_Tables_number   1
_chemical_formula_structural   Pr2Mn3(SbS3)4
_chemical_formula_sum   'Pr4 Mn6 Sb8 S24'
_cell_volume   942.00006694
_cell_formula_units_Z   2
loop_
 _symmetry_equiv_pos_site_id
 _symmetry_equiv_pos_as_xyz
  1  'x, y, z'
loop_
 _atom_site_type_symbol
 _atom_site_label
 _atom_site_symmetry_multiplicity
 _atom_site_fract_x
 _atom_site_fract_y
 _atom_site_fract_z
 _atom_site_occupancy
  Pr  Pr0  1  0.27527265  0.47893085  0.86463588  1
  Pr  Pr1  1  0.73133133  0.51515336  0.13795803  1
  Pr  Pr2  1  0.77275967  0.02085673  0.88006915  1
  Pr  Pr3  1  0.23315845  0.91808213  0.13100542  1
  Mn  Mn4  1  0.29364373  0.41434574  0.60636177  1
  Mn  Mn5  1  0.69194673  0.50882596  0.36031384  1
  Mn  Mn6  1  0.00298468  0.00964004  0.01593317  1
  Mn  Mn7  1  0.80649421  0.01647029  0.64164271  1
  Mn  Mn8  1  0.21029071  0.04003243  0.39175449  1
  Mn  Mn9  1  0.48633309  0.47924462  0.98493775  1
  Sb  Sb10  1  0.88152335  0.86272180  0.45370063  1
  Sb  Sb11  1  0.10890464  0.01199112  0.53810073  1
  Sb  Sb12  1  0.03627822  0.49521822  0.82572962  1
  Sb  Sb13  1  0.96220060  0.46120296  0.19465579  1
  Sb  Sb14  1  0.41476562  0.54659758  0.46224836  1
  Sb  Sb15  1  0.60636500  0.57739651  0.53593575  1
  Sb  Sb16  1  0.53208893  0.94586796  0.80453565  1
  Sb  Sb17  1  0.46473463  0.99797770  0.18137148  1
  S  S18  1  0.93899213  0.98721883  0.81540045  1
  S  S19  1  0.05549815  0.01858237  0.19776933  1
  S  S20  1  0.41269493  0.99553310  0.97119356  1
  S  S21  1  0.58279981  0.02198250  0.00966831  1
  S  S22  1  0.17469305  0.97279375  0.89037840  1
  S  S23  1  0.82167162  0.04055570  0.09715109  1
  S  S24  1  0.09688476  0.47372235  0.64376760  1
  S  S25  1  0.90281229  0.44036162  0.35412589  1
  S  S26  1  0.73517303  0.00934550  0.30081070  1
  S  S27  1  0.26725972  0.92215174  0.67772422  1
  S  S28  1  0.16581134  0.46986814  0.44893674  1
  S  S29  1  0.81628052  0.52976974  0.55071784  1
  S  S30  1  0.43473663  0.44859982  0.80575386  1
  S  S31  1  0.56087766  0.50647707  0.19283945  1
  S  S32  1  0.91413974  0.51684490  0.98486134  1
  S  S33  1  0.09171488  0.46296317  0.01810158  1
  S  S34  1  0.65471224  0.53669326  0.88124306  1
  S  S35  1  0.32773452  0.44969592  0.10069009  1
  S  S36  1  0.60281507  0.99978296  0.64996993  1
  S  S37  1  0.40149002  0.02683377  0.34156414  1
  S  S38  1  0.24048335  0.52418637  0.32424406  1
  S  S39  1  0.76347641  0.48491591  0.69625136  1
  S  S40  1  0.67497846  0.03760632  0.44741889  1
  S  S41  1  0.33549969  0.94837627  0.55197282  1
