# generated using pymatgen
data_Pr2Mn3(SbS3)4
_symmetry_space_group_name_H-M   'P 1'
_cell_length_a   20.02960800
_cell_length_b   3.90410600
_cell_length_c   14.95364829
_cell_angle_alpha   90.00000000
_cell_angle_beta   126.33350609
_cell_angle_gamma   90.00000000
_symmetry_Int_Tables_number   1
_chemical_formula_structural   Pr2Mn3(SbS3)4
_chemical_formula_sum   'Pr4 Mn6 Sb8 S24'
_cell_volume   942.00006694
_cell_formula_units_Z   2
loop_
 _symmetry_equiv_pos_site_id
 _symmetry_equiv_pos_as_xyz
  1  'x, y, z'
loop_
 _atom_site_type_symbol
 _atom_site_label
 _atom_site_symmetry_multiplicity
 _atom_site_fract_x
 _atom_site_fract_y
 _atom_site_fract_z
 _atom_site_occupancy
  Pr  Pr0  1  0.27533077  0.47873614  0.86467717  1
  Pr  Pr1  1  0.73125485  0.51520303  0.13785208  1
  Pr  Pr2  1  0.77274887  0.02034740  0.87995799  1
  Pr  Pr3  1  0.23315568  0.91843873  0.13095528  1
  Mn  Mn4  1  0.29367892  0.41535895  0.60637256  1
  Mn  Mn5  1  0.69177242  0.50870377  0.35995601  1
  Mn  Mn6  1  0.00278202  0.01000780  0.01582171  1
  Mn  Mn7  1  0.80637144  0.01620929  0.64137081  1
  Mn  Mn8  1  0.21034891  0.03981676  0.39191473  1
  Mn  Mn9  1  0.48634445  0.47970072  0.98481645  1
  Sb  Sb10  1  0.88143109  0.86295899  0.45363379  1
  Sb  Sb11  1  0.10883403  0.01219459  0.53795887  1
  Sb  Sb12  1  0.03619819  0.49536268  0.82577216  1
  Sb  Sb13  1  0.96227320  0.46124685  0.19497403  1
  Sb  Sb14  1  0.41471086  0.54688728  0.46243486  1
  Sb  Sb15  1  0.60639842  0.57688810  0.53591563  1
  Sb  Sb16  1  0.53202924  0.94635697  0.80448176  1
  Sb  Sb17  1  0.46484338  0.99821131  0.18139870  1
  S  S18  1  0.93904637  0.98722202  0.81548179  1
  S  S19  1  0.05537618  0.01843267  0.19759260  1
  S  S20  1  0.41267767  0.99533418  0.97149901  1
  S  S21  1  0.58297811  0.02215208  0.01032128  1
  S  S22  1  0.17481194  0.97163421  0.89053863  1
  S  S23  1  0.82156167  0.04211968  0.09714728  1
  S  S24  1  0.09685582  0.47294518  0.64387064  1
  S  S25  1  0.90315195  0.43947208  0.35450946  1
  S  S26  1  0.73505203  0.00948086  0.30067207  1
  S  S27  1  0.26686661  0.92280761  0.67746054  1
  S  S28  1  0.16572242  0.46898276  0.44886184  1
  S  S29  1  0.81616065  0.52997013  0.55077708  1
  S  S30  1  0.43475335  0.44825889  0.80571762  1
  S  S31  1  0.56107592  0.50668687  0.19292471  1
  S  S32  1  0.91397723  0.51685504  0.98477033  1
  S  S33  1  0.09195005  0.46324463  0.01818704  1
  S  S34  1  0.65467367  0.53625685  0.88111316  1
  S  S35  1  0.32792508  0.45084115  0.10099883  1
  S  S36  1  0.60281716  0.99847129  0.64986289  1
  S  S37  1  0.40155011  0.02645078  0.34154159  1
  S  S38  1  0.24062724  0.52362950  0.32450623  1
  S  S39  1  0.76339448  0.48566421  0.69630276  1
  S  S40  1  0.67515100  0.03615651  0.44755090  1
  S  S41  1  0.33551620  0.94889352  0.55165295  1
