# generated using pymatgen
data_Pr2Mn3(SbS3)4
_symmetry_space_group_name_H-M   'P 1'
_cell_length_a   20.02960800
_cell_length_b   3.90410600
_cell_length_c   14.95364829
_cell_angle_alpha   90.00000000
_cell_angle_beta   126.33350609
_cell_angle_gamma   90.00000000
_symmetry_Int_Tables_number   1
_chemical_formula_structural   Pr2Mn3(SbS3)4
_chemical_formula_sum   'Pr4 Mn6 Sb8 S24'
_cell_volume   942.00006694
_cell_formula_units_Z   2
loop_
 _symmetry_equiv_pos_site_id
 _symmetry_equiv_pos_as_xyz
  1  'x, y, z'
loop_
 _atom_site_type_symbol
 _atom_site_label
 _atom_site_symmetry_multiplicity
 _atom_site_fract_x
 _atom_site_fract_y
 _atom_site_fract_z
 _atom_site_occupancy
  Pr  Pr0  1  0.27547602  0.47841113  0.86473421  1
  Pr  Pr1  1  0.73116589  0.51527662  0.13773183  1
  Pr  Pr2  1  0.77274702  0.02017192  0.87976956  1
  Pr  Pr3  1  0.23312637  0.91872487  0.13089915  1
  Mn  Mn4  1  0.29382501  0.41666932  0.60650335  1
  Mn  Mn5  1  0.69166535  0.50870499  0.35963656  1
  Mn  Mn6  1  0.00259423  0.01034920  0.01583231  1
  Mn  Mn7  1  0.80629971  0.01590078  0.64110330  1
  Mn  Mn8  1  0.21029927  0.03966046  0.39191686  1
  Mn  Mn9  1  0.48634483  0.48022127  0.98471811  1
  Sb  Sb10  1  0.88130420  0.86306886  0.45354131  1
  Sb  Sb11  1  0.10879495  0.01233845  0.53784968  1
  Sb  Sb12  1  0.03606930  0.49514189  0.82576393  1
  Sb  Sb13  1  0.96234302  0.46149123  0.19528604  1
  Sb  Sb14  1  0.41463640  0.54705948  0.46259550  1
  Sb  Sb15  1  0.60639758  0.57648847  0.53589649  1
  Sb  Sb16  1  0.53191014  0.94679941  0.80437235  1
  Sb  Sb17  1  0.46489050  0.99810869  0.18133131  1
  S  S18  1  0.93902647  0.98698174  0.81555689  1
  S  S19  1  0.05514195  0.01800260  0.19727993  1
  S  S20  1  0.41274071  0.99552237  0.97188384  1
  S  S21  1  0.58304201  0.02287381  0.01089899  1
  S  S22  1  0.17487834  0.97049168  0.89069786  1
  S  S23  1  0.82149765  0.04360158  0.09712840  1
  S  S24  1  0.09702667  0.47230295  0.64411379  1
  S  S25  1  0.90352061  0.43864109  0.35490373  1
  S  S26  1  0.73481581  0.00965754  0.30048159  1
  S  S27  1  0.26648020  0.92397295  0.67724359  1
  S  S28  1  0.16569764  0.46863737  0.44874574  1
  S  S29  1  0.81608674  0.52976557  0.55082951  1
  S  S30  1  0.43488585  0.44804137  0.80588742  1
  S  S31  1  0.56139426  0.50638069  0.19316222  1
  S  S32  1  0.91382752  0.51647606  0.98480395  1
  S  S33  1  0.09223695  0.46340626  0.01838936  1
  S  S34  1  0.65457384  0.53575038  0.88102059  1
  S  S35  1  0.32805880  0.45170062  0.10112021  1
  S  S36  1  0.60278380  0.99777085  0.64971832  1
  S  S37  1  0.40163021  0.02649519  0.34144568  1
  S  S38  1  0.24082270  0.52333057  0.32464687  1
  S  S39  1  0.76331625  0.48618723  0.69644125  1
  S  S40  1  0.67511106  0.03490123  0.44749844  1
  S  S41  1  0.33554560  0.94926330  0.55140088  1
