# generated using pymatgen
data_Pr2Mn3(SbS3)4
_symmetry_space_group_name_H-M   'P 1'
_cell_length_a   20.02960800
_cell_length_b   3.90410600
_cell_length_c   14.95364829
_cell_angle_alpha   90.00000000
_cell_angle_beta   126.33350609
_cell_angle_gamma   90.00000000
_symmetry_Int_Tables_number   1
_chemical_formula_structural   Pr2Mn3(SbS3)4
_chemical_formula_sum   'Pr4 Mn6 Sb8 S24'
_cell_volume   942.00006694
_cell_formula_units_Z   2
loop_
 _symmetry_equiv_pos_site_id
 _symmetry_equiv_pos_as_xyz
  1  'x, y, z'
loop_
 _atom_site_type_symbol
 _atom_site_label
 _atom_site_symmetry_multiplicity
 _atom_site_fract_x
 _atom_site_fract_y
 _atom_site_fract_z
 _atom_site_occupancy
  Pr  Pr0  1  0.27560558  0.47821780  0.86480581  1
  Pr  Pr1  1  0.73107712  0.51530912  0.13752964  1
  Pr  Pr2  1  0.77279610  0.01993279  0.87962584  1
  Pr  Pr3  1  0.23313083  0.91892008  0.13084111  1
  Mn  Mn4  1  0.29402156  0.41728491  0.60666256  1
  Mn  Mn5  1  0.69156888  0.50893125  0.35929161  1
  Mn  Mn6  1  0.00242544  0.01045113  0.01599035  1
  Mn  Mn7  1  0.80620510  0.01551313  0.64084039  1
  Mn  Mn8  1  0.21026020  0.03976766  0.39196243  1
  Mn  Mn9  1  0.48626848  0.48073087  0.98461054  1
  Sb  Sb10  1  0.88119436  0.86304547  0.45350432  1
  Sb  Sb11  1  0.10875742  0.01225388  0.53775536  1
  Sb  Sb12  1  0.03595081  0.49508442  0.82569886  1
  Sb  Sb13  1  0.96243584  0.46191019  0.19561594  1
  Sb  Sb14  1  0.41459913  0.54721214  0.46276999  1
  Sb  Sb15  1  0.60634621  0.57623292  0.53584775  1
  Sb  Sb16  1  0.53179069  0.94746350  0.80422614  1
  Sb  Sb17  1  0.46492223  0.99795666  0.18132285  1
  S  S18  1  0.93895511  0.98612164  0.81563364  1
  S  S19  1  0.05482086  0.01808339  0.19682084  1
  S  S20  1  0.41276381  0.99545992  0.97232215  1
  S  S21  1  0.58304848  0.02358730  0.01134080  1
  S  S22  1  0.17493415  0.96961992  0.89096850  1
  S  S23  1  0.82159427  0.04492282  0.09720940  1
  S  S24  1  0.09718969  0.47191414  0.64443047  1
  S  S25  1  0.90378833  0.43788937  0.35524828  1
  S  S26  1  0.73464306  0.00993213  0.30038312  1
  S  S27  1  0.26618326  0.92525064  0.67704619  1
  S  S28  1  0.16561822  0.46789766  0.44855924  1
  S  S29  1  0.81616300  0.52922957  0.55103436  1
  S  S30  1  0.43510183  0.44808751  0.80612167  1
  S  S31  1  0.56169973  0.50630744  0.19333650  1
  S  S32  1  0.91369894  0.51653827  0.98487423  1
  S  S33  1  0.09240672  0.46340571  0.01852607  1
  S  S34  1  0.65453527  0.53494341  0.88099721  1
  S  S35  1  0.32811924  0.45277697  0.10116749  1
  S  S36  1  0.60291111  0.99704983  0.64979343  1
  S  S37  1  0.40181620  0.02706064  0.34157428  1
  S  S38  1  0.24092496  0.52321603  0.32462940  1
  S  S39  1  0.76346280  0.48613154  0.69690161  1
  S  S40  1  0.67513384  0.03335383  0.44749702  1
  S  S41  1  0.33564557  0.94988610  0.55126560  1
