# generated using pymatgen
data_Pr2Mn3(SbS3)4
_symmetry_space_group_name_H-M   'P 1'
_cell_length_a   20.02960800
_cell_length_b   3.90410600
_cell_length_c   14.95364829
_cell_angle_alpha   90.00000000
_cell_angle_beta   126.33350609
_cell_angle_gamma   90.00000000
_symmetry_Int_Tables_number   1
_chemical_formula_structural   Pr2Mn3(SbS3)4
_chemical_formula_sum   'Pr4 Mn6 Sb8 S24'
_cell_volume   942.00006694
_cell_formula_units_Z   2
loop_
 _symmetry_equiv_pos_site_id
 _symmetry_equiv_pos_as_xyz
  1  'x, y, z'
loop_
 _atom_site_type_symbol
 _atom_site_label
 _atom_site_symmetry_multiplicity
 _atom_site_fract_x
 _atom_site_fract_y
 _atom_site_fract_z
 _atom_site_occupancy
  Pr  Pr0  1  0.27576180  0.47797349  0.86492513  1
  Pr  Pr1  1  0.73099139  0.51533288  0.13732232  1
  Pr  Pr2  1  0.77287242  0.01956466  0.87955511  1
  Pr  Pr3  1  0.23313597  0.91900739  0.13077947  1
  Mn  Mn4  1  0.29422407  0.41795155  0.60671148  1
  Mn  Mn5  1  0.69146421  0.50883253  0.35904590  1
  Mn  Mn6  1  0.00227889  0.01017975  0.01606254  1
  Mn  Mn7  1  0.80613199  0.01520381  0.64045619  1
  Mn  Mn8  1  0.21025767  0.04009840  0.39209364  1
  Mn  Mn9  1  0.48622931  0.48042371  0.98454149  1
  Sb  Sb10  1  0.88105543  0.86268550  0.45340151  1
  Sb  Sb11  1  0.10873317  0.01209895  0.53769598  1
  Sb  Sb12  1  0.03583981  0.49499332  0.82562683  1
  Sb  Sb13  1  0.96251722  0.46208193  0.19590368  1
  Sb  Sb14  1  0.41457793  0.54741453  0.46290856  1
  Sb  Sb15  1  0.60624762  0.57600600  0.53571055  1
  Sb  Sb16  1  0.53164206  0.94810869  0.80401343  1
  Sb  Sb17  1  0.46496285  0.99803625  0.18129149  1
  S  S18  1  0.93883221  0.98546609  0.81578915  1
  S  S19  1  0.05467353  0.01783495  0.19660514  1
  S  S20  1  0.41282874  0.99539290  0.97275525  1
  S  S21  1  0.58303752  0.02447660  0.01175691  1
  S  S22  1  0.17501645  0.96944003  0.89114495  1
  S  S23  1  0.82180798  0.04621070  0.09733024  1
  S  S24  1  0.09737398  0.47136427  0.64470529  1
  S  S25  1  0.90410762  0.43703806  0.35560616  1
  S  S26  1  0.73451155  0.01067675  0.30036257  1
  S  S27  1  0.26599347  0.92677833  0.67695399  1
  S  S28  1  0.16554127  0.46753378  0.44839399  1
  S  S29  1  0.81610537  0.52886873  0.55115194  1
  S  S30  1  0.43522562  0.44843095  0.80621932  1
  S  S31  1  0.56192584  0.50649041  0.19333323  1
  S  S32  1  0.91371447  0.51628935  0.98508101  1
  S  S33  1  0.09261504  0.46396891  0.01874620  1
  S  S34  1  0.65441945  0.53406491  0.88080429  1
  S  S35  1  0.32821621  0.45409252  0.10115529  1
  S  S36  1  0.60302510  0.99620220  0.64987041  1
  S  S37  1  0.40200075  0.02704779  0.34166197  1
  S  S38  1  0.24087931  0.52308064  0.32447194  1
  S  S39  1  0.76356264  0.48613891  0.69738025  1
  S  S40  1  0.67521823  0.03199693  0.44763097  1
  S  S41  1  0.33571786  0.95048980  0.55113515  1
