# generated using pymatgen
data_Pr2Mn3(SbS3)4
_symmetry_space_group_name_H-M   'P 1'
_cell_length_a   20.02960800
_cell_length_b   3.90410600
_cell_length_c   14.95364829
_cell_angle_alpha   90.00000000
_cell_angle_beta   126.33350609
_cell_angle_gamma   90.00000000
_symmetry_Int_Tables_number   1
_chemical_formula_structural   Pr2Mn3(SbS3)4
_chemical_formula_sum   'Pr4 Mn6 Sb8 S24'
_cell_volume   942.00006694
_cell_formula_units_Z   2
loop_
 _symmetry_equiv_pos_site_id
 _symmetry_equiv_pos_as_xyz
  1  'x, y, z'
loop_
 _atom_site_type_symbol
 _atom_site_label
 _atom_site_symmetry_multiplicity
 _atom_site_fract_x
 _atom_site_fract_y
 _atom_site_fract_z
 _atom_site_occupancy
  Pr  Pr0  1  0.27589216  0.47768094  0.86505767  1
  Pr  Pr1  1  0.73094176  0.51540642  0.13710114  1
  Pr  Pr2  1  0.77289251  0.01930498  0.87944436  1
  Pr  Pr3  1  0.23313300  0.91902627  0.13074494  1
  Mn  Mn4  1  0.29449022  0.41881650  0.60688320  1
  Mn  Mn5  1  0.69136725  0.50871149  0.35875115  1
  Mn  Mn6  1  0.00216921  0.01003968  0.01627831  1
  Mn  Mn7  1  0.80608067  0.01523978  0.64014462  1
  Mn  Mn8  1  0.21027221  0.04059885  0.39230534  1
  Mn  Mn9  1  0.48618333  0.48002035  0.98442843  1
  Sb  Sb10  1  0.88089695  0.86251102  0.45331071  1
  Sb  Sb11  1  0.10867632  0.01195501  0.53764118  1
  Sb  Sb12  1  0.03578900  0.49493659  0.82560272  1
  Sb  Sb13  1  0.96255378  0.46199304  0.19614930  1
  Sb  Sb14  1  0.41455067  0.54735640  0.46301304  1
  Sb  Sb15  1  0.60613465  0.57602256  0.53550634  1
  Sb  Sb16  1  0.53148281  0.94870129  0.80378092  1
  Sb  Sb17  1  0.46498213  0.99832881  0.18119511  1
  S  S18  1  0.93873105  0.98493674  0.81584890  1
  S  S19  1  0.05448181  0.01759870  0.19638199  1
  S  S20  1  0.41289986  0.99513462  0.97305941  1
  S  S21  1  0.58321675  0.02499773  0.01231795  1
  S  S22  1  0.17509122  0.96884964  0.89121013  1
  S  S23  1  0.82195122  0.04803715  0.09748378  1
  S  S24  1  0.09748419  0.47093735  0.64495015  1
  S  S25  1  0.90434745  0.43595343  0.35583893  1
  S  S26  1  0.73435912  0.01169739  0.30020427  1
  S  S27  1  0.26588004  0.92811095  0.67702121  1
  S  S28  1  0.16555235  0.46696148  0.44835926  1
  S  S29  1  0.81612703  0.52838251  0.55139584  1
  S  S30  1  0.43527418  0.44876117  0.80626629  1
  S  S31  1  0.56213261  0.50585938  0.19332182  1
  S  S32  1  0.91376771  0.51561260  0.98526073  1
  S  S33  1  0.09276017  0.46445829  0.01887399  1
  S  S34  1  0.65425395  0.53326524  0.88057272  1
  S  S35  1  0.32816513  0.45567107  0.10097466  1
  S  S36  1  0.60313656  0.99524455  0.64993054  1
  S  S37  1  0.40215972  0.02685330  0.34171835  1
  S  S38  1  0.24087915  0.52330464  0.32438086  1
  S  S39  1  0.76378540  0.48630170  0.69791087  1
  S  S40  1  0.67530181  0.03053549  0.44776779  1
  S  S41  1  0.33591158  0.95116624  0.55105521  1
