# generated using pymatgen
data_Pr2Mn3(SbS3)4
_symmetry_space_group_name_H-M   'P 1'
_cell_length_a   20.02960800
_cell_length_b   3.90410600
_cell_length_c   14.95364829
_cell_angle_alpha   90.00000000
_cell_angle_beta   126.33350609
_cell_angle_gamma   90.00000000
_symmetry_Int_Tables_number   1
_chemical_formula_structural   Pr2Mn3(SbS3)4
_chemical_formula_sum   'Pr4 Mn6 Sb8 S24'
_cell_volume   942.00006694
_cell_formula_units_Z   2
loop_
 _symmetry_equiv_pos_site_id
 _symmetry_equiv_pos_as_xyz
  1  'x, y, z'
loop_
 _atom_site_type_symbol
 _atom_site_label
 _atom_site_symmetry_multiplicity
 _atom_site_fract_x
 _atom_site_fract_y
 _atom_site_fract_z
 _atom_site_occupancy
  Pr  Pr0  1  0.27598590  0.47762772  0.86521073  1
  Pr  Pr1  1  0.73082581  0.51530017  0.13689149  1
  Pr  Pr2  1  0.77288843  0.01911563  0.87921103  1
  Pr  Pr3  1  0.23309536  0.91922137  0.13060725  1
  Mn  Mn4  1  0.29480192  0.42006435  0.60706601  1
  Mn  Mn5  1  0.69129104  0.50908620  0.35848581  1
  Mn  Mn6  1  0.00208669  0.01013213  0.01653537  1
  Mn  Mn7  1  0.80603417  0.01555544  0.63981274  1
  Mn  Mn8  1  0.21023524  0.04075251  0.39250564  1
  Mn  Mn9  1  0.48612033  0.47961133  0.98438256  1
  Sb  Sb10  1  0.88075499  0.86240441  0.45322143  1
  Sb  Sb11  1  0.10857834  0.01172152  0.53751240  1
  Sb  Sb12  1  0.03581425  0.49479679  0.82568930  1
  Sb  Sb13  1  0.96258340  0.46159512  0.19637621  1
  Sb  Sb14  1  0.41451725  0.54742311  0.46311867  1
  Sb  Sb15  1  0.60602996  0.57601980  0.53527710  1
  Sb  Sb16  1  0.53135421  0.94955025  0.80358611  1
  Sb  Sb17  1  0.46500823  0.99836106  0.18116377  1
  S  S18  1  0.93861147  0.98468079  0.81585182  1
  S  S19  1  0.05410875  0.01728451  0.19602594  1
  S  S20  1  0.41295585  0.99534209  0.97334457  1
  S  S21  1  0.58331800  0.02526737  0.01275323  1
  S  S22  1  0.17517070  0.96766645  0.89143342  1
  S  S23  1  0.82206356  0.04986589  0.09779819  1
  S  S24  1  0.09762515  0.47071877  0.64517704  1
  S  S25  1  0.90451296  0.43552923  0.35593056  1
  S  S26  1  0.73421603  0.01240922  0.30018478  1
  S  S27  1  0.26576447  0.92958716  0.67707436  1
  S  S28  1  0.16555859  0.46663004  0.44824946  1
  S  S29  1  0.81624163  0.52819660  0.55164795  1
  S  S30  1  0.43523140  0.44923700  0.80612795  1
  S  S31  1  0.56241928  0.50543340  0.19337320  1
  S  S32  1  0.91388398  0.51456352  0.98543276  1
  S  S33  1  0.09292871  0.46505732  0.01899079  1
  S  S34  1  0.65405801  0.53206201  0.88024576  1
  S  S35  1  0.32808156  0.45712051  0.10084287  1
  S  S36  1  0.60320708  0.99435614  0.65007108  1
  S  S37  1  0.40228752  0.02680327  0.34179286  1
  S  S38  1  0.24091336  0.52344317  0.32421367  1
  S  S39  1  0.76400458  0.48723340  0.69844602  1
  S  S40  1  0.67539828  0.02902815  0.44793378  1
  S  S41  1  0.33599362  0.95185504  0.55096618  1
