# generated using pymatgen
data_Pr2Mn3(SbS3)4
_symmetry_space_group_name_H-M   'P 1'
_cell_length_a   20.02960800
_cell_length_b   3.90410600
_cell_length_c   14.95364829
_cell_angle_alpha   90.00000000
_cell_angle_beta   126.33350609
_cell_angle_gamma   90.00000000
_symmetry_Int_Tables_number   1
_chemical_formula_structural   Pr2Mn3(SbS3)4
_chemical_formula_sum   'Pr4 Mn6 Sb8 S24'
_cell_volume   942.00006694
_cell_formula_units_Z   2
loop_
 _symmetry_equiv_pos_site_id
 _symmetry_equiv_pos_as_xyz
  1  'x, y, z'
loop_
 _atom_site_type_symbol
 _atom_site_label
 _atom_site_symmetry_multiplicity
 _atom_site_fract_x
 _atom_site_fract_y
 _atom_site_fract_z
 _atom_site_occupancy
  Pr  Pr0  1  0.26512176  0.47088299  0.86628914  1
  Pr  Pr1  1  0.73587340  0.52229862  0.13666380  1
  Pr  Pr2  1  0.76503671  0.01288801  0.86492758  1
  Pr  Pr3  1  0.23869995  0.00705190  0.13861695  1
  Mn  Mn4  1  0.29415512  0.48468650  0.60197145  1
  Mn  Mn5  1  0.69158081  0.51076829  0.38058063  1
  Mn  Mn6  1  0.00978049  0.00185542  0.01564909  1
  Mn  Mn7  1  0.80427483  0.01369955  0.61400071  1
  Mn  Mn8  1  0.19724774  0.97501297  0.37890560  1
  Mn  Mn9  1  0.49478661  0.45611343  0.99000107  1
  Sb  Sb10  1  0.89035462  0.98479586  0.45089451  1
  Sb  Sb11  1  0.11180685  0.97288213  0.54853693  1
  Sb  Sb12  1  0.03882903  0.51929953  0.81778541  1
  Sb  Sb13  1  0.96631759  0.50700521  0.18682168  1
  Sb  Sb14  1  0.39619668  0.51301382  0.45551962  1
  Sb  Sb15  1  0.60636747  0.47528844  0.54749908  1
  Sb  Sb16  1  0.53476374  0.00729449  0.81052427  1
  Sb  Sb17  1  0.46024686  0.01477240  0.18150098  1
  S  S18  1  0.93260208  0.98739731  0.80211310  1
  S  S19  1  0.06708742  0.99055328  0.19003828  1
  S  S20  1  0.40892655  0.98559768  0.98202404  1
  S  S21  1  0.58921921  0.99151381  0.01733359  1
  S  S22  1  0.16912193  0.01038681  0.89678615  1
  S  S23  1  0.82394187  0.01828761  0.09625538  1
  S  S24  1  0.08946547  0.48373821  0.64301170  1
  S  S25  1  0.90867989  0.46827911  0.35460469  1
  S  S26  1  0.74052423  0.95255212  0.29895768  1
  S  S27  1  0.26200643  0.99964363  0.70906966  1
  S  S28  1  0.16517490  0.46950643  0.43899185  1
  S  S29  1  0.82924607  0.48943915  0.54808241  1
  S  S30  1  0.43261358  0.49543287  0.79428344  1
  S  S31  1  0.56210565  0.50938228  0.18251893  1
  S  S32  1  0.91353697  0.50772024  0.98873538  1
  S  S33  1  0.08512541  0.48449359  0.01698936  1
  S  S34  1  0.66664741  0.50222698  0.88901404  1
  S  S35  1  0.32757672  0.51942055  0.09175369  1
  S  S36  1  0.59641654  0.99485300  0.66066423  1
  S  S37  1  0.40571345  0.97700359  0.34814674  1
  S  S38  1  0.24569621  0.44516001  0.31005112  1
  S  S39  1  0.76800021  0.50046755  0.70512126  1
  S  S40  1  0.67013846  0.03168938  0.45239892  1
  S  S41  1  0.32292790  0.96744991  0.54385377  1
