# generated using pymatgen
data_Pr2Mn3(SbS3)4
_symmetry_space_group_name_H-M   'P 1'
_cell_length_a   20.02960800
_cell_length_b   3.90410600
_cell_length_c   14.95364829
_cell_angle_alpha   90.00000000
_cell_angle_beta   126.33350609
_cell_angle_gamma   90.00000000
_symmetry_Int_Tables_number   1
_chemical_formula_structural   Pr2Mn3(SbS3)4
_chemical_formula_sum   'Pr4 Mn6 Sb8 S24'
_cell_volume   942.00006694
_cell_formula_units_Z   2
loop_
 _symmetry_equiv_pos_site_id
 _symmetry_equiv_pos_as_xyz
  1  'x, y, z'
loop_
 _atom_site_type_symbol
 _atom_site_label
 _atom_site_symmetry_multiplicity
 _atom_site_fract_x
 _atom_site_fract_y
 _atom_site_fract_z
 _atom_site_occupancy
  Pr  Pr0  1  0.27605900  0.47763040  0.86536043  1
  Pr  Pr1  1  0.73068019  0.51522602  0.13663814  1
  Pr  Pr2  1  0.77288619  0.01902062  0.87907178  1
  Pr  Pr3  1  0.23309134  0.91945244  0.13052943  1
  Mn  Mn4  1  0.29503683  0.42130148  0.60731317  1
  Mn  Mn5  1  0.69126400  0.50968234  0.35821691  1
  Mn  Mn6  1  0.00203712  0.01036957  0.01665823  1
  Mn  Mn7  1  0.80594921  0.01604240  0.63957788  1
  Mn  Mn8  1  0.21019500  0.04145106  0.39273813  1
  Mn  Mn9  1  0.48604235  0.47865188  0.98440593  1
  Sb  Sb10  1  0.88071961  0.86218352  0.45329116  1
  Sb  Sb11  1  0.10855308  0.01132276  0.53747899  1
  Sb  Sb12  1  0.03587997  0.49451712  0.82582122  1
  Sb  Sb13  1  0.96259231  0.46093946  0.19657438  1
  Sb  Sb14  1  0.41452108  0.54735678  0.46328031  1
  Sb  Sb15  1  0.60591085  0.57606746  0.53507176  1
  Sb  Sb16  1  0.53124569  0.95030916  0.80342194  1
  Sb  Sb17  1  0.46500342  0.99849780  0.18110082  1
  S  S18  1  0.93837159  0.98439617  0.81573857  1
  S  S19  1  0.05375359  0.01742911  0.19564302  1
  S  S20  1  0.41307342  0.99602001  0.97371665  1
  S  S21  1  0.58331596  0.02513448  0.01296923  1
  S  S22  1  0.17520180  0.96645770  0.89169284  1
  S  S23  1  0.82199996  0.05122507  0.09808499  1
  S  S24  1  0.09785243  0.47042569  0.64542295  1
  S  S25  1  0.90459459  0.43450107  0.35596282  1
  S  S26  1  0.73406570  0.01324738  0.30003798  1
  S  S27  1  0.26566387  0.93102789  0.67716100  1
  S  S28  1  0.16569959  0.46649270  0.44823234  1
  S  S29  1  0.81628435  0.52824302  0.55162003  1
  S  S30  1  0.43523111  0.44979039  0.80610918  1
  S  S31  1  0.56262204  0.50512755  0.19334967  1
  S  S32  1  0.91384246  0.51387348  0.98558462  1
  S  S33  1  0.09300909  0.46557940  0.01908846  1
  S  S34  1  0.65394468  0.53157278  0.88000601  1
  S  S35  1  0.32802431  0.45838016  0.10082701  1
  S  S36  1  0.60330046  0.99285936  0.65026538  1
  S  S37  1  0.40238390  0.02690428  0.34175444  1
  S  S38  1  0.24097569  0.52351301  0.32405276  1
  S  S39  1  0.76407976  0.48790815  0.69885133  1
  S  S40  1  0.67558544  0.02738027  0.44817464  1
  S  S41  1  0.33599478  0.95208239  0.55082881  1
