# generated using pymatgen
data_Pr2Mn3(SbS3)4
_symmetry_space_group_name_H-M   'P 1'
_cell_length_a   20.02960800
_cell_length_b   3.90410600
_cell_length_c   14.95364829
_cell_angle_alpha   90.00000000
_cell_angle_beta   126.33350609
_cell_angle_gamma   90.00000000
_symmetry_Int_Tables_number   1
_chemical_formula_structural   Pr2Mn3(SbS3)4
_chemical_formula_sum   'Pr4 Mn6 Sb8 S24'
_cell_volume   942.00006694
_cell_formula_units_Z   2
loop_
 _symmetry_equiv_pos_site_id
 _symmetry_equiv_pos_as_xyz
  1  'x, y, z'
loop_
 _atom_site_type_symbol
 _atom_site_label
 _atom_site_symmetry_multiplicity
 _atom_site_fract_x
 _atom_site_fract_y
 _atom_site_fract_z
 _atom_site_occupancy
  Pr  Pr0  1  0.27611733  0.47756976  0.86551268  1
  Pr  Pr1  1  0.73054551  0.51527787  0.13645172  1
  Pr  Pr2  1  0.77289130  0.01879329  0.87893492  1
  Pr  Pr3  1  0.23310757  0.91987500  0.13053443  1
  Mn  Mn4  1  0.29527696  0.42220787  0.60763417  1
  Mn  Mn5  1  0.69121292  0.51009042  0.35784449  1
  Mn  Mn6  1  0.00205855  0.01009593  0.01677436  1
  Mn  Mn7  1  0.80581745  0.01635214  0.63944277  1
  Mn  Mn8  1  0.21026776  0.04239080  0.39297665  1
  Mn  Mn9  1  0.48595516  0.47757728  0.98436834  1
  Sb  Sb10  1  0.88066212  0.86201775  0.45326920  1
  Sb  Sb11  1  0.10852320  0.01116495  0.53744367  1
  Sb  Sb12  1  0.03588423  0.49446802  0.82589543  1
  Sb  Sb13  1  0.96254100  0.46046857  0.19670793  1
  Sb  Sb14  1  0.41450897  0.54729759  0.46345610  1
  Sb  Sb15  1  0.60583689  0.57617715  0.53496608  1
  Sb  Sb16  1  0.53115040  0.95078043  0.80328283  1
  Sb  Sb17  1  0.46495241  0.99881923  0.18107688  1
  S  S18  1  0.93824625  0.98479445  0.81552359  1
  S  S19  1  0.05340875  0.01809165  0.19529585  1
  S  S20  1  0.41330498  0.99677511  0.97430557  1
  S  S21  1  0.58331511  0.02493368  0.01309841  1
  S  S22  1  0.17537460  0.96472904  0.89198244  1
  S  S23  1  0.82205060  0.05198451  0.09845393  1
  S  S24  1  0.09806354  0.47010432  0.64561437  1
  S  S25  1  0.90461095  0.43323156  0.35582757  1
  S  S26  1  0.73395228  0.01368772  0.29975562  1
  S  S27  1  0.26557760  0.93292644  0.67721513  1
  S  S28  1  0.16579758  0.46590993  0.44811618  1
  S  S29  1  0.81639545  0.52891839  0.55165207  1
  S  S30  1  0.43512512  0.44988633  0.80599331  1
  S  S31  1  0.56286256  0.50524655  0.19345808  1
  S  S32  1  0.91400814  0.51374009  0.98597767  1
  S  S33  1  0.09309857  0.46635036  0.01925890  1
  S  S34  1  0.65391454  0.53042760  0.87986236  1
  S  S35  1  0.32803579  0.45978123  0.10092592  1
  S  S36  1  0.60330549  0.99183386  0.65030068  1
  S  S37  1  0.40229817  0.02683392  0.34156933  1
  S  S38  1  0.24085913  0.52411186  0.32373559  1
  S  S39  1  0.76413950  0.48859906  0.69922922  1
  S  S40  1  0.67585678  0.02559975  0.44847765  1
  S  S41  1  0.33616435  0.95254192  0.55073875  1
