# generated using pymatgen
data_Pr2Mn3(SbS3)4
_symmetry_space_group_name_H-M   'P 1'
_cell_length_a   20.02960800
_cell_length_b   3.90410600
_cell_length_c   14.95364829
_cell_angle_alpha   90.00000000
_cell_angle_beta   126.33350609
_cell_angle_gamma   90.00000000
_symmetry_Int_Tables_number   1
_chemical_formula_structural   Pr2Mn3(SbS3)4
_chemical_formula_sum   'Pr4 Mn6 Sb8 S24'
_cell_volume   942.00006694
_cell_formula_units_Z   2
loop_
 _symmetry_equiv_pos_site_id
 _symmetry_equiv_pos_as_xyz
  1  'x, y, z'
loop_
 _atom_site_type_symbol
 _atom_site_label
 _atom_site_symmetry_multiplicity
 _atom_site_fract_x
 _atom_site_fract_y
 _atom_site_fract_z
 _atom_site_occupancy
  Pr  Pr0  1  0.27616919  0.47759747  0.86559560  1
  Pr  Pr1  1  0.73043382  0.51520857  0.13633040  1
  Pr  Pr2  1  0.77290553  0.01863041  0.87879692  1
  Pr  Pr3  1  0.23311758  0.92032605  0.13047637  1
  Mn  Mn4  1  0.29540356  0.42304926  0.60790299  1
  Mn  Mn5  1  0.69110768  0.51085307  0.35750990  1
  Mn  Mn6  1  0.00210645  0.00959028  0.01695307  1
  Mn  Mn7  1  0.80572132  0.01682732  0.63924628  1
  Mn  Mn8  1  0.21033701  0.04341729  0.39318509  1
  Mn  Mn9  1  0.48590644  0.47647699  0.98442997  1
  Sb  Sb10  1  0.88061572  0.86202250  0.45327734  1
  Sb  Sb11  1  0.10841938  0.01087844  0.53738395  1
  Sb  Sb12  1  0.03591802  0.49424128  0.82596776  1
  Sb  Sb13  1  0.96248518  0.46025055  0.19690175  1
  Sb  Sb14  1  0.41454046  0.54749011  0.46369251  1
  Sb  Sb15  1  0.60575740  0.57613771  0.53483543  1
  Sb  Sb16  1  0.53106865  0.95109923  0.80321801  1
  Sb  Sb17  1  0.46489110  0.99908289  0.18105976  1
  S  S18  1  0.93818769  0.98489404  0.81529257  1
  S  S19  1  0.05309995  0.01889433  0.19492981  1
  S  S20  1  0.41355073  0.99772789  0.97487080  1
  S  S21  1  0.58331375  0.02500862  0.01337355  1
  S  S22  1  0.17564278  0.96302561  0.89229630  1
  S  S23  1  0.82205545  0.05245306  0.09862832  1
  S  S24  1  0.09822699  0.46978709  0.64586162  1
  S  S25  1  0.90459719  0.43160906  0.35563171  1
  S  S26  1  0.73382880  0.01378281  0.29952665  1
  S  S27  1  0.26551562  0.93565065  0.67724024  1
  S  S28  1  0.16568785  0.46505711  0.44779069  1
  S  S29  1  0.81651510  0.52926495  0.55174761  1
  S  S30  1  0.43493012  0.44983778  0.80583732  1
  S  S31  1  0.56305970  0.50572634  0.19360689  1
  S  S32  1  0.91415963  0.51391097  0.98626711  1
  S  S33  1  0.09328425  0.46663983  0.01953232  1
  S  S34  1  0.65389732  0.52913503  0.87971971  1
  S  S35  1  0.32808542  0.46093771  0.10116289  1
  S  S36  1  0.60336786  0.99118927  0.65037277  1
  S  S37  1  0.40220983  0.02654827  0.34145404  1
  S  S38  1  0.24085320  0.52482541  0.32349059  1
  S  S39  1  0.76415878  0.48904291  0.69946428  1
  S  S40  1  0.67595264  0.02333203  0.44852545  1
  S  S41  1  0.33634152  0.95316412  0.55046233  1
