# generated using pymatgen
data_Pr2Mn3(SbS3)4
_symmetry_space_group_name_H-M   'P 1'
_cell_length_a   20.02960800
_cell_length_b   3.90410600
_cell_length_c   14.95364829
_cell_angle_alpha   90.00000000
_cell_angle_beta   126.33350609
_cell_angle_gamma   90.00000000
_symmetry_Int_Tables_number   1
_chemical_formula_structural   Pr2Mn3(SbS3)4
_chemical_formula_sum   'Pr4 Mn6 Sb8 S24'
_cell_volume   942.00006694
_cell_formula_units_Z   2
loop_
 _symmetry_equiv_pos_site_id
 _symmetry_equiv_pos_as_xyz
  1  'x, y, z'
loop_
 _atom_site_type_symbol
 _atom_site_label
 _atom_site_symmetry_multiplicity
 _atom_site_fract_x
 _atom_site_fract_y
 _atom_site_fract_z
 _atom_site_occupancy
  Pr  Pr0  1  0.27626612  0.47743637  0.86576214  1
  Pr  Pr1  1  0.73029847  0.51505209  0.13619347  1
  Pr  Pr2  1  0.77290947  0.01836981  0.87866251  1
  Pr  Pr3  1  0.23307304  0.92060838  0.13041890  1
  Mn  Mn4  1  0.29550588  0.42378326  0.60811091  1
  Mn  Mn5  1  0.69093245  0.51168154  0.35717116  1
  Mn  Mn6  1  0.00208608  0.00916721  0.01724186  1
  Mn  Mn7  1  0.80567901  0.01739800  0.63907839  1
  Mn  Mn8  1  0.21041117  0.04432633  0.39347430  1
  Mn  Mn9  1  0.48584734  0.47544458  0.98454697  1
  Sb  Sb10  1  0.88055219  0.86202294  0.45325745  1
  Sb  Sb11  1  0.10832909  0.01063970  0.53734057  1
  Sb  Sb12  1  0.03593382  0.49402527  0.82594572  1
  Sb  Sb13  1  0.96248457  0.45996787  0.19705326  1
  Sb  Sb14  1  0.41456867  0.54782943  0.46396475  1
  Sb  Sb15  1  0.60565216  0.57601180  0.53475223  1
  Sb  Sb16  1  0.53097546  0.95147939  0.80314923  1
  Sb  Sb17  1  0.46481786  0.99917452  0.18105839  1
  S  S18  1  0.93824672  0.98544765  0.81520034  1
  S  S19  1  0.05272407  0.01995699  0.19446354  1
  S  S20  1  0.41368933  0.99843900  0.97536989  1
  S  S21  1  0.58341767  0.02515757  0.01377668  1
  S  S22  1  0.17580351  0.96190782  0.89244655  1
  S  S23  1  0.82199336  0.05304287  0.09887097  1
  S  S24  1  0.09850681  0.46983071  0.64613206  1
  S  S25  1  0.90457669  0.43029307  0.35552692  1
  S  S26  1  0.73366189  0.01433901  0.29929832  1
  S  S27  1  0.26539965  0.93814041  0.67716397  1
  S  S28  1  0.16552891  0.46435136  0.44747656  1
  S  S29  1  0.81672921  0.52995912  0.55189941  1
  S  S30  1  0.43460138  0.44972342  0.80585439  1
  S  S31  1  0.56313712  0.50655875  0.19374628  1
  S  S32  1  0.91441953  0.51399995  0.98653195  1
  S  S33  1  0.09358500  0.46746563  0.01997713  1
  S  S34  1  0.65393049  0.52814116  0.87971488  1
  S  S35  1  0.32805610  0.46170651  0.10123858  1
  S  S36  1  0.60335318  0.99032349  0.65037002  1
  S  S37  1  0.40208440  0.02647465  0.34127404  1
  S  S38  1  0.24089134  0.52527277  0.32341110  1
  S  S39  1  0.76426590  0.48998271  0.69970202  1
  S  S40  1  0.67610915  0.02085642  0.44870652  1
  S  S41  1  0.33630915  0.95339093  0.54996521  1
