# generated using pymatgen
data_Pr2Mn3(SbS3)4
_symmetry_space_group_name_H-M   'P 1'
_cell_length_a   20.02960800
_cell_length_b   3.90410600
_cell_length_c   14.95364829
_cell_angle_alpha   90.00000000
_cell_angle_beta   126.33350609
_cell_angle_gamma   90.00000000
_symmetry_Int_Tables_number   1
_chemical_formula_structural   Pr2Mn3(SbS3)4
_chemical_formula_sum   'Pr4 Mn6 Sb8 S24'
_cell_volume   942.00006694
_cell_formula_units_Z   2
loop_
 _symmetry_equiv_pos_site_id
 _symmetry_equiv_pos_as_xyz
  1  'x, y, z'
loop_
 _atom_site_type_symbol
 _atom_site_label
 _atom_site_symmetry_multiplicity
 _atom_site_fract_x
 _atom_site_fract_y
 _atom_site_fract_z
 _atom_site_occupancy
  Pr  Pr0  1  0.27638022  0.47724515  0.86588112  1
  Pr  Pr1  1  0.73017872  0.51499124  0.13603946  1
  Pr  Pr2  1  0.77289969  0.01805444  0.87853037  1
  Pr  Pr3  1  0.23299519  0.92085530  0.13034474  1
  Mn  Mn4  1  0.29560012  0.42460672  0.60826631  1
  Mn  Mn5  1  0.69077169  0.51246807  0.35688198  1
  Mn  Mn6  1  0.00218071  0.00865386  0.01758767  1
  Mn  Mn7  1  0.80569389  0.01811403  0.63892328  1
  Mn  Mn8  1  0.21049004  0.04502911  0.39373439  1
  Mn  Mn9  1  0.48573878  0.47478790  0.98458535  1
  Sb  Sb10  1  0.88050393  0.86189805  0.45324743  1
  Sb  Sb11  1  0.10823330  0.01033064  0.53727833  1
  Sb  Sb12  1  0.03591014  0.49411155  0.82582927  1
  Sb  Sb13  1  0.96245863  0.45982036  0.19713581  1
  Sb  Sb14  1  0.41455329  0.54809698  0.46415263  1
  Sb  Sb15  1  0.60557050  0.57596287  0.53457666  1
  Sb  Sb16  1  0.53086846  0.95193043  0.80312718  1
  Sb  Sb17  1  0.46475364  0.99916027  0.18106329  1
  S  S18  1  0.93833063  0.98532874  0.81511804  1
  S  S19  1  0.05249302  0.02128530  0.19405894  1
  S  S20  1  0.41384358  0.99931709  0.97576665  1
  S  S21  1  0.58354277  0.02507931  0.01420165  1
  S  S22  1  0.17595855  0.96040691  0.89250518  1
  S  S23  1  0.82190504  0.05368008  0.09916729  1
  S  S24  1  0.09872221  0.46969702  0.64634378  1
  S  S25  1  0.90451924  0.42853588  0.35530380  1
  S  S26  1  0.73346125  0.01512010  0.29910924  1
  S  S27  1  0.26529392  0.93981217  0.67701752  1
  S  S28  1  0.16544400  0.46355448  0.44739770  1
  S  S29  1  0.81698206  0.53053839  0.55194352  1
  S  S30  1  0.43420041  0.44951797  0.80567664  1
  S  S31  1  0.56317681  0.50663249  0.19387108  1
  S  S32  1  0.91450591  0.51458020  0.98660060  1
  S  S33  1  0.09390746  0.46802982  0.02041993  1
  S  S34  1  0.65391690  0.52784881  0.87981164  1
  S  S35  1  0.32809380  0.46239253  0.10127494  1
  S  S36  1  0.60329701  0.98931719  0.65038105  1
  S  S37  1  0.40187466  0.02605072  0.34114918  1
  S  S38  1  0.24087396  0.52537113  0.32334888  1
  S  S39  1  0.76435677  0.49040422  0.69998765  1
  S  S40  1  0.67622767  0.01812410  0.44870890  1
  S  S41  1  0.33618851  0.95352341  0.54940924  1
