# generated using pymatgen
data_Pr2Mn3(SbS3)4
_symmetry_space_group_name_H-M   'P 1'
_cell_length_a   20.02960800
_cell_length_b   3.90410600
_cell_length_c   14.95364829
_cell_angle_alpha   90.00000000
_cell_angle_beta   126.33350609
_cell_angle_gamma   90.00000000
_symmetry_Int_Tables_number   1
_chemical_formula_structural   Pr2Mn3(SbS3)4
_chemical_formula_sum   'Pr4 Mn6 Sb8 S24'
_cell_volume   942.00006694
_cell_formula_units_Z   2
loop_
 _symmetry_equiv_pos_site_id
 _symmetry_equiv_pos_as_xyz
  1  'x, y, z'
loop_
 _atom_site_type_symbol
 _atom_site_label
 _atom_site_symmetry_multiplicity
 _atom_site_fract_x
 _atom_site_fract_y
 _atom_site_fract_z
 _atom_site_occupancy
  Pr  Pr0  1  0.27650969  0.47703033  0.86603420  1
  Pr  Pr1  1  0.73003797  0.51501439  0.13593239  1
  Pr  Pr2  1  0.77290273  0.01775701  0.87846921  1
  Pr  Pr3  1  0.23293333  0.92104163  0.13028725  1
  Mn  Mn4  1  0.29571753  0.42514017  0.60845899  1
  Mn  Mn5  1  0.69060208  0.51300761  0.35659986  1
  Mn  Mn6  1  0.00224015  0.00836195  0.01792228  1
  Mn  Mn7  1  0.80572984  0.01861304  0.63891638  1
  Mn  Mn8  1  0.21056299  0.04554011  0.39388755  1
  Mn  Mn9  1  0.48567130  0.47440771  0.98452835  1
  Sb  Sb10  1  0.88048405  0.86165487  0.45321454  1
  Sb  Sb11  1  0.10812148  0.01001929  0.53721921  1
  Sb  Sb12  1  0.03593147  0.49411858  0.82576121  1
  Sb  Sb13  1  0.96249116  0.45956753  0.19724359  1
  Sb  Sb14  1  0.41442157  0.54838418  0.46420384  1
  Sb  Sb15  1  0.60552616  0.57571397  0.53446145  1
  Sb  Sb16  1  0.53084260  0.95213270  0.80316252  1
  Sb  Sb17  1  0.46469471  0.99923271  0.18104630  1
  S  S18  1  0.93837093  0.98555482  0.81493372  1
  S  S19  1  0.05228975  0.02271952  0.19367559  1
  S  S20  1  0.41385700  0.00038880  0.97616715  1
  S  S21  1  0.58361392  0.02480130  0.01463920  1
  S  S22  1  0.17618028  0.95899529  0.89264443  1
  S  S23  1  0.82187208  0.05458987  0.09936676  1
  S  S24  1  0.09899652  0.46960469  0.64667407  1
  S  S25  1  0.90430888  0.42670555  0.35501547  1
  S  S26  1  0.73322342  0.01591654  0.29885105  1
  S  S27  1  0.26511660  0.94141647  0.67682092  1
  S  S28  1  0.16535395  0.46270573  0.44731385  1
  S  S29  1  0.81719310  0.53100572  0.55206313  1
  S  S30  1  0.43383234  0.44896272  0.80546579  1
  S  S31  1  0.56325366  0.50647423  0.19397775  1
  S  S32  1  0.91452724  0.51570647  0.98659580  1
  S  S33  1  0.09424982  0.46837695  0.02078226  1
  S  S34  1  0.65393547  0.52682647  0.87979444  1
  S  S35  1  0.32818789  0.46344249  0.10135797  1
  S  S36  1  0.60320784  0.98880442  0.65041100  1
  S  S37  1  0.40159482  0.02607884  0.34091018  1
  S  S38  1  0.24088385  0.52530728  0.32339970  1
  S  S39  1  0.76435235  0.49056059  0.70023668  1
  S  S40  1  0.67647533  0.01579834  0.44892536  1
  S  S41  1  0.33602448  0.95334309  0.54888526  1
