# generated using pymatgen
data_Pr2Mn3(SbS3)4
_symmetry_space_group_name_H-M   'P 1'
_cell_length_a   20.02960800
_cell_length_b   3.90410600
_cell_length_c   14.95364829
_cell_angle_alpha   90.00000000
_cell_angle_beta   126.33350609
_cell_angle_gamma   90.00000000
_symmetry_Int_Tables_number   1
_chemical_formula_structural   Pr2Mn3(SbS3)4
_chemical_formula_sum   'Pr4 Mn6 Sb8 S24'
_cell_volume   942.00006694
_cell_formula_units_Z   2
loop_
 _symmetry_equiv_pos_site_id
 _symmetry_equiv_pos_as_xyz
  1  'x, y, z'
loop_
 _atom_site_type_symbol
 _atom_site_label
 _atom_site_symmetry_multiplicity
 _atom_site_fract_x
 _atom_site_fract_y
 _atom_site_fract_z
 _atom_site_occupancy
  Pr  Pr0  1  0.27658080  0.47668208  0.86614977  1
  Pr  Pr1  1  0.72992687  0.51509328  0.13582754  1
  Pr  Pr2  1  0.77288104  0.01731876  0.87840616  1
  Pr  Pr3  1  0.23288281  0.92123340  0.13016626  1
  Mn  Mn4  1  0.29574482  0.42559010  0.60854461  1
  Mn  Mn5  1  0.69049518  0.51366734  0.35641964  1
  Mn  Mn6  1  0.00222483  0.00792041  0.01829487  1
  Mn  Mn7  1  0.80582367  0.01890337  0.63893985  1
  Mn  Mn8  1  0.21059708  0.04581992  0.39406686  1
  Mn  Mn9  1  0.48567022  0.47429807  0.98454341  1
  Sb  Sb10  1  0.88048282  0.86152920  0.45321577  1
  Sb  Sb11  1  0.10800353  0.00963891  0.53717249  1
  Sb  Sb12  1  0.03590463  0.49399784  0.82574313  1
  Sb  Sb13  1  0.96255406  0.45946438  0.19741797  1
  Sb  Sb14  1  0.41436812  0.54896635  0.46430144  1
  Sb  Sb15  1  0.60547228  0.57564813  0.53432438  1
  Sb  Sb16  1  0.53083566  0.95235811  0.80321639  1
  Sb  Sb17  1  0.46455559  0.99925600  0.18101914  1
  S  S18  1  0.93836819  0.98540867  0.81460632  1
  S  S19  1  0.05210071  0.02399371  0.19334239  1
  S  S20  1  0.41375322  0.00143312  0.97640859  1
  S  S21  1  0.58360083  0.02433389  0.01496203  1
  S  S22  1  0.17627385  0.95744337  0.89257093  1
  S  S23  1  0.82201898  0.05546157  0.09968475  1
  S  S24  1  0.09925763  0.46919077  0.64700793  1
  S  S25  1  0.90402766  0.42522265  0.35473851  1
  S  S26  1  0.73289796  0.01659004  0.29851870  1
  S  S27  1  0.26490716  0.94275188  0.67650378  1
  S  S28  1  0.16509346  0.46185070  0.44703245  1
  S  S29  1  0.81738726  0.53155242  0.55213091  1
  S  S30  1  0.43358810  0.44801713  0.80522253  1
  S  S31  1  0.56323045  0.50630544  0.19402951  1
  S  S32  1  0.91450952  0.51702351  0.98657360  1
  S  S33  1  0.09455091  0.46927266  0.02113416  1
  S  S34  1  0.65388746  0.52589480  0.87968729  1
  S  S35  1  0.32825976  0.46478556  0.10134573  1
  S  S36  1  0.60320860  0.98838331  0.65049165  1
  S  S37  1  0.40133353  0.02626383  0.34079019  1
  S  S38  1  0.24089955  0.52530742  0.32337437  1
  S  S39  1  0.76434575  0.49084405  0.70053526  1
  S  S40  1  0.67660933  0.01355353  0.44915208  1
  S  S41  1  0.33587866  0.95285484  0.54840768  1
