# generated using pymatgen
data_Pr2Mn3(SbS3)4
_symmetry_space_group_name_H-M   'P 1'
_cell_length_a   20.02960800
_cell_length_b   3.90410600
_cell_length_c   14.95364829
_cell_angle_alpha   90.00000000
_cell_angle_beta   126.33350609
_cell_angle_gamma   90.00000000
_symmetry_Int_Tables_number   1
_chemical_formula_structural   Pr2Mn3(SbS3)4
_chemical_formula_sum   'Pr4 Mn6 Sb8 S24'
_cell_volume   942.00006694
_cell_formula_units_Z   2
loop_
 _symmetry_equiv_pos_site_id
 _symmetry_equiv_pos_as_xyz
  1  'x, y, z'
loop_
 _atom_site_type_symbol
 _atom_site_label
 _atom_site_symmetry_multiplicity
 _atom_site_fract_x
 _atom_site_fract_y
 _atom_site_fract_z
 _atom_site_occupancy
  Pr  Pr0  1  0.27666357  0.47649365  0.86627389  1
  Pr  Pr1  1  0.72980699  0.51517479  0.13568645  1
  Pr  Pr2  1  0.77287920  0.01696695  0.87837662  1
  Pr  Pr3  1  0.23285820  0.92142478  0.13003485  1
  Mn  Mn4  1  0.29579360  0.42606109  0.60861329  1
  Mn  Mn5  1  0.69052706  0.51471410  0.35621445  1
  Mn  Mn6  1  0.00226379  0.00754185  0.01865233  1
  Mn  Mn7  1  0.80591248  0.01872951  0.63889077  1
  Mn  Mn8  1  0.21058076  0.04591053  0.39417411  1
  Mn  Mn9  1  0.48571435  0.47433521  0.98454273  1
  Sb  Sb10  1  0.88040571  0.86151680  0.45319651  1
  Sb  Sb11  1  0.10786765  0.00925053  0.53706001  1
  Sb  Sb12  1  0.03590726  0.49354526  0.82570141  1
  Sb  Sb13  1  0.96265768  0.45939826  0.19768678  1
  Sb  Sb14  1  0.41432921  0.54982350  0.46435747  1
  Sb  Sb15  1  0.60545185  0.57562283  0.53425666  1
  Sb  Sb16  1  0.53089156  0.95274095  0.80325734  1
  Sb  Sb17  1  0.46436900  0.99956256  0.18097989  1
  S  S18  1  0.93854734  0.98523691  0.81450357  1
  S  S19  1  0.05191124  0.02513890  0.19301337  1
  S  S20  1  0.41375657  0.00242721  0.97671896  1
  S  S21  1  0.58348501  0.02395921  0.01527314  1
  S  S22  1  0.17653600  0.95580894  0.89268702  1
  S  S23  1  0.82207672  0.05617164  0.09992357  1
  S  S24  1  0.09954151  0.46852646  0.64748079  1
  S  S25  1  0.90386362  0.42413167  0.35448909  1
  S  S26  1  0.73265600  0.01691783  0.29828927  1
  S  S27  1  0.26474116  0.94396541  0.67615580  1
  S  S28  1  0.16498065  0.46114081  0.44690319  1
  S  S29  1  0.81757496  0.53210340  0.55220048  1
  S  S30  1  0.43327939  0.44692747  0.80506597  1
  S  S31  1  0.56328162  0.50654916  0.19421143  1
  S  S32  1  0.91462787  0.51894361  0.98678100  1
  S  S33  1  0.09483796  0.47017036  0.02145081  1
  S  S34  1  0.65388310  0.52507001  0.87955755  1
  S  S35  1  0.32832844  0.46553938  0.10135310  1
  S  S36  1  0.60318818  0.98744628  0.65045487  1
  S  S37  1  0.40110497  0.02671288  0.34068757  1
  S  S38  1  0.24095370  0.52545453  0.32325889  1
  S  S39  1  0.76433923  0.49114357  0.70078205  1
  S  S40  1  0.67685124  0.01122228  0.44952991  1
  S  S41  1  0.33576439  0.95220207  0.54810228  1
