# generated using pymatgen
data_Pr2Mn3(SbS3)4
_symmetry_space_group_name_H-M   'P 1'
_cell_length_a   20.02960800
_cell_length_b   3.90410600
_cell_length_c   14.95364829
_cell_angle_alpha   90.00000000
_cell_angle_beta   126.33350609
_cell_angle_gamma   90.00000000
_symmetry_Int_Tables_number   1
_chemical_formula_structural   Pr2Mn3(SbS3)4
_chemical_formula_sum   'Pr4 Mn6 Sb8 S24'
_cell_volume   942.00006694
_cell_formula_units_Z   2
loop_
 _symmetry_equiv_pos_site_id
 _symmetry_equiv_pos_as_xyz
  1  'x, y, z'
loop_
 _atom_site_type_symbol
 _atom_site_label
 _atom_site_symmetry_multiplicity
 _atom_site_fract_x
 _atom_site_fract_y
 _atom_site_fract_z
 _atom_site_occupancy
  Pr  Pr0  1  0.27674520  0.47638620  0.86645294  1
  Pr  Pr1  1  0.72968078  0.51518819  0.13554856  1
  Pr  Pr2  1  0.77281038  0.01647367  0.87832615  1
  Pr  Pr3  1  0.23288849  0.92176282  0.12993832  1
  Mn  Mn4  1  0.29585415  0.42651922  0.60872323  1
  Mn  Mn5  1  0.69051350  0.51574470  0.35593940  1
  Mn  Mn6  1  0.00224389  0.00706442  0.01896113  1
  Mn  Mn7  1  0.80596773  0.01882176  0.63887705  1
  Mn  Mn8  1  0.21042233  0.04598933  0.39416349  1
  Mn  Mn9  1  0.48572625  0.47437451  0.98456385  1
  Sb  Sb10  1  0.88038709  0.86180231  0.45319073  1
  Sb  Sb11  1  0.10774460  0.00920915  0.53696492  1
  Sb  Sb12  1  0.03591302  0.49327980  0.82560248  1
  Sb  Sb13  1  0.96271981  0.45910585  0.19788096  1
  Sb  Sb14  1  0.41429150  0.55065092  0.46441097  1
  Sb  Sb15  1  0.60541684  0.57559611  0.53413238  1
  Sb  Sb16  1  0.53093229  0.95330110  0.80328337  1
  Sb  Sb17  1  0.46415726  0.99974100  0.18094749  1
  S  S18  1  0.93867380  0.98530247  0.81444133  1
  S  S19  1  0.05190185  0.02611780  0.19278863  1
  S  S20  1  0.41391697  0.00331713  0.97700111  1
  S  S21  1  0.58338737  0.02341493  0.01567227  1
  S  S22  1  0.17669785  0.95450148  0.89259965  1
  S  S23  1  0.82202824  0.05694858  0.10011589  1
  S  S24  1  0.09981433  0.46766807  0.64790455  1
  S  S25  1  0.90377604  0.42320393  0.35426547  1
  S  S26  1  0.73243464  0.01672260  0.29803636  1
  S  S27  1  0.26460574  0.94490247  0.67576172  1
  S  S28  1  0.16495917  0.46089926  0.44679991  1
  S  S29  1  0.81772705  0.53282504  0.55221382  1
  S  S30  1  0.43307789  0.44570731  0.80500588  1
  S  S31  1  0.56327986  0.50685794  0.19433817  1
  S  S32  1  0.91479890  0.52056819  0.98716982  1
  S  S33  1  0.09516998  0.47071968  0.02190544  1
  S  S34  1  0.65392631  0.52472787  0.87943041  1
  S  S35  1  0.32854921  0.46630665  0.10149723  1
  S  S36  1  0.60319286  0.98651884  0.65031428  1
  S  S37  1  0.40093789  0.02713888  0.34077717  1
  S  S38  1  0.24104233  0.52525595  0.32311183  1
  S  S39  1  0.76418265  0.49097158  0.70090009  1
  S  S40  1  0.67717864  0.00858572  0.44999812  1
  S  S41  1  0.33564592  0.95172413  0.54771235  1
