# generated using pymatgen
data_Pr2Mn3(SbS3)4
_symmetry_space_group_name_H-M   'P 1'
_cell_length_a   20.02960800
_cell_length_b   3.90410600
_cell_length_c   14.95364829
_cell_angle_alpha   90.00000000
_cell_angle_beta   126.33350609
_cell_angle_gamma   90.00000000
_symmetry_Int_Tables_number   1
_chemical_formula_structural   Pr2Mn3(SbS3)4
_chemical_formula_sum   'Pr4 Mn6 Sb8 S24'
_cell_volume   942.00006694
_cell_formula_units_Z   2
loop_
 _symmetry_equiv_pos_site_id
 _symmetry_equiv_pos_as_xyz
  1  'x, y, z'
loop_
 _atom_site_type_symbol
 _atom_site_label
 _atom_site_symmetry_multiplicity
 _atom_site_fract_x
 _atom_site_fract_y
 _atom_site_fract_z
 _atom_site_occupancy
  Pr  Pr0  1  0.27684527  0.47635978  0.86667654  1
  Pr  Pr1  1  0.72951109  0.51521965  0.13539145  1
  Pr  Pr2  1  0.77271795  0.01620145  0.87817996  1
  Pr  Pr3  1  0.23287230  0.92205464  0.12985768  1
  Mn  Mn4  1  0.29586706  0.42676130  0.60884120  1
  Mn  Mn5  1  0.69043633  0.51670127  0.35559846  1
  Mn  Mn6  1  0.00232181  0.00682179  0.01931418  1
  Mn  Mn7  1  0.80599390  0.01882120  0.63883274  1
  Mn  Mn8  1  0.21019591  0.04605788  0.39412959  1
  Mn  Mn9  1  0.48575055  0.47464258  0.98459464  1
  Sb  Sb10  1  0.88028369  0.86213369  0.45313953  1
  Sb  Sb11  1  0.10759113  0.00892441  0.53688869  1
  Sb  Sb12  1  0.03593394  0.49312719  0.82555113  1
  Sb  Sb13  1  0.96278469  0.45882760  0.19804100  1
  Sb  Sb14  1  0.41424680  0.55145207  0.46442682  1
  Sb  Sb15  1  0.60543774  0.57561008  0.53401693  1
  Sb  Sb16  1  0.53099679  0.95382104  0.80327645  1
  Sb  Sb17  1  0.46391441  0.99995505  0.18084038  1
  S  S18  1  0.93878401  0.98542536  0.81444257  1
  S  S19  1  0.05185775  0.02669963  0.19276288  1
  S  S20  1  0.41424012  0.00462733  0.97751039  1
  S  S21  1  0.58334658  0.02277630  0.01619964  1
  S  S22  1  0.17680052  0.95293194  0.89250981  1
  S  S23  1  0.82194180  0.05795511  0.10041543  1
  S  S24  1  0.10000572  0.46634595  0.64821288  1
  S  S25  1  0.90378927  0.42228744  0.35418917  1
  S  S26  1  0.73224688  0.01605798  0.29791495  1
  S  S27  1  0.26449137  0.94591703  0.67553807  1
  S  S28  1  0.16498844  0.46080209  0.44683903  1
  S  S29  1  0.81788053  0.53367500  0.55219243  1
  S  S30  1  0.43288653  0.44449173  0.80512748  1
  S  S31  1  0.56325251  0.50717096  0.19437997  1
  S  S32  1  0.91497969  0.52226614  0.98774645  1
  S  S33  1  0.09540615  0.47136459  0.02240965  1
  S  S34  1  0.65395478  0.52461797  0.87917823  1
  S  S35  1  0.32871204  0.46752955  0.10152497  1
  S  S36  1  0.60311257  0.98593077  0.64998849  1
  S  S37  1  0.40072307  0.02736478  0.34079488  1
  S  S38  1  0.24106921  0.52458140  0.32304567  1
  S  S39  1  0.76416750  0.49112860  0.70102181  1
  S  S40  1  0.67742804  0.00637802  0.45035637  1
  S  S41  1  0.33566067  0.95152537  0.54743841  1
