# generated using pymatgen
data_Pr2Mn3(SbS3)4
_symmetry_space_group_name_H-M   'P 1'
_cell_length_a   20.02960800
_cell_length_b   3.90410600
_cell_length_c   14.95364829
_cell_angle_alpha   90.00000000
_cell_angle_beta   126.33350609
_cell_angle_gamma   90.00000000
_symmetry_Int_Tables_number   1
_chemical_formula_structural   Pr2Mn3(SbS3)4
_chemical_formula_sum   'Pr4 Mn6 Sb8 S24'
_cell_volume   942.00006694
_cell_formula_units_Z   2
loop_
 _symmetry_equiv_pos_site_id
 _symmetry_equiv_pos_as_xyz
  1  'x, y, z'
loop_
 _atom_site_type_symbol
 _atom_site_label
 _atom_site_symmetry_multiplicity
 _atom_site_fract_x
 _atom_site_fract_y
 _atom_site_fract_z
 _atom_site_occupancy
  Pr  Pr0  1  0.26523005  0.47137414  0.86614397  1
  Pr  Pr1  1  0.73586262  0.52172040  0.13653112  1
  Pr  Pr2  1  0.76508564  0.01265985  0.86501516  1
  Pr  Pr3  1  0.23869157  0.00727340  0.13861103  1
  Mn  Mn4  1  0.29413642  0.48426149  0.60199277  1
  Mn  Mn5  1  0.69146286  0.50960258  0.38039620  1
  Mn  Mn6  1  0.00996397  0.00268260  0.01592575  1
  Mn  Mn7  1  0.80430010  0.01421475  0.61400229  1
  Mn  Mn8  1  0.19730418  0.97526784  0.37891061  1
  Mn  Mn9  1  0.49477527  0.45658702  0.99004633  1
  Sb  Sb10  1  0.89036777  0.98438589  0.45072101  1
  Sb  Sb11  1  0.11194081  0.97327362  0.54856888  1
  Sb  Sb12  1  0.03884388  0.51922429  0.81789970  1
  Sb  Sb13  1  0.96638131  0.50667616  0.18693774  1
  Sb  Sb14  1  0.39627831  0.51262726  0.45549483  1
  Sb  Sb15  1  0.60627065  0.47553584  0.54755189  1
  Sb  Sb16  1  0.53473293  0.00748918  0.81047039  1
  Sb  Sb17  1  0.46021368  0.01481520  0.18145009  1
  S  S18  1  0.93265751  0.98694000  0.80196858  1
  S  S19  1  0.06707523  0.99150177  0.19035756  1
  S  S20  1  0.40874184  0.98528513  0.98202545  1
  S  S21  1  0.58880790  0.99087959  0.01706505  1
  S  S22  1  0.16921358  0.01144353  0.89693425  1
  S  S23  1  0.82397545  0.01928478  0.09619737  1
  S  S24  1  0.08969765  0.48375422  0.64329324  1
  S  S25  1  0.90875374  0.46874736  0.35495417  1
  S  S26  1  0.74068615  0.95174537  0.29939200  1
  S  S27  1  0.26223703  0.99988198  0.70931041  1
  S  S28  1  0.16491229  0.46875343  0.43885371  1
  S  S29  1  0.82912872  0.48930747  0.54814718  1
  S  S30  1  0.43252521  0.49453925  0.79433623  1
  S  S31  1  0.56196548  0.51014268  0.18272059  1
  S  S32  1  0.91328842  0.50673996  0.98835232  1
  S  S33  1  0.08539001  0.48423964  0.01738344  1
  S  S34  1  0.66663731  0.50249655  0.88894234  1
  S  S35  1  0.32744516  0.52062793  0.09182818  1
  S  S36  1  0.59647609  0.99390684  0.66066832  1
  S  S37  1  0.40575134  0.97763940  0.34845907  1
  S  S38  1  0.24547007  0.44517172  0.30971328  1
  S  S39  1  0.76824341  0.50075102  0.70538866  1
  S  S40  1  0.67003328  0.03108216  0.45250442  1
  S  S41  1  0.32278833  0.96834850  0.54399768  1
