# generated using pymatgen
data_Pr2Mn3(SbS3)4
_symmetry_space_group_name_H-M   'P 1'
_cell_length_a   20.02960800
_cell_length_b   3.90410600
_cell_length_c   14.95364829
_cell_angle_alpha   90.00000000
_cell_angle_beta   126.33350609
_cell_angle_gamma   90.00000000
_symmetry_Int_Tables_number   1
_chemical_formula_structural   Pr2Mn3(SbS3)4
_chemical_formula_sum   'Pr4 Mn6 Sb8 S24'
_cell_volume   942.00006694
_cell_formula_units_Z   2
loop_
 _symmetry_equiv_pos_site_id
 _symmetry_equiv_pos_as_xyz
  1  'x, y, z'
loop_
 _atom_site_type_symbol
 _atom_site_label
 _atom_site_symmetry_multiplicity
 _atom_site_fract_x
 _atom_site_fract_y
 _atom_site_fract_z
 _atom_site_occupancy
  Pr  Pr0  1  0.27692023  0.47654910  0.86690543  1
  Pr  Pr1  1  0.72935908  0.51521809  0.13528977  1
  Pr  Pr2  1  0.77254368  0.01591257  0.87798896  1
  Pr  Pr3  1  0.23286875  0.92236633  0.12980683  1
  Mn  Mn4  1  0.29598270  0.42732398  0.60901877  1
  Mn  Mn5  1  0.69040693  0.51759315  0.35531543  1
  Mn  Mn6  1  0.00241311  0.00706759  0.01963695  1
  Mn  Mn7  1  0.80601691  0.01897085  0.63874320  1
  Mn  Mn8  1  0.20997702  0.04603022  0.39415324  1
  Mn  Mn9  1  0.48581242  0.47484809  0.98452517  1
  Sb  Sb10  1  0.88016761  0.86265340  0.45309782  1
  Sb  Sb11  1  0.10745167  0.00861445  0.53682235  1
  Sb  Sb12  1  0.03593649  0.49286582  0.82549673  1
  Sb  Sb13  1  0.96279290  0.45853718  0.19811924  1
  Sb  Sb14  1  0.41425951  0.55236405  0.46447959  1
  Sb  Sb15  1  0.60545231  0.57559858  0.53387923  1
  Sb  Sb16  1  0.53102790  0.95427549  0.80327056  1
  Sb  Sb17  1  0.46370369  0.00037490  0.18084638  1
  S  S18  1  0.93894199  0.98605734  0.81433863  1
  S  S19  1  0.05187176  0.02744190  0.19276586  1
  S  S20  1  0.41456029  0.00584086  0.97804764  1
  S  S21  1  0.58345457  0.02187847  0.01678618  1
  S  S22  1  0.17699418  0.95166967  0.89236684  1
  S  S23  1  0.82179221  0.05878077  0.10059665  1
  S  S24  1  0.10001774  0.46453833  0.64818746  1
  S  S25  1  0.90384689  0.42165450  0.35406010  1
  S  S26  1  0.73212368  0.01563894  0.29798488  1
  S  S27  1  0.26445209  0.94707690  0.67548682  1
  S  S28  1  0.16513065  0.46119076  0.44690490  1
  S  S29  1  0.81794190  0.53427755  0.55218843  1
  S  S30  1  0.43270842  0.44351031  0.80513258  1
  S  S31  1  0.56315122  0.50777239  0.19436623  1
  S  S32  1  0.91516550  0.52419515  0.98823251  1
  S  S33  1  0.09555827  0.47202011  0.02278823  1
  S  S34  1  0.65404922  0.52428422  0.87884239  1
  S  S35  1  0.32898086  0.46837451  0.10166976  1
  S  S36  1  0.60293127  0.98521089  0.64952550  1
  S  S37  1  0.40056989  0.02735429  0.34096534  1
  S  S38  1  0.24109185  0.52412471  0.32302358  1
  S  S39  1  0.76422729  0.49130870  0.70119560  1
  S  S40  1  0.67753420  0.00456849  0.45053904  1
  S  S41  1  0.33580192  0.95161342  0.54731964  1
