# generated using pymatgen
data_Pr2Mn3(SbS3)4
_symmetry_space_group_name_H-M   'P 1'
_cell_length_a   20.02960800
_cell_length_b   3.90410600
_cell_length_c   14.95364829
_cell_angle_alpha   90.00000000
_cell_angle_beta   126.33350609
_cell_angle_gamma   90.00000000
_symmetry_Int_Tables_number   1
_chemical_formula_structural   Pr2Mn3(SbS3)4
_chemical_formula_sum   'Pr4 Mn6 Sb8 S24'
_cell_volume   942.00006694
_cell_formula_units_Z   2
loop_
 _symmetry_equiv_pos_site_id
 _symmetry_equiv_pos_as_xyz
  1  'x, y, z'
loop_
 _atom_site_type_symbol
 _atom_site_label
 _atom_site_symmetry_multiplicity
 _atom_site_fract_x
 _atom_site_fract_y
 _atom_site_fract_z
 _atom_site_occupancy
  Pr  Pr0  1  0.27700414  0.47665389  0.86713299  1
  Pr  Pr1  1  0.72916543  0.51525431  0.13517777  1
  Pr  Pr2  1  0.77241575  0.01549903  0.87785897  1
  Pr  Pr3  1  0.23290610  0.92263629  0.12981656  1
  Mn  Mn4  1  0.29616884  0.42776309  0.60924629  1
  Mn  Mn5  1  0.69047626  0.51844317  0.35510236  1
  Mn  Mn6  1  0.00258182  0.00747808  0.01990252  1
  Mn  Mn7  1  0.80598526  0.01904935  0.63869293  1
  Mn  Mn8  1  0.20971590  0.04616010  0.39416105  1
  Mn  Mn9  1  0.48590809  0.47532211  0.98446930  1
  Sb  Sb10  1  0.88002757  0.86296213  0.45305926  1
  Sb  Sb11  1  0.10729604  0.00810316  0.53683028  1
  Sb  Sb12  1  0.03590238  0.49243649  0.82546215  1
  Sb  Sb13  1  0.96278214  0.45832522  0.19821131  1
  Sb  Sb14  1  0.41433059  0.55292716  0.46462037  1
  Sb  Sb15  1  0.60549871  0.57581166  0.53373600  1
  Sb  Sb16  1  0.53109981  0.95468583  0.80334207  1
  Sb  Sb17  1  0.46354998  0.00071643  0.18088441  1
  S  S18  1  0.93903373  0.98673347  0.81423431  1
  S  S19  1  0.05198230  0.02775645  0.19294611  1
  S  S20  1  0.41475729  0.00696433  0.97851346  1
  S  S21  1  0.58360840  0.02161356  0.01717514  1
  S  S22  1  0.17730850  0.95070683  0.89239587  1
  S  S23  1  0.82164761  0.05932649  0.10086083  1
  S  S24  1  0.10002385  0.46317114  0.64810081  1
  S  S25  1  0.90400004  0.42087157  0.35407433  1
  S  S26  1  0.73209951  0.01543116  0.29810415  1
  S  S27  1  0.26461063  0.94809371  0.67556319  1
  S  S28  1  0.16534906  0.46147817  0.44699990  1
  S  S29  1  0.81795468  0.53472856  0.55221903  1
  S  S30  1  0.43263657  0.44248484  0.80521773  1
  S  S31  1  0.56310720  0.50870398  0.19427280  1
  S  S32  1  0.91550754  0.52652317  0.98876204  1
  S  S33  1  0.09569142  0.47313639  0.02323715  1
  S  S34  1  0.65411210  0.52413674  0.87854367  1
  S  S35  1  0.32922517  0.46894190  0.10188055  1
  S  S36  1  0.60279972  0.98456541  0.64907610  1
  S  S37  1  0.40060691  0.02750350  0.34127821  1
  S  S38  1  0.24116114  0.52381963  0.32306245  1
  S  S39  1  0.76405887  0.49150602  0.70115466  1
  S  S40  1  0.67758541  0.00252510  0.45063687  1
  S  S41  1  0.33590446  0.95116912  0.54709047  1
