# generated using pymatgen
data_Pr2Mn3(SbS3)4
_symmetry_space_group_name_H-M   'P 1'
_cell_length_a   20.02960800
_cell_length_b   3.90410600
_cell_length_c   14.95364829
_cell_angle_alpha   90.00000000
_cell_angle_beta   126.33350609
_cell_angle_gamma   90.00000000
_symmetry_Int_Tables_number   1
_chemical_formula_structural   Pr2Mn3(SbS3)4
_chemical_formula_sum   'Pr4 Mn6 Sb8 S24'
_cell_volume   942.00006694
_cell_formula_units_Z   2
loop_
 _symmetry_equiv_pos_site_id
 _symmetry_equiv_pos_as_xyz
  1  'x, y, z'
loop_
 _atom_site_type_symbol
 _atom_site_label
 _atom_site_symmetry_multiplicity
 _atom_site_fract_x
 _atom_site_fract_y
 _atom_site_fract_z
 _atom_site_occupancy
  Pr  Pr0  1  0.27712096  0.47697529  0.86744138  1
  Pr  Pr1  1  0.72902808  0.51537696  0.13510771  1
  Pr  Pr2  1  0.77229321  0.01508045  0.87774912  1
  Pr  Pr3  1  0.23297220  0.92298544  0.12987283  1
  Mn  Mn4  1  0.29625820  0.42820357  0.60946058  1
  Mn  Mn5  1  0.69059536  0.51905197  0.35489325  1
  Mn  Mn6  1  0.00269699  0.00796021  0.02008993  1
  Mn  Mn7  1  0.80593818  0.01887143  0.63860471  1
  Mn  Mn8  1  0.20939600  0.04600355  0.39407665  1
  Mn  Mn9  1  0.48609973  0.47544858  0.98451975  1
  Sb  Sb10  1  0.87990046  0.86320488  0.45304996  1
  Sb  Sb11  1  0.10712664  0.00734130  0.53690616  1
  Sb  Sb12  1  0.03596778  0.49231029  0.82550048  1
  Sb  Sb13  1  0.96274958  0.45826650  0.19832837  1
  Sb  Sb14  1  0.41435448  0.55336278  0.46476065  1
  Sb  Sb15  1  0.60551646  0.57599406  0.53360698  1
  Sb  Sb16  1  0.53116888  0.95491851  0.80347342  1
  Sb  Sb17  1  0.46342256  0.00116401  0.18087813  1
  S  S18  1  0.93915064  0.98732771  0.81410120  1
  S  S19  1  0.05211068  0.02823359  0.19321682  1
  S  S20  1  0.41486448  0.00777362  0.97879329  1
  S  S21  1  0.58367252  0.02132428  0.01752847  1
  S  S22  1  0.17755181  0.94973668  0.89223884  1
  S  S23  1  0.82157467  0.05933538  0.10102161  1
  S  S24  1  0.10000617  0.46152915  0.64802476  1
  S  S25  1  0.90403017  0.42023379  0.35391337  1
  S  S26  1  0.73201577  0.01506578  0.29818435  1
  S  S27  1  0.26481357  0.94894244  0.67582854  1
  S  S28  1  0.16561541  0.46142281  0.44715330  1
  S  S29  1  0.81789313  0.53517473  0.55233011  1
  S  S30  1  0.43270458  0.44176136  0.80533192  1
  S  S31  1  0.56318860  0.50954405  0.19428203  1
  S  S32  1  0.91589545  0.52851092  0.98940537  1
  S  S33  1  0.09597632  0.47450504  0.02387874  1
  S  S34  1  0.65416042  0.52394500  0.87831614  1
  S  S35  1  0.32934461  0.46909196  0.10180196  1
  S  S36  1  0.60270249  0.98386059  0.64868903  1
  S  S37  1  0.40060706  0.02753582  0.34141986  1
  S  S38  1  0.24125301  0.52356325  0.32321071  1
  S  S39  1  0.76388047  0.49196637  0.70114706  1
  S  S40  1  0.67769874  0.00050536  0.45065667  1
  S  S41  1  0.33589033  0.95025667  0.54687730  1
