# generated using pymatgen
data_Pr2Mn3(SbS3)4
_symmetry_space_group_name_H-M   'P 1'
_cell_length_a   20.02960800
_cell_length_b   3.90410600
_cell_length_c   14.95364829
_cell_angle_alpha   90.00000000
_cell_angle_beta   126.33350609
_cell_angle_gamma   90.00000000
_symmetry_Int_Tables_number   1
_chemical_formula_structural   Pr2Mn3(SbS3)4
_chemical_formula_sum   'Pr4 Mn6 Sb8 S24'
_cell_volume   942.00006694
_cell_formula_units_Z   2
loop_
 _symmetry_equiv_pos_site_id
 _symmetry_equiv_pos_as_xyz
  1  'x, y, z'
loop_
 _atom_site_type_symbol
 _atom_site_label
 _atom_site_symmetry_multiplicity
 _atom_site_fract_x
 _atom_site_fract_y
 _atom_site_fract_z
 _atom_site_occupancy
  Pr  Pr0  1  0.27723327  0.47736760  0.86774450  1
  Pr  Pr1  1  0.72888275  0.51573525  0.13497359  1
  Pr  Pr2  1  0.77212462  0.01490510  0.87763131  1
  Pr  Pr3  1  0.23299265  0.92336630  0.12988048  1
  Mn  Mn4  1  0.29625126  0.42858180  0.60953272  1
  Mn  Mn5  1  0.69056389  0.51953941  0.35456678  1
  Mn  Mn6  1  0.00274775  0.00807578  0.02020567  1
  Mn  Mn7  1  0.80587114  0.01882130  0.63851867  1
  Mn  Mn8  1  0.20912629  0.04627650  0.39406570  1
  Mn  Mn9  1  0.48624890  0.47564712  0.98454994  1
  Sb  Sb10  1  0.87973221  0.86328923  0.45301028  1
  Sb  Sb11  1  0.10703497  0.00649530  0.53697418  1
  Sb  Sb12  1  0.03595517  0.49229087  0.82546276  1
  Sb  Sb13  1  0.96276322  0.45785266  0.19848212  1
  Sb  Sb14  1  0.41435411  0.55361313  0.46486613  1
  Sb  Sb15  1  0.60550830  0.57632181  0.53348326  1
  Sb  Sb16  1  0.53120416  0.95524736  0.80356902  1
  Sb  Sb17  1  0.46336498  0.00140367  0.18088690  1
  S  S18  1  0.93927461  0.98733106  0.81405072  1
  S  S19  1  0.05227880  0.02884766  0.19350760  1
  S  S20  1  0.41501664  0.00850736  0.97909681  1
  S  S21  1  0.58362563  0.02062013  0.01773974  1
  S  S22  1  0.17775909  0.94917833  0.89207198  1
  S  S23  1  0.82142244  0.05933573  0.10107837  1
  S  S24  1  0.10000431  0.45936443  0.64800182  1
  S  S25  1  0.90412210  0.41949226  0.35369630  1
  S  S26  1  0.73208929  0.01461547  0.29833835  1
  S  S27  1  0.26508363  0.94924833  0.67617097  1
  S  S28  1  0.16578747  0.46183453  0.44724520  1
  S  S29  1  0.81772290  0.53538120  0.55228700  1
  S  S30  1  0.43282462  0.44138054  0.80553877  1
  S  S31  1  0.56323060  0.51014346  0.19425671  1
  S  S32  1  0.91621564  0.53029566  0.98990525  1
  S  S33  1  0.09615424  0.47607757  0.02461840  1
  S  S34  1  0.65420953  0.52367396  0.87815997  1
  S  S35  1  0.32954609  0.46902657  0.10177192  1
  S  S36  1  0.60261403  0.98326703  0.64830114  1
  S  S37  1  0.40052718  0.02774043  0.34144830  1
  S  S38  1  0.24125590  0.52341254  0.32320431  1
  S  S39  1  0.76369829  0.49282659  0.70109697  1
  S  S40  1  0.67788199  0.99852168  0.45079925  1
  S  S41  1  0.33592090  0.94951502  0.54677978  1
