# generated using pymatgen
data_Pr2Mn3(SbS3)4
_symmetry_space_group_name_H-M   'P 1'
_cell_length_a   20.02960800
_cell_length_b   3.90410600
_cell_length_c   14.95364829
_cell_angle_alpha   90.00000000
_cell_angle_beta   126.33350609
_cell_angle_gamma   90.00000000
_symmetry_Int_Tables_number   1
_chemical_formula_structural   Pr2Mn3(SbS3)4
_chemical_formula_sum   'Pr4 Mn6 Sb8 S24'
_cell_volume   942.00006694
_cell_formula_units_Z   2
loop_
 _symmetry_equiv_pos_site_id
 _symmetry_equiv_pos_as_xyz
  1  'x, y, z'
loop_
 _atom_site_type_symbol
 _atom_site_label
 _atom_site_symmetry_multiplicity
 _atom_site_fract_x
 _atom_site_fract_y
 _atom_site_fract_z
 _atom_site_occupancy
  Pr  Pr0  1  0.27734219  0.47785932  0.86806503  1
  Pr  Pr1  1  0.72868963  0.51599917  0.13476807  1
  Pr  Pr2  1  0.77193148  0.01448263  0.87746832  1
  Pr  Pr3  1  0.23299776  0.92361300  0.12986630  1
  Mn  Mn4  1  0.29630430  0.42885654  0.60962304  1
  Mn  Mn5  1  0.69055046  0.52003613  0.35424551  1
  Mn  Mn6  1  0.00279383  0.00847458  0.02023853  1
  Mn  Mn7  1  0.80579220  0.01889655  0.63841148  1
  Mn  Mn8  1  0.20899229  0.04651800  0.39417964  1
  Mn  Mn9  1  0.48635779  0.47591140  0.98456330  1
  Sb  Sb10  1  0.87960351  0.86320890  0.45302597  1
  Sb  Sb11  1  0.10689646  0.00576836  0.53708165  1
  Sb  Sb12  1  0.03597027  0.49245258  0.82537674  1
  Sb  Sb13  1  0.96275151  0.45720133  0.19862017  1
  Sb  Sb14  1  0.41436999  0.55375233  0.46499290  1
  Sb  Sb15  1  0.60557065  0.57667871  0.53336194  1
  Sb  Sb16  1  0.53122736  0.95546909  0.80361994  1
  Sb  Sb17  1  0.46332817  0.00156494  0.18087923  1
  S  S18  1  0.93925310  0.98712461  0.81390908  1
  S  S19  1  0.05248090  0.02878662  0.19376655  1
  S  S20  1  0.41516404  0.00927958  0.97943385  1
  S  S21  1  0.58361398  0.02031154  0.01793082  1
  S  S22  1  0.17791465  0.94921118  0.89193541  1
  S  S23  1  0.82128732  0.05948843  0.10099067  1
  S  S24  1  0.10001071  0.45737676  0.64795066  1
  S  S25  1  0.90425164  0.41902277  0.35358423  1
  S  S26  1  0.73211488  0.01422100  0.29848368  1
  S  S27  1  0.26541920  0.94993918  0.67643620  1
  S  S28  1  0.16587745  0.46244587  0.44728683  1
  S  S29  1  0.81754267  0.53523172  0.55230884  1
  S  S30  1  0.43300682  0.44153107  0.80583960  1
  S  S31  1  0.56332700  0.51102628  0.19437775  1
  S  S32  1  0.91640071  0.53179055  0.99037075  1
  S  S33  1  0.09641599  0.47767997  0.02531075  1
  S  S34  1  0.65425017  0.52393877  0.87792300  1
  S  S35  1  0.32978473  0.46888202  0.10180481  1
  S  S36  1  0.60266009  0.98295500  0.64825679  1
  S  S37  1  0.40050742  0.02777296  0.34140130  1
  S  S38  1  0.24116228  0.52348900  0.32321379  1
  S  S39  1  0.76354337  0.49320428  0.70103288  1
  S  S40  1  0.67816131  0.99651151  0.45097236  1
  S  S41  1  0.33599544  0.94906889  0.54674967  1
