# generated using pymatgen
data_Pr2Mn3(SbS3)4
_symmetry_space_group_name_H-M   'P 1'
_cell_length_a   20.02960800
_cell_length_b   3.90410600
_cell_length_c   14.95364829
_cell_angle_alpha   90.00000000
_cell_angle_beta   126.33350609
_cell_angle_gamma   90.00000000
_symmetry_Int_Tables_number   1
_chemical_formula_structural   Pr2Mn3(SbS3)4
_chemical_formula_sum   'Pr4 Mn6 Sb8 S24'
_cell_volume   942.00006694
_cell_formula_units_Z   2
loop_
 _symmetry_equiv_pos_site_id
 _symmetry_equiv_pos_as_xyz
  1  'x, y, z'
loop_
 _atom_site_type_symbol
 _atom_site_label
 _atom_site_symmetry_multiplicity
 _atom_site_fract_x
 _atom_site_fract_y
 _atom_site_fract_z
 _atom_site_occupancy
  Pr  Pr0  1  0.27747745  0.47813644  0.86841728  1
  Pr  Pr1  1  0.72849085  0.51627251  0.13462338  1
  Pr  Pr2  1  0.77180125  0.01410586  0.87730749  1
  Pr  Pr3  1  0.23294895  0.92354745  0.12975555  1
  Mn  Mn4  1  0.29637174  0.42908040  0.60968626  1
  Mn  Mn5  1  0.69053828  0.52043695  0.35402350  1
  Mn  Mn6  1  0.00281139  0.00910976  0.02025193  1
  Mn  Mn7  1  0.80580146  0.01917406  0.63846295  1
  Mn  Mn8  1  0.20887831  0.04679521  0.39430846  1
  Mn  Mn9  1  0.48643098  0.47618943  0.98458761  1
  Sb  Sb10  1  0.87949548  0.86314533  0.45306711  1
  Sb  Sb11  1  0.10678986  0.00500455  0.53717376  1
  Sb  Sb12  1  0.03599036  0.49279945  0.82526665  1
  Sb  Sb13  1  0.96271923  0.45651874  0.19871604  1
  Sb  Sb14  1  0.41440214  0.55394038  0.46514669  1
  Sb  Sb15  1  0.60556726  0.57716915  0.53320392  1
  Sb  Sb16  1  0.53126513  0.95581853  0.80365216  1
  Sb  Sb17  1  0.46330266  0.00160521  0.18091517  1
  S  S18  1  0.93923344  0.98658825  0.81374995  1
  S  S19  1  0.05258519  0.02877103  0.19388602  1
  S  S20  1  0.41527974  0.00966475  0.97973709  1
  S  S21  1  0.58358580  0.01992666  0.01795387  1
  S  S22  1  0.17812737  0.94889797  0.89188165  1
  S  S23  1  0.82120920  0.05999762  0.10096773  1
  S  S24  1  0.10016087  0.45530362  0.64804836  1
  S  S25  1  0.90438384  0.41862479  0.35345352  1
  S  S26  1  0.73215060  0.01369543  0.29872033  1
  S  S27  1  0.26570123  0.95036013  0.67670119  1
  S  S28  1  0.16598424  0.46301873  0.44717121  1
  S  S29  1  0.81743406  0.53501356  0.55230379  1
  S  S30  1  0.43325091  0.44196248  0.80614300  1
  S  S31  1  0.56349036  0.51227138  0.19454642  1
  S  S32  1  0.91654321  0.53286683  0.99071883  1
  S  S33  1  0.09659996  0.47893277  0.02587322  1
  S  S34  1  0.65428226  0.52425052  0.87777319  1
  S  S35  1  0.32990580  0.46878107  0.10179112  1
  S  S36  1  0.60264764  0.98292504  0.64816824  1
  S  S37  1  0.40048521  0.02766077  0.34136876  1
  S  S38  1  0.24113712  0.52339079  0.32336280  1
  S  S39  1  0.76340319  0.49324181  0.70078548  1
  S  S40  1  0.67834685  0.99474127  0.45121518  1
  S  S41  1  0.33621029  0.94846330  0.54682741  1
