# generated using pymatgen
data_Pr2Mn3(SbS3)4
_symmetry_space_group_name_H-M   'P 1'
_cell_length_a   20.02960800
_cell_length_b   3.90410600
_cell_length_c   14.95364829
_cell_angle_alpha   90.00000000
_cell_angle_beta   126.33350609
_cell_angle_gamma   90.00000000
_symmetry_Int_Tables_number   1
_chemical_formula_structural   Pr2Mn3(SbS3)4
_chemical_formula_sum   'Pr4 Mn6 Sb8 S24'
_cell_volume   942.00006694
_cell_formula_units_Z   2
loop_
 _symmetry_equiv_pos_site_id
 _symmetry_equiv_pos_as_xyz
  1  'x, y, z'
loop_
 _atom_site_type_symbol
 _atom_site_label
 _atom_site_symmetry_multiplicity
 _atom_site_fract_x
 _atom_site_fract_y
 _atom_site_fract_z
 _atom_site_occupancy
  Pr  Pr0  1  0.27756035  0.47859836  0.86872230  1
  Pr  Pr1  1  0.72833203  0.51679497  0.13452200  1
  Pr  Pr2  1  0.77170830  0.01380805  0.87721167  1
  Pr  Pr3  1  0.23294667  0.92348445  0.12976674  1
  Mn  Mn4  1  0.29641752  0.42951354  0.60978238  1
  Mn  Mn5  1  0.69049156  0.52094441  0.35373257  1
  Mn  Mn6  1  0.00283324  0.00985401  0.02025653  1
  Mn  Mn7  1  0.80578491  0.01954616  0.63845684  1
  Mn  Mn8  1  0.20879776  0.04759934  0.39437797  1
  Mn  Mn9  1  0.48654290  0.47669879  0.98466556  1
  Sb  Sb10  1  0.87940368  0.86288484  0.45312140  1
  Sb  Sb11  1  0.10667530  0.00412118  0.53725348  1
  Sb  Sb12  1  0.03598225  0.49311804  0.82527591  1
  Sb  Sb13  1  0.96258220  0.45598494  0.19867373  1
  Sb  Sb14  1  0.41439623  0.55440003  0.46527657  1
  Sb  Sb15  1  0.60559419  0.57752410  0.53304190  1
  Sb  Sb16  1  0.53129120  0.95611229  0.80364541  1
  Sb  Sb17  1  0.46334449  0.00142160  0.18096454  1
  S  S18  1  0.93918041  0.98610563  0.81354284  1
  S  S19  1  0.05273067  0.02879328  0.19413958  1
  S  S20  1  0.41549867  0.00965152  0.98005848  1
  S  S21  1  0.58341677  0.01900511  0.01791366  1
  S  S22  1  0.17837455  0.94873122  0.89186185  1
  S  S23  1  0.82122452  0.06094827  0.10098005  1
  S  S24  1  0.10037069  0.45287497  0.64821973  1
  S  S25  1  0.90442125  0.41811873  0.35320834  1
  S  S26  1  0.73212113  0.01353039  0.29894654  1
  S  S27  1  0.26582185  0.95136232  0.67701912  1
  S  S28  1  0.16608107  0.46343595  0.44714729  1
  S  S29  1  0.81735538  0.53467557  0.55238772  1
  S  S30  1  0.43345416  0.44272144  0.80638996  1
  S  S31  1  0.56359331  0.51283924  0.19470969  1
  S  S32  1  0.91671855  0.53411813  0.99095570  1
  S  S33  1  0.09676116  0.47992815  0.02644164  1
  S  S34  1  0.65431062  0.52419464  0.87756646  1
  S  S35  1  0.32996086  0.46887453  0.10164027  1
  S  S36  1  0.60271904  0.98220191  0.64817419  1
  S  S37  1  0.40047965  0.02769559  0.34132574  1
  S  S38  1  0.24112730  0.52319866  0.32354326  1
  S  S39  1  0.76331041  0.49324574  0.70063087  1
  S  S40  1  0.67847273  0.99294721  0.45138009  1
  S  S41  1  0.33653942  0.94829839  0.54690120  1
