# generated using pymatgen
data_Pr2Mn3(SbS3)4
_symmetry_space_group_name_H-M   'P 1'
_cell_length_a   20.02960800
_cell_length_b   3.90410600
_cell_length_c   14.95364829
_cell_angle_alpha   90.00000000
_cell_angle_beta   126.33350609
_cell_angle_gamma   90.00000000
_symmetry_Int_Tables_number   1
_chemical_formula_structural   Pr2Mn3(SbS3)4
_chemical_formula_sum   'Pr4 Mn6 Sb8 S24'
_cell_volume   942.00006694
_cell_formula_units_Z   2
loop_
 _symmetry_equiv_pos_site_id
 _symmetry_equiv_pos_as_xyz
  1  'x, y, z'
loop_
 _atom_site_type_symbol
 _atom_site_label
 _atom_site_symmetry_multiplicity
 _atom_site_fract_x
 _atom_site_fract_y
 _atom_site_fract_z
 _atom_site_occupancy
  Pr  Pr0  1  0.27761474  0.47907043  0.86894711  1
  Pr  Pr1  1  0.72815064  0.51704205  0.13435588  1
  Pr  Pr2  1  0.77166962  0.01343874  0.87720348  1
  Pr  Pr3  1  0.23297307  0.92318500  0.12982673  1
  Mn  Mn4  1  0.29642177  0.42984031  0.60989253  1
  Mn  Mn5  1  0.69046653  0.52145096  0.35344527  1
  Mn  Mn6  1  0.00281626  0.01019213  0.02022728  1
  Mn  Mn7  1  0.80581850  0.02011232  0.63854104  1
  Mn  Mn8  1  0.20874208  0.04856393  0.39449404  1
  Mn  Mn9  1  0.48661504  0.47737009  0.98474500  1
  Sb  Sb10  1  0.87929661  0.86236789  0.45310859  1
  Sb  Sb11  1  0.10654577  0.00340335  0.53726694  1
  Sb  Sb12  1  0.03597597  0.49359240  0.82525081  1
  Sb  Sb13  1  0.96244692  0.45557009  0.19857252  1
  Sb  Sb14  1  0.41442222  0.55472411  0.46543161  1
  Sb  Sb15  1  0.60552633  0.57751325  0.53277350  1
  Sb  Sb16  1  0.53126451  0.95629081  0.80361945  1
  Sb  Sb17  1  0.46338493  0.00134050  0.18101738  1
  S  S18  1  0.93927277  0.98618850  0.81357785  1
  S  S19  1  0.05293351  0.02922332  0.19441407  1
  S  S20  1  0.41559523  0.00996972  0.98031251  1
  S  S21  1  0.58326433  0.01818575  0.01794448  1
  S  S22  1  0.17860194  0.94829327  0.89187088  1
  S  S23  1  0.82118680  0.06122853  0.10090639  1
  S  S24  1  0.10057180  0.45065950  0.64840737  1
  S  S25  1  0.90445174  0.41766324  0.35285629  1
  S  S26  1  0.73201059  0.01377184  0.29918085  1
  S  S27  1  0.26603800  0.95275299  0.67739525  1
  S  S28  1  0.16622000  0.46338885  0.44715239  1
  S  S29  1  0.81719957  0.53482285  0.55236806  1
  S  S30  1  0.43363328  0.44367867  0.80653918  1
  S  S31  1  0.56369945  0.51355710  0.19491732  1
  S  S32  1  0.91684610  0.53501997  0.99113928  1
  S  S33  1  0.09694637  0.48061967  0.02714276  1
  S  S34  1  0.65436473  0.52378461  0.87744973  1
  S  S35  1  0.33000345  0.46872566  0.10155560  1
  S  S36  1  0.60270630  0.98093477  0.64801103  1
  S  S37  1  0.40045577  0.02755852  0.34128843  1
  S  S38  1  0.24115234  0.52343923  0.32380667  1
  S  S39  1  0.76327513  0.49295547  0.70049067  1
  S  S40  1  0.67854784  0.99115296  0.45153135  1
  S  S41  1  0.33687084  0.94802651  0.54707754  1
