# generated using pymatgen
data_Pr2Mn3(SbS3)4
_symmetry_space_group_name_H-M   'P 1'
_cell_length_a   20.02960800
_cell_length_b   3.90410600
_cell_length_c   14.95364829
_cell_angle_alpha   90.00000000
_cell_angle_beta   126.33350609
_cell_angle_gamma   90.00000000
_symmetry_Int_Tables_number   1
_chemical_formula_structural   Pr2Mn3(SbS3)4
_chemical_formula_sum   'Pr4 Mn6 Sb8 S24'
_cell_volume   942.00006694
_cell_formula_units_Z   2
loop_
 _symmetry_equiv_pos_site_id
 _symmetry_equiv_pos_as_xyz
  1  'x, y, z'
loop_
 _atom_site_type_symbol
 _atom_site_label
 _atom_site_symmetry_multiplicity
 _atom_site_fract_x
 _atom_site_fract_y
 _atom_site_fract_z
 _atom_site_occupancy
  Pr  Pr0  1  0.27761396  0.47958859  0.86906028  1
  Pr  Pr1  1  0.72806135  0.51729451  0.13429807  1
  Pr  Pr2  1  0.77162891  0.01302211  0.87719241  1
  Pr  Pr3  1  0.23295646  0.92309581  0.12987205  1
  Mn  Mn4  1  0.29641914  0.43033264  0.60995003  1
  Mn  Mn5  1  0.69052288  0.52192519  0.35314434  1
  Mn  Mn6  1  0.00284252  0.01029050  0.02017110  1
  Mn  Mn7  1  0.80582749  0.02071085  0.63859148  1
  Mn  Mn8  1  0.20865587  0.04933121  0.39448578  1
  Mn  Mn9  1  0.48668161  0.47806482  0.98482603  1
  Sb  Sb10  1  0.87920018  0.86212257  0.45308417  1
  Sb  Sb11  1  0.10645111  0.00271690  0.53729651  1
  Sb  Sb12  1  0.03592249  0.49382214  0.82521471  1
  Sb  Sb13  1  0.96231915  0.45514351  0.19848437  1
  Sb  Sb14  1  0.41441105  0.55505788  0.46559107  1
  Sb  Sb15  1  0.60547856  0.57753504  0.53246078  1
  Sb  Sb16  1  0.53119425  0.95621661  0.80359690  1
  Sb  Sb17  1  0.46345257  0.00140106  0.18116603  1
  S  S18  1  0.93923311  0.98562293  0.81343332  1
  S  S19  1  0.05314277  0.02947589  0.19449820  1
  S  S20  1  0.41558547  0.01005556  0.98039196  1
  S  S21  1  0.58323512  0.01795948  0.01805108  1
  S  S22  1  0.17868480  0.94760632  0.89173155  1
  S  S23  1  0.82114286  0.06131036  0.10087322  1
  S  S24  1  0.10080852  0.44950481  0.64873157  1
  S  S25  1  0.90456092  0.41698372  0.35270261  1
  S  S26  1  0.73186799  0.01373075  0.29935105  1
  S  S27  1  0.26619962  0.95372268  0.67767789  1
  S  S28  1  0.16631855  0.46346522  0.44706588  1
  S  S29  1  0.81698075  0.53488023  0.55240389  1
  S  S30  1  0.43370472  0.44441940  0.80658020  1
  S  S31  1  0.56389032  0.51445795  0.19530172  1
  S  S32  1  0.91702443  0.53454852  0.99142526  1
  S  S33  1  0.09716060  0.48144867  0.02778308  1
  S  S34  1  0.65428172  0.52301603  0.87718488  1
  S  S35  1  0.33002143  0.46907876  0.10139641  1
  S  S36  1  0.60270094  0.98007423  0.64787094  1
  S  S37  1  0.40044105  0.02751427  0.34143925  1
  S  S38  1  0.24123881  0.52366604  0.32392794  1
  S  S39  1  0.76334087  0.49219762  0.70046440  1
  S  S40  1  0.67852786  0.98963477  0.45156711  1
  S  S41  1  0.33723219  0.94767166  0.54731036  1
