# generated using pymatgen
data_Pr2Mn3(SbS3)4
_symmetry_space_group_name_H-M   'P 1'
_cell_length_a   20.02960800
_cell_length_b   3.90410600
_cell_length_c   14.95364829
_cell_angle_alpha   90.00000000
_cell_angle_beta   126.33350609
_cell_angle_gamma   90.00000000
_symmetry_Int_Tables_number   1
_chemical_formula_structural   Pr2Mn3(SbS3)4
_chemical_formula_sum   'Pr4 Mn6 Sb8 S24'
_cell_volume   942.00006694
_cell_formula_units_Z   2
loop_
 _symmetry_equiv_pos_site_id
 _symmetry_equiv_pos_as_xyz
  1  'x, y, z'
loop_
 _atom_site_type_symbol
 _atom_site_label
 _atom_site_symmetry_multiplicity
 _atom_site_fract_x
 _atom_site_fract_y
 _atom_site_fract_z
 _atom_site_occupancy
  Pr  Pr0  1  0.27765210  0.48000415  0.86912800  1
  Pr  Pr1  1  0.72796958  0.51771114  0.13418184  1
  Pr  Pr2  1  0.77162174  0.01255084  0.87714957  1
  Pr  Pr3  1  0.23292845  0.92284747  0.12995431  1
  Mn  Mn4  1  0.29630745  0.43083544  0.60988934  1
  Mn  Mn5  1  0.69054433  0.52229213  0.35288008  1
  Mn  Mn6  1  0.00280068  0.01021178  0.01998298  1
  Mn  Mn7  1  0.80586817  0.02142883  0.63873732  1
  Mn  Mn8  1  0.20853808  0.05000135  0.39442649  1
  Mn  Mn9  1  0.48677603  0.47862026  0.98497737  1
  Sb  Sb10  1  0.87911876  0.86223800  0.45306945  1
  Sb  Sb11  1  0.10636283  0.00196354  0.53726983  1
  Sb  Sb12  1  0.03590965  0.49430535  0.82518374  1
  Sb  Sb13  1  0.96223163  0.45469645  0.19849158  1
  Sb  Sb14  1  0.41438843  0.55542314  0.46577044  1
  Sb  Sb15  1  0.60543254  0.57751267  0.53216685  1
  Sb  Sb16  1  0.53112461  0.95605446  0.80351407  1
  Sb  Sb17  1  0.46343727  0.00178448  0.18128312  1
  S  S18  1  0.93930991  0.98491881  0.81344879  1
  S  S19  1  0.05338278  0.02995242  0.19453931  1
  S  S20  1  0.41551831  0.01041930  0.98045212  1
  S  S21  1  0.58323376  0.01773695  0.01817853  1
  S  S22  1  0.17866887  0.94666860  0.89142715  1
  S  S23  1  0.82119266  0.06126872  0.10106543  1
  S  S24  1  0.10101753  0.44801102  0.64903177  1
  S  S25  1  0.90467763  0.41641641  0.35248070  1
  S  S26  1  0.73159255  0.01334014  0.29942299  1
  S  S27  1  0.26630716  0.95435938  0.67779415  1
  S  S28  1  0.16643201  0.46370636  0.44705702  1
  S  S29  1  0.81673806  0.53491012  0.55240392  1
  S  S30  1  0.43379443  0.44485674  0.80660559  1
  S  S31  1  0.56388445  0.51530884  0.19555349  1
  S  S32  1  0.91722174  0.53393137  0.99172091  1
  S  S33  1  0.09723484  0.48287720  0.02819991  1
  S  S34  1  0.65423743  0.52245968  0.87694459  1
  S  S35  1  0.32999049  0.46933637  0.10122125  1
  S  S36  1  0.60269916  0.97959378  0.64780256  1
  S  S37  1  0.40039278  0.02748794  0.34156639  1
  S  S38  1  0.24132134  0.52407559  0.32414496  1
  S  S39  1  0.76337171  0.49118020  0.70038630  1
  S  S40  1  0.67843577  0.98813848  0.45148680  1
  S  S41  1  0.33746179  0.94691054  0.54746103  1
