# generated using pymatgen
data_Pr2Mn3(SbS3)4
_symmetry_space_group_name_H-M   'P 1'
_cell_length_a   20.02960800
_cell_length_b   3.90410600
_cell_length_c   14.95364829
_cell_angle_alpha   90.00000000
_cell_angle_beta   126.33350609
_cell_angle_gamma   90.00000000
_symmetry_Int_Tables_number   1
_chemical_formula_structural   Pr2Mn3(SbS3)4
_chemical_formula_sum   'Pr4 Mn6 Sb8 S24'
_cell_volume   942.00006694
_cell_formula_units_Z   2
loop_
 _symmetry_equiv_pos_site_id
 _symmetry_equiv_pos_as_xyz
  1  'x, y, z'
loop_
 _atom_site_type_symbol
 _atom_site_label
 _atom_site_symmetry_multiplicity
 _atom_site_fract_x
 _atom_site_fract_y
 _atom_site_fract_z
 _atom_site_occupancy
  Pr  Pr0  1  0.26531251  0.47226726  0.86600265  1
  Pr  Pr1  1  0.73580561  0.52113433  0.13636391  1
  Pr  Pr2  1  0.76516255  0.01258825  0.86510634  1
  Pr  Pr3  1  0.23866848  0.00734254  0.13856766  1
  Mn  Mn4  1  0.29403593  0.48344747  0.60189558  1
  Mn  Mn5  1  0.69138237  0.50873569  0.38024928  1
  Mn  Mn6  1  0.01002128  0.00304775  0.01615247  1
  Mn  Mn7  1  0.80436931  0.01454188  0.61397982  1
  Mn  Mn8  1  0.19735202  0.97532119  0.37898101  1
  Mn  Mn9  1  0.49467324  0.45707054  0.99004784  1
  Sb  Sb10  1  0.89035547  0.98409798  0.45049176  1
  Sb  Sb11  1  0.11208655  0.97383447  0.54864275  1
  Sb  Sb12  1  0.03890600  0.51902106  0.81814675  1
  Sb  Sb13  1  0.96639056  0.50634942  0.18690960  1
  Sb  Sb14  1  0.39634215  0.51240566  0.45543947  1
  Sb  Sb15  1  0.60617919  0.47563774  0.54755092  1
  Sb  Sb16  1  0.53473265  0.00763865  0.81047617  1
  Sb  Sb17  1  0.46014177  0.01483479  0.18135036  1
  S  S18  1  0.93272876  0.98638240  0.80168638  1
  S  S19  1  0.06699662  0.99184757  0.19058153  1
  S  S20  1  0.40850804  0.98490961  0.98196278  1
  S  S21  1  0.58839312  0.98984982  0.01674288  1
  S  S22  1  0.16929448  0.01294061  0.89701038  1
  S  S23  1  0.82395780  0.02031781  0.09600309  1
  S  S24  1  0.08997376  0.48384765  0.64350021  1
  S  S25  1  0.90885004  0.46874397  0.35527808  1
  S  S26  1  0.74077026  0.95098233  0.30001749  1
  S  S27  1  0.26235344  0.00018205  0.70958677  1
  S  S28  1  0.16476588  0.46833255  0.43882622  1
  S  S29  1  0.82903205  0.48933575  0.54815444  1
  S  S30  1  0.43247340  0.49397254  0.79432390  1
  S  S31  1  0.56192970  0.51028905  0.18298790  1
  S  S32  1  0.91308609  0.50593861  0.98796831  1
  S  S33  1  0.08562460  0.48347196  0.01767873  1
  S  S34  1  0.66660848  0.50297450  0.88879829  1
  S  S35  1  0.32728769  0.52156078  0.09179622  1
  S  S36  1  0.59655490  0.99305570  0.66064106  1
  S  S37  1  0.40587619  0.97816713  0.34876486  1
  S  S38  1  0.24532233  0.44514993  0.30957408  1
  S  S39  1  0.76851384  0.50135608  0.70560666  1
  S  S40  1  0.67000937  0.03058450  0.45259253  1
  S  S41  1  0.32270330  0.96878010  0.54404855  1
