# generated using pymatgen
data_Pr2Mn3(SbS3)4
_symmetry_space_group_name_H-M   'P 1'
_cell_length_a   20.02960800
_cell_length_b   3.90410600
_cell_length_c   14.95364829
_cell_angle_alpha   90.00000000
_cell_angle_beta   126.33350609
_cell_angle_gamma   90.00000000
_symmetry_Int_Tables_number   1
_chemical_formula_structural   Pr2Mn3(SbS3)4
_chemical_formula_sum   'Pr4 Mn6 Sb8 S24'
_cell_volume   942.00006694
_cell_formula_units_Z   2
loop_
 _symmetry_equiv_pos_site_id
 _symmetry_equiv_pos_as_xyz
  1  'x, y, z'
loop_
 _atom_site_type_symbol
 _atom_site_label
 _atom_site_symmetry_multiplicity
 _atom_site_fract_x
 _atom_site_fract_y
 _atom_site_fract_z
 _atom_site_occupancy
  Pr  Pr0  1  0.27769274  0.48054490  0.86919097  1
  Pr  Pr1  1  0.72789624  0.51833025  0.13402423  1
  Pr  Pr2  1  0.77156473  0.01229814  0.87709829  1
  Pr  Pr3  1  0.23290278  0.92283210  0.12998051  1
  Mn  Mn4  1  0.29629127  0.43158280  0.60997877  1
  Mn  Mn5  1  0.69052824  0.52259289  0.35262920  1
  Mn  Mn6  1  0.00276692  0.01005217  0.01976548  1
  Mn  Mn7  1  0.80583878  0.02222958  0.63872151  1
  Mn  Mn8  1  0.20832384  0.05075596  0.39434875  1
  Mn  Mn9  1  0.48681524  0.47880115  0.98507829  1
  Sb  Sb10  1  0.87908440  0.86247755  0.45303715  1
  Sb  Sb11  1  0.10633888  0.00125952  0.53735574  1
  Sb  Sb12  1  0.03591489  0.49465362  0.82514157  1
  Sb  Sb13  1  0.96222578  0.45437767  0.19857902  1
  Sb  Sb14  1  0.41431748  0.55572501  0.46585089  1
  Sb  Sb15  1  0.60529045  0.57720059  0.53181994  1
  Sb  Sb16  1  0.53105049  0.95581183  0.80346401  1
  Sb  Sb17  1  0.46339176  0.00206945  0.18138202  1
  S  S18  1  0.93944741  0.98507798  0.81346917  1
  S  S19  1  0.05360411  0.03018162  0.19443867  1
  S  S20  1  0.41558395  0.01069935  0.98068352  1
  S  S21  1  0.58317643  0.01724371  0.01818642  1
  S  S22  1  0.17851635  0.94582537  0.89109037  1
  S  S23  1  0.82120210  0.06119442  0.10116129  1
  S  S24  1  0.10141027  0.44658510  0.64950259  1
  S  S25  1  0.90473097  0.41618948  0.35227499  1
  S  S26  1  0.73132344  0.01265446  0.29948719  1
  S  S27  1  0.26636930  0.95513059  0.67775803  1
  S  S28  1  0.16658024  0.46384675  0.44727284  1
  S  S29  1  0.81641555  0.53492202  0.55228804  1
  S  S30  1  0.43381937  0.44497934  0.80658696  1
  S  S31  1  0.56388305  0.51542535  0.19581686  1
  S  S32  1  0.91744713  0.53356785  0.99209034  1
  S  S33  1  0.09727211  0.48403711  0.02853112  1
  S  S34  1  0.65432977  0.52165783  0.87679687  1
  S  S35  1  0.33001956  0.46950338  0.10113105  1
  S  S36  1  0.60265707  0.97949522  0.64756768  1
  S  S37  1  0.40042632  0.02764977  0.34168598  1
  S  S38  1  0.24149787  0.52442836  0.32443562  1
  S  S39  1  0.76348032  0.49094771  0.70060568  1
  S  S40  1  0.67839217  0.98691815  0.45152451  1
  S  S41  1  0.33766135  0.94616761  0.54744204  1
