# generated using pymatgen
data_Pr2Mn3(SbS3)4
_symmetry_space_group_name_H-M   'P 1'
_cell_length_a   20.02960800
_cell_length_b   3.90410600
_cell_length_c   14.95364829
_cell_angle_alpha   90.00000000
_cell_angle_beta   126.33350609
_cell_angle_gamma   90.00000000
_symmetry_Int_Tables_number   1
_chemical_formula_structural   Pr2Mn3(SbS3)4
_chemical_formula_sum   'Pr4 Mn6 Sb8 S24'
_cell_volume   942.00006694
_cell_formula_units_Z   2
loop_
 _symmetry_equiv_pos_site_id
 _symmetry_equiv_pos_as_xyz
  1  'x, y, z'
loop_
 _atom_site_type_symbol
 _atom_site_label
 _atom_site_symmetry_multiplicity
 _atom_site_fract_x
 _atom_site_fract_y
 _atom_site_fract_z
 _atom_site_occupancy
  Pr  Pr0  1  0.27775734  0.48096928  0.86918810  1
  Pr  Pr1  1  0.72782209  0.51888059  0.13388335  1
  Pr  Pr2  1  0.77148878  0.01211771  0.87704777  1
  Pr  Pr3  1  0.23289479  0.92300200  0.12994573  1
  Mn  Mn4  1  0.29635126  0.43234935  0.61004216  1
  Mn  Mn5  1  0.69042178  0.52287447  0.35244376  1
  Mn  Mn6  1  0.00269954  0.00998365  0.01951379  1
  Mn  Mn7  1  0.80583301  0.02328318  0.63872442  1
  Mn  Mn8  1  0.20809117  0.05139872  0.39431627  1
  Mn  Mn9  1  0.48690157  0.47902499  0.98512032  1
  Sb  Sb10  1  0.87900397  0.86280721  0.45294183  1
  Sb  Sb11  1  0.10630357  0.00065462  0.53743913  1
  Sb  Sb12  1  0.03595803  0.49486645  0.82508124  1
  Sb  Sb13  1  0.96225876  0.45418731  0.19877603  1
  Sb  Sb14  1  0.41423004  0.55624125  0.46587195  1
  Sb  Sb15  1  0.60523616  0.57669514  0.53163070  1
  Sb  Sb16  1  0.53097876  0.95546965  0.80344388  1
  Sb  Sb17  1  0.46330755  0.00229240  0.18152886  1
  S  S18  1  0.93947681  0.98529312  0.81354159  1
  S  S19  1  0.05368722  0.02999344  0.19420860  1
  S  S20  1  0.41574441  0.01043328  0.98098518  1
  S  S21  1  0.58321477  0.01690680  0.01814816  1
  S  S22  1  0.17838426  0.94511575  0.89083026  1
  S  S23  1  0.82115159  0.06102355  0.10111737  1
  S  S24  1  0.10172873  0.44476162  0.64995955  1
  S  S25  1  0.90482092  0.41659141  0.35206501  1
  S  S26  1  0.73094365  0.01203720  0.29943503  1
  S  S27  1  0.26638528  0.95590695  0.67768697  1
  S  S28  1  0.16660003  0.46446695  0.44736456  1
  S  S29  1  0.81613749  0.53493435  0.55223694  1
  S  S30  1  0.43385089  0.44583672  0.80652652  1
  S  S31  1  0.56385037  0.51525598  0.19606940  1
  S  S32  1  0.91756869  0.53286675  0.99239323  1
  S  S33  1  0.09725889  0.48487972  0.02874308  1
  S  S34  1  0.65436482  0.52104284  0.87654879  1
  S  S35  1  0.33004633  0.46913931  0.10091749  1
  S  S36  1  0.60256264  0.97965667  0.64740741  1
  S  S37  1  0.40045092  0.02790827  0.34178937  1
  S  S38  1  0.24148125  0.52482695  0.32445636  1
  S  S39  1  0.76355707  0.49060605  0.70065541  1
  S  S40  1  0.67841075  0.98588196  0.45167191  1
  S  S41  1  0.33779338  0.94581586  0.54727298  1
