# generated using pymatgen
data_Pr2Mn3(SbS3)4
_symmetry_space_group_name_H-M   'P 1'
_cell_length_a   20.02960800
_cell_length_b   3.90410600
_cell_length_c   14.95364829
_cell_angle_alpha   90.00000000
_cell_angle_beta   126.33350609
_cell_angle_gamma   90.00000000
_symmetry_Int_Tables_number   1
_chemical_formula_structural   Pr2Mn3(SbS3)4
_chemical_formula_sum   'Pr4 Mn6 Sb8 S24'
_cell_volume   942.00006694
_cell_formula_units_Z   2
loop_
 _symmetry_equiv_pos_site_id
 _symmetry_equiv_pos_as_xyz
  1  'x, y, z'
loop_
 _atom_site_type_symbol
 _atom_site_label
 _atom_site_symmetry_multiplicity
 _atom_site_fract_x
 _atom_site_fract_y
 _atom_site_fract_z
 _atom_site_occupancy
  Pr  Pr0  1  0.27778019  0.48129109  0.86914891  1
  Pr  Pr1  1  0.72772205  0.51951732  0.13369669  1
  Pr  Pr2  1  0.77139989  0.01194393  0.87695607  1
  Pr  Pr3  1  0.23291395  0.92317330  0.12993851  1
  Mn  Mn4  1  0.29628455  0.43331114  0.60997973  1
  Mn  Mn5  1  0.69033491  0.52327799  0.35215404  1
  Mn  Mn6  1  0.00260632  0.01026880  0.01925218  1
  Mn  Mn7  1  0.80580847  0.02367143  0.63875201  1
  Mn  Mn8  1  0.20799197  0.05179437  0.39436984  1
  Mn  Mn9  1  0.48695852  0.47909049  0.98509422  1
  Sb  Sb10  1  0.87897154  0.86295520  0.45284039  1
  Sb  Sb11  1  0.10627833  0.99996559  0.53749476  1
  Sb  Sb12  1  0.03592163  0.49507339  0.82498509  1
  Sb  Sb13  1  0.96225800  0.45432846  0.19895639  1
  Sb  Sb14  1  0.41414698  0.55651446  0.46595213  1
  Sb  Sb15  1  0.60518800  0.57612710  0.53142460  1
  Sb  Sb16  1  0.53091281  0.95527071  0.80338254  1
  Sb  Sb17  1  0.46323474  0.00271195  0.18165657  1
  S  S18  1  0.93941483  0.98516038  0.81358454  1
  S  S19  1  0.05378470  0.02961228  0.19397910  1
  S  S20  1  0.41594822  0.01032830  0.98142490  1
  S  S21  1  0.58319234  0.01662897  0.01800317  1
  S  S22  1  0.17847769  0.94444468  0.89079923  1
  S  S23  1  0.82099258  0.06041553  0.10093088  1
  S  S24  1  0.10201930  0.44329011  0.65037351  1
  S  S25  1  0.90492435  0.41777582  0.35199204  1
  S  S26  1  0.73058422  0.01154175  0.29942583  1
  S  S27  1  0.26641444  0.95663363  0.67763688  1
  S  S28  1  0.16672856  0.46493112  0.44760134  1
  S  S29  1  0.81581747  0.53515172  0.55213684  1
  S  S30  1  0.43394643  0.44647865  0.80652794  1
  S  S31  1  0.56385031  0.51479487  0.19625368  1
  S  S32  1  0.91761779  0.53203035  0.99268881  1
  S  S33  1  0.09725476  0.48600368  0.02896178  1
  S  S34  1  0.65450571  0.52051956  0.87653299  1
  S  S35  1  0.33009637  0.46863455  0.10076541  1
  S  S36  1  0.60244530  0.98018510  0.64727059  1
  S  S37  1  0.40039950  0.02830430  0.34202174  1
  S  S38  1  0.24154408  0.52498377  0.32457887  1
  S  S39  1  0.76351288  0.49020959  0.70049353  1
  S  S40  1  0.67842648  0.98488598  0.45179173  1
  S  S41  1  0.33782829  0.94512579  0.54711412  1
