# generated using pymatgen
data_Pr2Mn3(SbS3)4
_symmetry_space_group_name_H-M   'P 1'
_cell_length_a   20.02960800
_cell_length_b   3.90410600
_cell_length_c   14.95364829
_cell_angle_alpha   90.00000000
_cell_angle_beta   126.33350609
_cell_angle_gamma   90.00000000
_symmetry_Int_Tables_number   1
_chemical_formula_structural   Pr2Mn3(SbS3)4
_chemical_formula_sum   'Pr4 Mn6 Sb8 S24'
_cell_volume   942.00006694
_cell_formula_units_Z   2
loop_
 _symmetry_equiv_pos_site_id
 _symmetry_equiv_pos_as_xyz
  1  'x, y, z'
loop_
 _atom_site_type_symbol
 _atom_site_label
 _atom_site_symmetry_multiplicity
 _atom_site_fract_x
 _atom_site_fract_y
 _atom_site_fract_z
 _atom_site_occupancy
  Pr  Pr0  1  0.27775980  0.48142253  0.86909850  1
  Pr  Pr1  1  0.72761666  0.51992916  0.13353977  1
  Pr  Pr2  1  0.77132233  0.01182851  0.87688993  1
  Pr  Pr3  1  0.23291936  0.92346556  0.12987648  1
  Mn  Mn4  1  0.29624354  0.43397401  0.60990821  1
  Mn  Mn5  1  0.69034144  0.52342496  0.35200037  1
  Mn  Mn6  1  0.00252446  0.01081037  0.01898911  1
  Mn  Mn7  1  0.80586768  0.02366146  0.63886810  1
  Mn  Mn8  1  0.20778282  0.05193853  0.39421717  1
  Mn  Mn9  1  0.48702483  0.47899492  0.98513963  1
  Sb  Sb10  1  0.87895672  0.86310420  0.45279202  1
  Sb  Sb11  1  0.10629469  0.99939773  0.53764286  1
  Sb  Sb12  1  0.03590021  0.49526295  0.82486963  1
  Sb  Sb13  1  0.96222862  0.45443461  0.19904171  1
  Sb  Sb14  1  0.41404099  0.55695866  0.46596235  1
  Sb  Sb15  1  0.60513893  0.57578094  0.53122355  1
  Sb  Sb16  1  0.53081566  0.95511828  0.80329138  1
  Sb  Sb17  1  0.46317520  0.00308028  0.18182795  1
  S  S18  1  0.93938070  0.98522369  0.81374300  1
  S  S19  1  0.05394055  0.02961673  0.19387701  1
  S  S20  1  0.41609655  0.00994945  0.98171101  1
  S  S21  1  0.58326646  0.01625865  0.01793821  1
  S  S22  1  0.17848301  0.94392882  0.89053244  1
  S  S23  1  0.82102406  0.06029352  0.10089214  1
  S  S24  1  0.10226671  0.44193342  0.65079185  1
  S  S25  1  0.90505952  0.41890804  0.35204384  1
  S  S26  1  0.73026102  0.01128580  0.29958381  1
  S  S27  1  0.26645682  0.95742331  0.67750436  1
  S  S28  1  0.16686329  0.46574627  0.44782730  1
  S  S29  1  0.81550903  0.53539226  0.55185190  1
  S  S30  1  0.43392393  0.44705950  0.80657768  1
  S  S31  1  0.56380938  0.51363038  0.19635041  1
  S  S32  1  0.91758218  0.53147492  0.99287740  1
  S  S33  1  0.09711213  0.48675444  0.02906634  1
  S  S34  1  0.65467547  0.51942282  0.87650610  1
  S  S35  1  0.33011285  0.46781447  0.10045091  1
  S  S36  1  0.60224126  0.98093716  0.64719810  1
  S  S37  1  0.40038596  0.02847349  0.34214783  1
  S  S38  1  0.24167006  0.52535392  0.32462668  1
  S  S39  1  0.76344136  0.48939536  0.70035632  1
  S  S40  1  0.67843191  0.98413939  0.45176741  1
  S  S41  1  0.33781677  0.94451370  0.54686095  1
