# generated using pymatgen
data_Pr2Mn3(SbS3)4
_symmetry_space_group_name_H-M   'P 1'
_cell_length_a   20.02960800
_cell_length_b   3.90410600
_cell_length_c   14.95364829
_cell_angle_alpha   90.00000000
_cell_angle_beta   126.33350609
_cell_angle_gamma   90.00000000
_symmetry_Int_Tables_number   1
_chemical_formula_structural   Pr2Mn3(SbS3)4
_chemical_formula_sum   'Pr4 Mn6 Sb8 S24'
_cell_volume   942.00006694
_cell_formula_units_Z   2
loop_
 _symmetry_equiv_pos_site_id
 _symmetry_equiv_pos_as_xyz
  1  'x, y, z'
loop_
 _atom_site_type_symbol
 _atom_site_label
 _atom_site_symmetry_multiplicity
 _atom_site_fract_x
 _atom_site_fract_y
 _atom_site_fract_z
 _atom_site_occupancy
  Pr  Pr0  1  0.27772016  0.48150297  0.86906433  1
  Pr  Pr1  1  0.72758978  0.52015201  0.13341643  1
  Pr  Pr2  1  0.77128636  0.01204819  0.87680591  1
  Pr  Pr3  1  0.23292159  0.92373684  0.12979686  1
  Mn  Mn4  1  0.29615440  0.43496870  0.60981546  1
  Mn  Mn5  1  0.69039541  0.52372098  0.35185215  1
  Mn  Mn6  1  0.00247072  0.01096512  0.01879499  1
  Mn  Mn7  1  0.80598513  0.02356877  0.63896729  1
  Mn  Mn8  1  0.20762090  0.05221432  0.39396123  1
  Mn  Mn9  1  0.48713892  0.47865325  0.98509665  1
  Sb  Sb10  1  0.87900923  0.86327162  0.45277603  1
  Sb  Sb11  1  0.10620770  0.99874563  0.53770259  1
  Sb  Sb12  1  0.03584479  0.49537452  0.82471168  1
  Sb  Sb13  1  0.96218067  0.45455128  0.19914515  1
  Sb  Sb14  1  0.41390379  0.55725946  0.46591742  1
  Sb  Sb15  1  0.60505722  0.57542802  0.53106882  1
  Sb  Sb16  1  0.53076028  0.95502412  0.80313247  1
  Sb  Sb17  1  0.46312993  0.00331287  0.18203560  1
  S  S18  1  0.93932263  0.98494669  0.81362144  1
  S  S19  1  0.05412111  0.02928757  0.19378188  1
  S  S20  1  0.41626028  0.00902043  0.98196025  1
  S  S21  1  0.58330245  0.01580729  0.01779200  1
  S  S22  1  0.17851870  0.94315453  0.89023897  1
  S  S23  1  0.82114462  0.06038343  0.10095356  1
  S  S24  1  0.10247103  0.44058768  0.65120887  1
  S  S25  1  0.90510282  0.42008068  0.35206593  1
  S  S26  1  0.73003806  0.01076659  0.29982095  1
  S  S27  1  0.26643494  0.95853394  0.67744252  1
  S  S28  1  0.16715259  0.46652925  0.44827200  1
  S  S29  1  0.81533115  0.53570521  0.55167453  1
  S  S30  1  0.43397732  0.44779595  0.80657994  1
  S  S31  1  0.56387646  0.51260304  0.19651273  1
  S  S32  1  0.91758995  0.53084267  0.99308678  1
  S  S33  1  0.09690649  0.48739968  0.02896254  1
  S  S34  1  0.65485807  0.51882988  0.87664999  1
  S  S35  1  0.32997302  0.46659738  0.10008647  1
  S  S36  1  0.60208118  0.98139830  0.64713987  1
  S  S37  1  0.40049787  0.02888008  0.34244805  1
  S  S38  1  0.24167175  0.52540397  0.32463355  1
  S  S39  1  0.76338143  0.48910654  0.69997419  1
  S  S40  1  0.67841328  0.98322340  0.45167902  1
  S  S41  1  0.33776510  0.94423966  0.54659871  1
