# generated using pymatgen
data_Pr2Mn3(SbS3)4
_symmetry_space_group_name_H-M   'P 1'
_cell_length_a   20.02960800
_cell_length_b   3.90410600
_cell_length_c   14.95364829
_cell_angle_alpha   90.00000000
_cell_angle_beta   126.33350609
_cell_angle_gamma   90.00000000
_symmetry_Int_Tables_number   1
_chemical_formula_structural   Pr2Mn3(SbS3)4
_chemical_formula_sum   'Pr4 Mn6 Sb8 S24'
_cell_volume   942.00006694
_cell_formula_units_Z   2
loop_
 _symmetry_equiv_pos_site_id
 _symmetry_equiv_pos_as_xyz
  1  'x, y, z'
loop_
 _atom_site_type_symbol
 _atom_site_label
 _atom_site_symmetry_multiplicity
 _atom_site_fract_x
 _atom_site_fract_y
 _atom_site_fract_z
 _atom_site_occupancy
  Pr  Pr0  1  0.27769729  0.48146876  0.86906201  1
  Pr  Pr1  1  0.72755404  0.52040422  0.13337594  1
  Pr  Pr2  1  0.77129717  0.01202922  0.87680316  1
  Pr  Pr3  1  0.23292848  0.92414001  0.12973953  1
  Mn  Mn4  1  0.29604758  0.43576543  0.60969855  1
  Mn  Mn5  1  0.69050379  0.52372170  0.35175094  1
  Mn  Mn6  1  0.00243027  0.01179117  0.01857552  1
  Mn  Mn7  1  0.80604170  0.02319192  0.63899896  1
  Mn  Mn8  1  0.20752425  0.05257168  0.39373077  1
  Mn  Mn9  1  0.48722119  0.47786824  0.98505779  1
  Sb  Sb10  1  0.87912293  0.86342873  0.45280610  1
  Sb  Sb11  1  0.10615469  0.99799804  0.53777578  1
  Sb  Sb12  1  0.03584958  0.49550588  0.82460460  1
  Sb  Sb13  1  0.96212541  0.45488021  0.19925100  1
  Sb  Sb14  1  0.41372353  0.55748464  0.46584313  1
  Sb  Sb15  1  0.60497846  0.57525900  0.53094177  1
  Sb  Sb16  1  0.53067432  0.95474747  0.80296502  1
  Sb  Sb17  1  0.46317083  0.00356418  0.18229946  1
  S  S18  1  0.93923020  0.98494507  0.81345932  1
  S  S19  1  0.05421877  0.02879939  0.19368026  1
  S  S20  1  0.41633841  0.00808497  0.98211031  1
  S  S21  1  0.58331649  0.01524656  0.01774284  1
  S  S22  1  0.17851439  0.94248961  0.88993438  1
  S  S23  1  0.82135218  0.06092941  0.10107059  1
  S  S24  1  0.10268686  0.43904425  0.65156788  1
  S  S25  1  0.90510101  0.42144344  0.35185216  1
  S  S26  1  0.72975468  0.01022222  0.30017758  1
  S  S27  1  0.26641802  0.95985521  0.67742349  1
  S  S28  1  0.16750401  0.46773869  0.44883600  1
  S  S29  1  0.81525666  0.53565456  0.55160427  1
  S  S30  1  0.43411752  0.44808092  0.80677326  1
  S  S31  1  0.56390897  0.51115725  0.19660277  1
  S  S32  1  0.91761863  0.53025250  0.99344054  1
  S  S33  1  0.09677740  0.48814440  0.02901736  1
  S  S34  1  0.65496771  0.51783092  0.87673104  1
  S  S35  1  0.32988662  0.46542974  0.09966825  1
  S  S36  1  0.60192093  0.98197841  0.64703913  1
  S  S37  1  0.40054124  0.02931386  0.34275092  1
  S  S38  1  0.24183959  0.52563332  0.32468107  1
  S  S39  1  0.76333097  0.48894463  0.69958704  1
  S  S40  1  0.67830007  0.98261291  0.45157987  1
  S  S41  1  0.33776250  0.94410853  0.54645433  1
