# generated using pymatgen
data_Pr2Mn3(SbS3)4
_symmetry_space_group_name_H-M   'P 1'
_cell_length_a   20.02960800
_cell_length_b   3.90410600
_cell_length_c   14.95364829
_cell_angle_alpha   90.00000000
_cell_angle_beta   126.33350609
_cell_angle_gamma   90.00000000
_symmetry_Int_Tables_number   1
_chemical_formula_structural   Pr2Mn3(SbS3)4
_chemical_formula_sum   'Pr4 Mn6 Sb8 S24'
_cell_volume   942.00006694
_cell_formula_units_Z   2
loop_
 _symmetry_equiv_pos_site_id
 _symmetry_equiv_pos_as_xyz
  1  'x, y, z'
loop_
 _atom_site_type_symbol
 _atom_site_label
 _atom_site_symmetry_multiplicity
 _atom_site_fract_x
 _atom_site_fract_y
 _atom_site_fract_z
 _atom_site_occupancy
  Pr  Pr0  1  0.27771857  0.48149517  0.86912682  1
  Pr  Pr1  1  0.72752997  0.52046387  0.13338490  1
  Pr  Pr2  1  0.77131349  0.01175377  0.87684720  1
  Pr  Pr3  1  0.23291389  0.92440541  0.12966193  1
  Mn  Mn4  1  0.29594506  0.43651167  0.60951471  1
  Mn  Mn5  1  0.69050022  0.52393633  0.35165174  1
  Mn  Mn6  1  0.00243452  0.01258320  0.01837714  1
  Mn  Mn7  1  0.80614214  0.02233991  0.63911756  1
  Mn  Mn8  1  0.20738326  0.05306003  0.39344081  1
  Mn  Mn9  1  0.48732103  0.47719054  0.98500282  1
  Sb  Sb10  1  0.87914555  0.86362000  0.45283366  1
  Sb  Sb11  1  0.10611952  0.99720563  0.53788857  1
  Sb  Sb12  1  0.03588876  0.49562678  0.82456198  1
  Sb  Sb13  1  0.96209300  0.45505186  0.19932607  1
  Sb  Sb14  1  0.41346367  0.55761798  0.46575956  1
  Sb  Sb15  1  0.60483691  0.57516999  0.53071979  1
  Sb  Sb16  1  0.53058102  0.95465587  0.80289325  1
  Sb  Sb17  1  0.46320954  0.00407142  0.18257486  1
  S  S18  1  0.93911475  0.98524430  0.81329972  1
  S  S19  1  0.05431328  0.02827246  0.19364712  1
  S  S20  1  0.41638764  0.00749056  0.98208491  1
  S  S21  1  0.58324629  0.01447226  0.01769410  1
  S  S22  1  0.17855801  0.94184559  0.88976776  1
  S  S23  1  0.82138107  0.06137174  0.10100719  1
  S  S24  1  0.10286497  0.43817850  0.65175482  1
  S  S25  1  0.90511505  0.42294408  0.35171516  1
  S  S26  1  0.72942888  0.00964921  0.30051500  1
  S  S27  1  0.26643974  0.96050898  0.67741199  1
  S  S28  1  0.16783097  0.46892033  0.44939441  1
  S  S29  1  0.81521903  0.53492036  0.55165090  1
  S  S30  1  0.43420475  0.44821140  0.80697336  1
  S  S31  1  0.56384866  0.50927186  0.19660109  1
  S  S32  1  0.91770019  0.52982209  0.99389518  1
  S  S33  1  0.09660639  0.48877790  0.02909439  1
  S  S34  1  0.65501489  0.51685643  0.87683809  1
  S  S35  1  0.32980094  0.46391414  0.09944134  1
  S  S36  1  0.60166632  0.98238574  0.64684476  1
  S  S37  1  0.40060477  0.03027624  0.34304101  1
  S  S38  1  0.24192294  0.52569919  0.32470052  1
  S  S39  1  0.76313364  0.48866413  0.69913214  1
  S  S40  1  0.67815712  0.98240217  0.45156435  1
  S  S41  1  0.33764390  0.94376944  0.54614742  1
