# generated using pymatgen
data_Pr2Mn3(SbS3)4
_symmetry_space_group_name_H-M   'P 1'
_cell_length_a   20.02960800
_cell_length_b   3.90410600
_cell_length_c   14.95364829
_cell_angle_alpha   90.00000000
_cell_angle_beta   126.33350609
_cell_angle_gamma   90.00000000
_symmetry_Int_Tables_number   1
_chemical_formula_structural   Pr2Mn3(SbS3)4
_chemical_formula_sum   'Pr4 Mn6 Sb8 S24'
_cell_volume   942.00006694
_cell_formula_units_Z   2
loop_
 _symmetry_equiv_pos_site_id
 _symmetry_equiv_pos_as_xyz
  1  'x, y, z'
loop_
 _atom_site_type_symbol
 _atom_site_label
 _atom_site_symmetry_multiplicity
 _atom_site_fract_x
 _atom_site_fract_y
 _atom_site_fract_z
 _atom_site_occupancy
  Pr  Pr0  1  0.27769963  0.48161955  0.86911513  1
  Pr  Pr1  1  0.72754419  0.52043743  0.13344334  1
  Pr  Pr2  1  0.77136782  0.01143417  0.87690559  1
  Pr  Pr3  1  0.23289884  0.92471107  0.12960847  1
  Mn  Mn4  1  0.29578652  0.43745763  0.60937264  1
  Mn  Mn5  1  0.69042798  0.52439991  0.35152765  1
  Mn  Mn6  1  0.00238794  0.01339150  0.01817144  1
  Mn  Mn7  1  0.80625821  0.02158877  0.63922948  1
  Mn  Mn8  1  0.20727284  0.05352724  0.39316799  1
  Mn  Mn9  1  0.48746929  0.47653163  0.98501327  1
  Sb  Sb10  1  0.87917062  0.86379985  0.45274674  1
  Sb  Sb11  1  0.10606449  0.99673890  0.53797791  1
  Sb  Sb12  1  0.03589961  0.49593582  0.82445665  1
  Sb  Sb13  1  0.96209535  0.45528125  0.19942968  1
  Sb  Sb14  1  0.41325592  0.55774452  0.46579355  1
  Sb  Sb15  1  0.60468728  0.57489798  0.53046565  1
  Sb  Sb16  1  0.53045064  0.95441697  0.80279435  1
  Sb  Sb17  1  0.46330365  0.00450710  0.18291580  1
  S  S18  1  0.93902506  0.98557695  0.81320149  1
  S  S19  1  0.05445287  0.02749773  0.19369962  1
  S  S20  1  0.41639497  0.00729399  0.98214545  1
  S  S21  1  0.58316207  0.01375291  0.01776092  1
  S  S22  1  0.17857992  0.94101000  0.88956889  1
  S  S23  1  0.82128380  0.06137664  0.10085881  1
  S  S24  1  0.10297773  0.43761755  0.65195279  1
  S  S25  1  0.90512284  0.42442898  0.35168764  1
  S  S26  1  0.72913273  0.00895469  0.30083358  1
  S  S27  1  0.26636550  0.96095583  0.67748157  1
  S  S28  1  0.16815956  0.47051604  0.44984484  1
  S  S29  1  0.81521302  0.53445047  0.55178021  1
  S  S30  1  0.43429418  0.44815912  0.80718715  1
  S  S31  1  0.56375335  0.50806737  0.19659571  1
  S  S32  1  0.91769465  0.52976265  0.99418341  1
  S  S33  1  0.09658549  0.48956143  0.02930811  1
  S  S34  1  0.65508753  0.51554247  0.87713910  1
  S  S35  1  0.32969253  0.46247424  0.09915604  1
  S  S36  1  0.60132212  0.98252045  0.64659628  1
  S  S37  1  0.40065988  0.03109323  0.34324462  1
  S  S38  1  0.24194558  0.52560037  0.32450564  1
  S  S39  1  0.76300660  0.48889688  0.69882727  1
  S  S40  1  0.67806824  0.98174802  0.45159184  1
  S  S41  1  0.33742878  0.94347551  0.54579839  1
