# generated using pymatgen
data_Pr2Mn3(SbS3)4
_symmetry_space_group_name_H-M   'P 1'
_cell_length_a   20.02960800
_cell_length_b   3.90410600
_cell_length_c   14.95364829
_cell_angle_alpha   90.00000000
_cell_angle_beta   126.33350609
_cell_angle_gamma   90.00000000
_symmetry_Int_Tables_number   1
_chemical_formula_structural   Pr2Mn3(SbS3)4
_chemical_formula_sum   'Pr4 Mn6 Sb8 S24'
_cell_volume   942.00006694
_cell_formula_units_Z   2
loop_
 _symmetry_equiv_pos_site_id
 _symmetry_equiv_pos_as_xyz
  1  'x, y, z'
loop_
 _atom_site_type_symbol
 _atom_site_label
 _atom_site_symmetry_multiplicity
 _atom_site_fract_x
 _atom_site_fract_y
 _atom_site_fract_z
 _atom_site_occupancy
  Pr  Pr0  1  0.27769674  0.48175292  0.86912677  1
  Pr  Pr1  1  0.72761062  0.52027275  0.13355801  1
  Pr  Pr2  1  0.77141285  0.01106290  0.87700172  1
  Pr  Pr3  1  0.23288584  0.92482166  0.12960507  1
  Mn  Mn4  1  0.29563998  0.43823646  0.60927598  1
  Mn  Mn5  1  0.69034003  0.52476560  0.35142058  1
  Mn  Mn6  1  0.00239031  0.01377716  0.01796769  1
  Mn  Mn7  1  0.80642970  0.02093165  0.63942980  1
  Mn  Mn8  1  0.20711164  0.05366149  0.39278813  1
  Mn  Mn9  1  0.48763776  0.47601550  0.98508994  1
  Sb  Sb10  1  0.87923409  0.86408038  0.45272843  1
  Sb  Sb11  1  0.10604768  0.99627191  0.53812311  1
  Sb  Sb12  1  0.03598226  0.49618958  0.82438410  1
  Sb  Sb13  1  0.96208200  0.45532954  0.19949536  1
  Sb  Sb14  1  0.41309818  0.55756535  0.46580756  1
  Sb  Sb15  1  0.60457006  0.57454427  0.53025648  1
  Sb  Sb16  1  0.53035866  0.95436179  0.80272181  1
  Sb  Sb17  1  0.46343036  0.00492602  0.18328833  1
  S  S18  1  0.93898440  0.98571318  0.81303249  1
  S  S19  1  0.05457518  0.02690447  0.19371749  1
  S  S20  1  0.41634147  0.00684556  0.98228563  1
  S  S21  1  0.58295913  0.01294455  0.01785156  1
  S  S22  1  0.17862695  0.94009446  0.88959898  1
  S  S23  1  0.82129719  0.06069134  0.10063946  1
  S  S24  1  0.10321092  0.43677516  0.65223415  1
  S  S25  1  0.90513039  0.42556965  0.35180627  1
  S  S26  1  0.72886463  0.00890268  0.30111207  1
  S  S27  1  0.26632949  0.96188521  0.67742463  1
  S  S28  1  0.16849229  0.47160786  0.45031737  1
  S  S29  1  0.81522666  0.53469056  0.55183150  1
  S  S30  1  0.43438095  0.44781208  0.80740940  1
  S  S31  1  0.56380535  0.50720321  0.19668965  1
  S  S32  1  0.91762864  0.52988816  0.99448899  1
  S  S33  1  0.09669213  0.49021231  0.02954229  1
  S  S34  1  0.65509397  0.51438912  0.87728263  1
  S  S35  1  0.32954155  0.46164145  0.09881820  1
  S  S36  1  0.60096658  0.98273424  0.64638764  1
  S  S37  1  0.40081712  0.03161363  0.34338789  1
  S  S38  1  0.24195379  0.52524794  0.32431776  1
  S  S39  1  0.76288765  0.48854531  0.69847690  1
  S  S40  1  0.67793499  0.98087266  0.45160502  1
  S  S41  1  0.33731261  0.94367082  0.54557112  1
