# generated using pymatgen
data_Pr2Mn3(SbS3)4
_symmetry_space_group_name_H-M   'P 1'
_cell_length_a   20.02960800
_cell_length_b   3.90410600
_cell_length_c   14.95364829
_cell_angle_alpha   90.00000000
_cell_angle_beta   126.33350609
_cell_angle_gamma   90.00000000
_symmetry_Int_Tables_number   1
_chemical_formula_structural   Pr2Mn3(SbS3)4
_chemical_formula_sum   'Pr4 Mn6 Sb8 S24'
_cell_volume   942.00006694
_cell_formula_units_Z   2
loop_
 _symmetry_equiv_pos_site_id
 _symmetry_equiv_pos_as_xyz
  1  'x, y, z'
loop_
 _atom_site_type_symbol
 _atom_site_label
 _atom_site_symmetry_multiplicity
 _atom_site_fract_x
 _atom_site_fract_y
 _atom_site_fract_z
 _atom_site_occupancy
  Pr  Pr0  1  0.27770333  0.48216214  0.86909200  1
  Pr  Pr1  1  0.72767907  0.52014613  0.13359963  1
  Pr  Pr2  1  0.77147039  0.01053606  0.87709404  1
  Pr  Pr3  1  0.23287151  0.92476850  0.12959781  1
  Mn  Mn4  1  0.29554447  0.43905375  0.60929449  1
  Mn  Mn5  1  0.69030775  0.52496579  0.35139230  1
  Mn  Mn6  1  0.00232674  0.01398544  0.01776350  1
  Mn  Mn7  1  0.80657507  0.02027598  0.63964947  1
  Mn  Mn8  1  0.20699867  0.05402205  0.39246614  1
  Mn  Mn9  1  0.48783967  0.47541708  0.98525069  1
  Sb  Sb10  1  0.87931121  0.86442629  0.45274465  1
  Sb  Sb11  1  0.10606034  0.99603301  0.53826458  1
  Sb  Sb12  1  0.03602635  0.49639148  0.82430637  1
  Sb  Sb13  1  0.96206344  0.45527922  0.19952560  1
  Sb  Sb14  1  0.41293317  0.55745482  0.46579643  1
  Sb  Sb15  1  0.60445656  0.57418729  0.53003774  1
  Sb  Sb16  1  0.53025800  0.95441149  0.80259239  1
  Sb  Sb17  1  0.46348416  0.00552743  0.18356112  1
  S  S18  1  0.93897731  0.98661336  0.81299068  1
  S  S19  1  0.05470303  0.02622432  0.19392514  1
  S  S20  1  0.41635126  0.00658437  0.98248633  1
  S  S21  1  0.58288838  0.01175337  0.01816382  1
  S  S22  1  0.17854299  0.93855711  0.88968323  1
  S  S23  1  0.82129395  0.06001962  0.10043198  1
  S  S24  1  0.10348389  0.43622193  0.65256766  1
  S  S25  1  0.90504004  0.42648599  0.35172400  1
  S  S26  1  0.72856147  0.00916813  0.30133396  1
  S  S27  1  0.26635322  0.96257040  0.67735860  1
  S  S28  1  0.16861259  0.47269843  0.45059723  1
  S  S29  1  0.81519608  0.53476379  0.55181668  1
  S  S30  1  0.43451405  0.44759740  0.80769889  1
  S  S31  1  0.56393549  0.50657006  0.19685325  1
  S  S32  1  0.91748214  0.52995373  0.99483233  1
  S  S33  1  0.09671230  0.49101204  0.02970959  1
  S  S34  1  0.65508829  0.51377085  0.87759914  1
  S  S35  1  0.32936136  0.46108112  0.09838447  1
  S  S36  1  0.60060512  0.98249896  0.64621100  1
  S  S37  1  0.40104211  0.03233818  0.34347351  1
  S  S38  1  0.24201116  0.52499042  0.32416129  1
  S  S39  1  0.76268230  0.48862083  0.69807866  1
  S  S40  1  0.67781652  0.97950306  0.45156061  1
  S  S41  1  0.33716545  0.94354163  0.54534941  1
