# generated using pymatgen
data_Pr2Mn3(SbS3)4
_symmetry_space_group_name_H-M   'P 1'
_cell_length_a   20.02960800
_cell_length_b   3.90410600
_cell_length_c   14.95364829
_cell_angle_alpha   90.00000000
_cell_angle_beta   126.33350609
_cell_angle_gamma   90.00000000
_symmetry_Int_Tables_number   1
_chemical_formula_structural   Pr2Mn3(SbS3)4
_chemical_formula_sum   'Pr4 Mn6 Sb8 S24'
_cell_volume   942.00006694
_cell_formula_units_Z   2
loop_
 _symmetry_equiv_pos_site_id
 _symmetry_equiv_pos_as_xyz
  1  'x, y, z'
loop_
 _atom_site_type_symbol
 _atom_site_label
 _atom_site_symmetry_multiplicity
 _atom_site_fract_x
 _atom_site_fract_y
 _atom_site_fract_z
 _atom_site_occupancy
  Pr  Pr0  1  0.26536734  0.47320397  0.86576878  1
  Pr  Pr1  1  0.73572935  0.52033928  0.13618452  1
  Pr  Pr2  1  0.76524799  0.01266079  0.86519814  1
  Pr  Pr3  1  0.23860975  0.00740084  0.13848616  1
  Mn  Mn4  1  0.29390983  0.48260179  0.60180470  1
  Mn  Mn5  1  0.69126786  0.50812136  0.38017472  1
  Mn  Mn6  1  0.01005047  0.00299677  0.01628089  1
  Mn  Mn7  1  0.80440851  0.01483851  0.61389993  1
  Mn  Mn8  1  0.19744512  0.97548533  0.37904086  1
  Mn  Mn9  1  0.49464281  0.45762455  0.99014298  1
  Sb  Sb10  1  0.89039095  0.98373026  0.45038685  1
  Sb  Sb11  1  0.11221859  0.97444145  0.54873031  1
  Sb  Sb12  1  0.03897365  0.51874058  0.81836941  1
  Sb  Sb13  1  0.96633525  0.50630631  0.18687180  1
  Sb  Sb14  1  0.39636882  0.51242247  0.45534341  1
  Sb  Sb15  1  0.60609589  0.47569859  0.54748485  1
  Sb  Sb16  1  0.53472522  0.00768210  0.81043884  1
  Sb  Sb17  1  0.46005793  0.01490646  0.18118817  1
  S  S18  1  0.93283411  0.98644563  0.80138076  1
  S  S19  1  0.06690779  0.99190543  0.19078194  1
  S  S20  1  0.40843995  0.98444402  0.98207098  1
  S  S21  1  0.58805476  0.98886380  0.01631362  1
  S  S22  1  0.16931335  0.01393478  0.89702593  1
  S  S23  1  0.82410428  0.02171269  0.09594781  1
  S  S24  1  0.09022315  0.48361508  0.64373603  1
  S  S25  1  0.90898639  0.46883696  0.35568618  1
  S  S26  1  0.74069919  0.95031237  0.30042839  1
  S  S27  1  0.26253236  0.00067422  0.70985314  1
  S  S28  1  0.16470339  0.46803136  0.43879782  1
  S  S29  1  0.82901879  0.48938628  0.54824197  1
  S  S30  1  0.43247093  0.49368186  0.79438373  1
  S  S31  1  0.56190997  0.51000028  0.18330918  1
  S  S32  1  0.91304092  0.50511261  0.98790223  1
  S  S33  1  0.08587300  0.48237886  0.01803643  1
  S  S34  1  0.66645649  0.50335151  0.88859141  1
  S  S35  1  0.32723501  0.52267836  0.09188172  1
  S  S36  1  0.59669241  0.99195889  0.66064910  1
  S  S37  1  0.40597895  0.97843695  0.34905056  1
  S  S38  1  0.24511373  0.44491200  0.30941657  1
  S  S39  1  0.76880401  0.50169170  0.70593820  1
  S  S40  1  0.67011955  0.03030506  0.45288088  1
  S  S41  1  0.32254727  0.96888251  0.54408086  1
