# generated using pymatgen
data_Pr2Mn3(SbS3)4
_symmetry_space_group_name_H-M   'P 1'
_cell_length_a   20.02960800
_cell_length_b   3.90410600
_cell_length_c   14.95364829
_cell_angle_alpha   90.00000000
_cell_angle_beta   126.33350609
_cell_angle_gamma   90.00000000
_symmetry_Int_Tables_number   1
_chemical_formula_structural   Pr2Mn3(SbS3)4
_chemical_formula_sum   'Pr4 Mn6 Sb8 S24'
_cell_volume   942.00006694
_cell_formula_units_Z   2
loop_
 _symmetry_equiv_pos_site_id
 _symmetry_equiv_pos_as_xyz
  1  'x, y, z'
loop_
 _atom_site_type_symbol
 _atom_site_label
 _atom_site_symmetry_multiplicity
 _atom_site_fract_x
 _atom_site_fract_y
 _atom_site_fract_z
 _atom_site_occupancy
  Pr  Pr0  1  0.27768074  0.48263378  0.86905725  1
  Pr  Pr1  1  0.72782148  0.52010457  0.13370924  1
  Pr  Pr2  1  0.77150424  0.00996929  0.87721483  1
  Pr  Pr3  1  0.23284457  0.92462434  0.12959903  1
  Mn  Mn4  1  0.29551932  0.43992199  0.60941710  1
  Mn  Mn5  1  0.69026154  0.52503975  0.35137900  1
  Mn  Mn6  1  0.00230874  0.01442576  0.01756699  1
  Mn  Mn7  1  0.80667899  0.01958950  0.63981292  1
  Mn  Mn8  1  0.20692387  0.05424616  0.39224318  1
  Mn  Mn9  1  0.48804769  0.47487552  0.98544008  1
  Sb  Sb10  1  0.87936946  0.86466990  0.45269128  1
  Sb  Sb11  1  0.10602628  0.99569133  0.53840530  1
  Sb  Sb12  1  0.03610705  0.49649541  0.82424559  1
  Sb  Sb13  1  0.96205456  0.45535185  0.19954150  1
  Sb  Sb14  1  0.41282355  0.55731055  0.46582132  1
  Sb  Sb15  1  0.60438447  0.57398002  0.52987602  1
  Sb  Sb16  1  0.53017909  0.95462178  0.80252533  1
  Sb  Sb17  1  0.46351453  0.00614106  0.18381119  1
  S  S18  1  0.93890537  0.98726969  0.81279307  1
  S  S19  1  0.05495561  0.02577227  0.19435601  1
  S  S20  1  0.41631061  0.00617553  0.98249818  1
  S  S21  1  0.58290198  0.01032358  0.01843689  1
  S  S22  1  0.17851518  0.93773805  0.88985472  1
  S  S23  1  0.82136737  0.05936185  0.10045002  1
  S  S24  1  0.10385191  0.43531262  0.65297512  1
  S  S25  1  0.90489756  0.42727730  0.35162330  1
  S  S26  1  0.72820403  0.01015854  0.30138790  1
  S  S27  1  0.26641574  0.96361375  0.67751305  1
  S  S28  1  0.16869988  0.47381717  0.45090880  1
  S  S29  1  0.81518510  0.53453631  0.55178407  1
  S  S30  1  0.43469896  0.44722384  0.80802845  1
  S  S31  1  0.56418468  0.50584047  0.19709732  1
  S  S32  1  0.91730472  0.52986531  0.99508664  1
  S  S33  1  0.09663710  0.49210341  0.02973526  1
  S  S34  1  0.65507462  0.51299319  0.87773662  1
  S  S35  1  0.32919593  0.46050451  0.09808210  1
  S  S36  1  0.60035518  0.98295565  0.64606652  1
  S  S37  1  0.40128342  0.03309323  0.34360538  1
  S  S38  1  0.24208383  0.52445341  0.32406789  1
  S  S39  1  0.76248193  0.48894478  0.69764242  1
  S  S40  1  0.67771990  0.97829947  0.45151775  1
  S  S41  1  0.33710085  0.94366245  0.54525689  1
