# generated using pymatgen
data_Pr2Mn3(SbS3)4
_symmetry_space_group_name_H-M   'P 1'
_cell_length_a   20.02960800
_cell_length_b   3.90410600
_cell_length_c   14.95364829
_cell_angle_alpha   90.00000000
_cell_angle_beta   126.33350609
_cell_angle_gamma   90.00000000
_symmetry_Int_Tables_number   1
_chemical_formula_structural   Pr2Mn3(SbS3)4
_chemical_formula_sum   'Pr4 Mn6 Sb8 S24'
_cell_volume   942.00006694
_cell_formula_units_Z   2
loop_
 _symmetry_equiv_pos_site_id
 _symmetry_equiv_pos_as_xyz
  1  'x, y, z'
loop_
 _atom_site_type_symbol
 _atom_site_label
 _atom_site_symmetry_multiplicity
 _atom_site_fract_x
 _atom_site_fract_y
 _atom_site_fract_z
 _atom_site_occupancy
  Pr  Pr0  1  0.27769382  0.48300606  0.86902272  1
  Pr  Pr1  1  0.72800684  0.52013761  0.13389889  1
  Pr  Pr2  1  0.77156832  0.00948050  0.87741212  1
  Pr  Pr3  1  0.23284568  0.92447144  0.12961184  1
  Mn  Mn4  1  0.29554970  0.44035375  0.60960163  1
  Mn  Mn5  1  0.69022995  0.52525800  0.35152368  1
  Mn  Mn6  1  0.00235168  0.01506793  0.01743797  1
  Mn  Mn7  1  0.80680236  0.01903334  0.63999578  1
  Mn  Mn8  1  0.20683988  0.05464581  0.39198496  1
  Mn  Mn9  1  0.48826822  0.47480189  0.98569772  1
  Sb  Sb10  1  0.87940264  0.86506727  0.45254259  1
  Sb  Sb11  1  0.10595621  0.99496073  0.53851013  1
  Sb  Sb12  1  0.03615452  0.49617511  0.82412693  1
  Sb  Sb13  1  0.96203003  0.45558696  0.19953808  1
  Sb  Sb14  1  0.41271722  0.55738111  0.46585537  1
  Sb  Sb15  1  0.60435359  0.57359584  0.52974812  1
  Sb  Sb16  1  0.53008163  0.95465428  0.80245805  1
  Sb  Sb17  1  0.46354716  0.00668261  0.18404798  1
  S  S18  1  0.93869398  0.98802193  0.81247804  1
  S  S19  1  0.05524388  0.02550574  0.19464128  1
  S  S20  1  0.41626144  0.00591149  0.98238711  1
  S  S21  1  0.58286511  0.00922803  0.01868385  1
  S  S22  1  0.17851221  0.93714248  0.89007693  1
  S  S23  1  0.82132071  0.05845724  0.10033342  1
  S  S24  1  0.10401193  0.43448466  0.65302705  1
  S  S25  1  0.90472113  0.42826901  0.35137600  1
  S  S26  1  0.72787780  0.01160892  0.30140672  1
  S  S27  1  0.26650354  0.96460254  0.67761980  1
  S  S28  1  0.16870667  0.47481378  0.45105733  1
  S  S29  1  0.81526594  0.53447135  0.55173585  1
  S  S30  1  0.43493261  0.44751131  0.80830909  1
  S  S31  1  0.56438238  0.50537438  0.19736085  1
  S  S32  1  0.91721114  0.53021873  0.99542733  1
  S  S33  1  0.09650110  0.49297030  0.02977616  1
  S  S34  1  0.65514706  0.51283256  0.87802653  1
  S  S35  1  0.32911461  0.45989898  0.09801402  1
  S  S36  1  0.60005261  0.98354739  0.64595992  1
  S  S37  1  0.40152887  0.03306350  0.34382008  1
  S  S38  1  0.24218483  0.52360358  0.32394704  1
  S  S39  1  0.76218913  0.48953061  0.69722431  1
  S  S40  1  0.67762890  0.97741788  0.45136918  1
  S  S41  1  0.33699012  0.94425866  0.54518457  1
