# generated using pymatgen
data_Pr2Mn3(SbS3)4
_symmetry_space_group_name_H-M   'P 1'
_cell_length_a   20.02960800
_cell_length_b   3.90410600
_cell_length_c   14.95364829
_cell_angle_alpha   90.00000000
_cell_angle_beta   126.33350609
_cell_angle_gamma   90.00000000
_symmetry_Int_Tables_number   1
_chemical_formula_structural   Pr2Mn3(SbS3)4
_chemical_formula_sum   'Pr4 Mn6 Sb8 S24'
_cell_volume   942.00006694
_cell_formula_units_Z   2
loop_
 _symmetry_equiv_pos_site_id
 _symmetry_equiv_pos_as_xyz
  1  'x, y, z'
loop_
 _atom_site_type_symbol
 _atom_site_label
 _atom_site_symmetry_multiplicity
 _atom_site_fract_x
 _atom_site_fract_y
 _atom_site_fract_z
 _atom_site_occupancy
  Pr  Pr0  1  0.27769825  0.48331469  0.86904108  1
  Pr  Pr1  1  0.72820288  0.52004817  0.13416971  1
  Pr  Pr2  1  0.77164552  0.00909761  0.87763931  1
  Pr  Pr3  1  0.23288675  0.92440641  0.12962458  1
  Mn  Mn4  1  0.29554485  0.44066940  0.60972341  1
  Mn  Mn5  1  0.69017832  0.52528810  0.35162187  1
  Mn  Mn6  1  0.00243156  0.01538279  0.01731574  1
  Mn  Mn7  1  0.80692067  0.01863951  0.64012699  1
  Mn  Mn8  1  0.20669967  0.05494433  0.39168206  1
  Mn  Mn9  1  0.48844084  0.47488492  0.98590571  1
  Sb  Sb10  1  0.87947983  0.86538572  0.45258136  1
  Sb  Sb11  1  0.10593712  0.99432264  0.53863523  1
  Sb  Sb12  1  0.03622921  0.49571647  0.82410597  1
  Sb  Sb13  1  0.96198370  0.45564634  0.19953460  1
  Sb  Sb14  1  0.41256354  0.55726128  0.46583230  1
  Sb  Sb15  1  0.60430374  0.57339454  0.52966370  1
  Sb  Sb16  1  0.52992857  0.95471552  0.80234756  1
  Sb  Sb17  1  0.46355675  0.00718007  0.18422158  1
  S  S18  1  0.93846556  0.98856470  0.81215882  1
  S  S19  1  0.05547610  0.02493005  0.19494306  1
  S  S20  1  0.41631929  0.00609152  0.98237876  1
  S  S21  1  0.58279702  0.00811668  0.01871300  1
  S  S22  1  0.17843086  0.93653683  0.89012826  1
  S  S23  1  0.82122878  0.05802265  0.10017855  1
  S  S24  1  0.10417143  0.43362202  0.65315586  1
  S  S25  1  0.90452205  0.42961409  0.35126103  1
  S  S26  1  0.72757297  0.01372634  0.30151144  1
  S  S27  1  0.26655204  0.96507143  0.67763776  1
  S  S28  1  0.16870273  0.47597195  0.45119297  1
  S  S29  1  0.81544454  0.53420381  0.55175281  1
  S  S30  1  0.43523761  0.44813795  0.80861776  1
  S  S31  1  0.56462934  0.50530694  0.19761272  1
  S  S32  1  0.91707424  0.53017288  0.99563266  1
  S  S33  1  0.09636421  0.49359276  0.02985600  1
  S  S34  1  0.65512527  0.51249283  0.87827668  1
  S  S35  1  0.32911113  0.45931602  0.09810248  1
  S  S36  1  0.59971572  0.98398493  0.64572856  1
  S  S37  1  0.40189556  0.03348503  0.34410496  1
  S  S38  1  0.24221187  0.52285762  0.32378313  1
  S  S39  1  0.76172691  0.49024735  0.69679657  1
  S  S40  1  0.67760003  0.97578971  0.45114926  1
  S  S41  1  0.33701885  0.94482029  0.54511472  1
