# generated using pymatgen
data_Pr2Mn3(SbS3)4
_symmetry_space_group_name_H-M   'P 1'
_cell_length_a   20.02960800
_cell_length_b   3.90410600
_cell_length_c   14.95364829
_cell_angle_alpha   90.00000000
_cell_angle_beta   126.33350609
_cell_angle_gamma   90.00000000
_symmetry_Int_Tables_number   1
_chemical_formula_structural   Pr2Mn3(SbS3)4
_chemical_formula_sum   'Pr4 Mn6 Sb8 S24'
_cell_volume   942.00006694
_cell_formula_units_Z   2
loop_
 _symmetry_equiv_pos_site_id
 _symmetry_equiv_pos_as_xyz
  1  'x, y, z'
loop_
 _atom_site_type_symbol
 _atom_site_label
 _atom_site_symmetry_multiplicity
 _atom_site_fract_x
 _atom_site_fract_y
 _atom_site_fract_z
 _atom_site_occupancy
  Pr  Pr0  1  0.27766857  0.48384408  0.86901166  1
  Pr  Pr1  1  0.72840543  0.52006563  0.13446502  1
  Pr  Pr2  1  0.77174818  0.00869507  0.87787166  1
  Pr  Pr3  1  0.23293181  0.92429527  0.12962741  1
  Mn  Mn4  1  0.29543090  0.44097132  0.60974145  1
  Mn  Mn5  1  0.69019759  0.52576013  0.35192073  1
  Mn  Mn6  1  0.00253589  0.01530392  0.01711342  1
  Mn  Mn7  1  0.80703649  0.01809963  0.64025605  1
  Mn  Mn8  1  0.20652689  0.05526008  0.39136843  1
  Mn  Mn9  1  0.48860348  0.47464528  0.98618337  1
  Sb  Sb10  1  0.87959808  0.86581769  0.45263426  1
  Sb  Sb11  1  0.10596459  0.99363787  0.53878857  1
  Sb  Sb12  1  0.03627415  0.49542500  0.82405990  1
  Sb  Sb13  1  0.96188174  0.45587213  0.19946859  1
  Sb  Sb14  1  0.41241922  0.55709074  0.46579900  1
  Sb  Sb15  1  0.60427665  0.57311348  0.52960286  1
  Sb  Sb16  1  0.52978847  0.95457282  0.80222747  1
  Sb  Sb17  1  0.46359443  0.00775055  0.18444266  1
  S  S18  1  0.93828568  0.98899524  0.81171591  1
  S  S19  1  0.05576124  0.02469782  0.19543603  1
  S  S20  1  0.41634342  0.00623688  0.98228983  1
  S  S21  1  0.58273897  0.00695396  0.01871875  1
  S  S22  1  0.17829667  0.93592043  0.89016872  1
  S  S23  1  0.82113923  0.05765818  0.10017255  1
  S  S24  1  0.10433899  0.43303719  0.65314138  1
  S  S25  1  0.90437847  0.43083820  0.35126706  1
  S  S26  1  0.72733065  0.01567258  0.30170065  1
  S  S27  1  0.26667645  0.96556070  0.67783295  1
  S  S28  1  0.16865522  0.47716968  0.45114939  1
  S  S29  1  0.81566106  0.53342638  0.55182258  1
  S  S30  1  0.43541694  0.44856883  0.80881465  1
  S  S31  1  0.56487534  0.50511464  0.19772811  1
  S  S32  1  0.91704710  0.53024140  0.99590838  1
  S  S33  1  0.09612898  0.49417181  0.02966170  1
  S  S34  1  0.65502620  0.51236959  0.87847515  1
  S  S35  1  0.32909176  0.45880167  0.09819278  1
  S  S36  1  0.59948612  0.98435360  0.64561100  1
  S  S37  1  0.40227784  0.03345237  0.34441961  1
  S  S38  1  0.24232929  0.52259027  0.32370620  1
  S  S39  1  0.76126530  0.49084261  0.69638712  1
  S  S40  1  0.67764638  0.97447537  0.45109992  1
  S  S41  1  0.33697175  0.94504399  0.54511639  1
