# generated using pymatgen
data_Pr2Mn3(SbS3)4
_symmetry_space_group_name_H-M   'P 1'
_cell_length_a   20.02960800
_cell_length_b   3.90410600
_cell_length_c   14.95364829
_cell_angle_alpha   90.00000000
_cell_angle_beta   126.33350609
_cell_angle_gamma   90.00000000
_symmetry_Int_Tables_number   1
_chemical_formula_structural   Pr2Mn3(SbS3)4
_chemical_formula_sum   'Pr4 Mn6 Sb8 S24'
_cell_volume   942.00006694
_cell_formula_units_Z   2
loop_
 _symmetry_equiv_pos_site_id
 _symmetry_equiv_pos_as_xyz
  1  'x, y, z'
loop_
 _atom_site_type_symbol
 _atom_site_label
 _atom_site_symmetry_multiplicity
 _atom_site_fract_x
 _atom_site_fract_y
 _atom_site_fract_z
 _atom_site_occupancy
  Pr  Pr0  1  0.27765324  0.48446004  0.86903949  1
  Pr  Pr1  1  0.72859449  0.51994228  0.13473776  1
  Pr  Pr2  1  0.77184596  0.00859983  0.87812084  1
  Pr  Pr3  1  0.23298773  0.92395663  0.12957789  1
  Mn  Mn4  1  0.29530677  0.44114678  0.60970422  1
  Mn  Mn5  1  0.69026864  0.52620531  0.35219450  1
  Mn  Mn6  1  0.00256457  0.01523406  0.01697301  1
  Mn  Mn7  1  0.80716747  0.01744387  0.64035635  1
  Mn  Mn8  1  0.20652226  0.05570256  0.39111140  1
  Mn  Mn9  1  0.48873274  0.47442378  0.98642442  1
  Sb  Sb10  1  0.87971503  0.86615166  0.45269577  1
  Sb  Sb11  1  0.10608894  0.99310770  0.53900956  1
  Sb  Sb12  1  0.03636135  0.49531439  0.82401247  1
  Sb  Sb13  1  0.96170450  0.45575458  0.19932484  1
  Sb  Sb14  1  0.41226503  0.55696410  0.46568264  1
  Sb  Sb15  1  0.60418525  0.57315175  0.52949550  1
  Sb  Sb16  1  0.52972920  0.95432245  0.80219738  1
  Sb  Sb17  1  0.46367475  0.00807020  0.18472165  1
  S  S18  1  0.93817070  0.98963688  0.81148209  1
  S  S19  1  0.05591545  0.02456213  0.19583382  1
  S  S20  1  0.41632481  0.00691452  0.98208919  1
  S  S21  1  0.58262535  0.00545574  0.01865047  1
  S  S22  1  0.17811473  0.93476066  0.89024190  1
  S  S23  1  0.82107739  0.05696166  0.10017185  1
  S  S24  1  0.10450714  0.43301256  0.65319054  1
  S  S25  1  0.90441782  0.43147583  0.35148766  1
  S  S26  1  0.72708486  0.01717796  0.30175039  1
  S  S27  1  0.26689303  0.96577462  0.67822622  1
  S  S28  1  0.16866081  0.47791297  0.45116424  1
  S  S29  1  0.81585659  0.53246501  0.55191888  1
  S  S30  1  0.43557496  0.44935447  0.80892961  1
  S  S31  1  0.56502404  0.50461210  0.19777054  1
  S  S32  1  0.91694893  0.53036705  0.99608233  1
  S  S33  1  0.09589906  0.49455338  0.02950630  1
  S  S34  1  0.65500327  0.51216303  0.87861562  1
  S  S35  1  0.32893344  0.45861900  0.09811253  1
  S  S36  1  0.59948596  0.98463325  0.64575262  1
  S  S37  1  0.40248644  0.03285843  0.34455302  1
  S  S38  1  0.24238754  0.52255814  0.32359338  1
  S  S39  1  0.76076485  0.49115748  0.69604049  1
  S  S40  1  0.67757220  0.97327814  0.45096285  1
  S  S41  1  0.33697874  0.94519506  0.54519478  1
