# generated using pymatgen
data_Pr2Mn3(SbS3)4
_symmetry_space_group_name_H-M   'P 1'
_cell_length_a   20.02960800
_cell_length_b   3.90410600
_cell_length_c   14.95364829
_cell_angle_alpha   90.00000000
_cell_angle_beta   126.33350609
_cell_angle_gamma   90.00000000
_symmetry_Int_Tables_number   1
_chemical_formula_structural   Pr2Mn3(SbS3)4
_chemical_formula_sum   'Pr4 Mn6 Sb8 S24'
_cell_volume   942.00006694
_cell_formula_units_Z   2
loop_
 _symmetry_equiv_pos_site_id
 _symmetry_equiv_pos_as_xyz
  1  'x, y, z'
loop_
 _atom_site_type_symbol
 _atom_site_label
 _atom_site_symmetry_multiplicity
 _atom_site_fract_x
 _atom_site_fract_y
 _atom_site_fract_z
 _atom_site_occupancy
  Pr  Pr0  1  0.27765618  0.48476088  0.86909570  1
  Pr  Pr1  1  0.72877588  0.51961225  0.13495197  1
  Pr  Pr2  1  0.77197653  0.00841335  0.87842206  1
  Pr  Pr3  1  0.23298531  0.92382080  0.12946460  1
  Mn  Mn4  1  0.29522127  0.44129507  0.60980813  1
  Mn  Mn5  1  0.69038177  0.52653135  0.35245843  1
  Mn  Mn6  1  0.00266291  0.01512453  0.01684668  1
  Mn  Mn7  1  0.80717594  0.01673576  0.64040504  1
  Mn  Mn8  1  0.20663572  0.05597096  0.39095596  1
  Mn  Mn9  1  0.48896140  0.47396859  0.98675082  1
  Sb  Sb10  1  0.87981653  0.86627707  0.45276855  1
  Sb  Sb11  1  0.10612748  0.99283600  0.53921640  1
  Sb  Sb12  1  0.03644902  0.49500049  0.82394176  1
  Sb  Sb13  1  0.96150181  0.45565799  0.19918323  1
  Sb  Sb14  1  0.41214890  0.55698470  0.46556432  1
  Sb  Sb15  1  0.60409611  0.57353571  0.52931489  1
  Sb  Sb16  1  0.52969411  0.95376281  0.80219363  1
  Sb  Sb17  1  0.46375129  0.00823846  0.18501392  1
  S  S18  1  0.93810068  0.99050591  0.81120116  1
  S  S19  1  0.05608236  0.02425950  0.19620122  1
  S  S20  1  0.41638897  0.00741119  0.98191929  1
  S  S21  1  0.58249183  0.00375604  0.01871603  1
  S  S22  1  0.17802448  0.93368553  0.89041035  1
  S  S23  1  0.82099330  0.05646420  0.10008326  1
  S  S24  1  0.10474546  0.43263413  0.65328984  1
  S  S25  1  0.90440108  0.43175511  0.35176727  1
  S  S26  1  0.72686914  0.01905025  0.30176517  1
  S  S27  1  0.26706313  0.96616704  0.67860891  1
  S  S28  1  0.16868092  0.47868534  0.45118025  1
  S  S29  1  0.81600576  0.53172543  0.55188640  1
  S  S30  1  0.43576448  0.45024840  0.80907814  1
  S  S31  1  0.56517170  0.50404887  0.19783486  1
  S  S32  1  0.91680860  0.53044229  0.99627217  1
  S  S33  1  0.09570532  0.49465563  0.02936630  1
  S  S34  1  0.65491786  0.51172561  0.87863023  1
  S  S35  1  0.32885643  0.45806563  0.09816953  1
  S  S36  1  0.59955435  0.98447441  0.64600532  1
  S  S37  1  0.40254278  0.03273229  0.34454705  1
  S  S38  1  0.24248260  0.52170776  0.32354773  1
  S  S39  1  0.76031170  0.49161724  0.69574392  1
  S  S40  1  0.67751134  0.97180014  0.45063260  1
  S  S41  1  0.33701542  0.94561466  0.54532826  1
