# generated using pymatgen
data_Pr2Mn3(SbS3)4
_symmetry_space_group_name_H-M   'P 1'
_cell_length_a   20.02960800
_cell_length_b   3.90410600
_cell_length_c   14.95364829
_cell_angle_alpha   90.00000000
_cell_angle_beta   126.33350609
_cell_angle_gamma   90.00000000
_symmetry_Int_Tables_number   1
_chemical_formula_structural   Pr2Mn3(SbS3)4
_chemical_formula_sum   'Pr4 Mn6 Sb8 S24'
_cell_volume   942.00006694
_cell_formula_units_Z   2
loop_
 _symmetry_equiv_pos_site_id
 _symmetry_equiv_pos_as_xyz
  1  'x, y, z'
loop_
 _atom_site_type_symbol
 _atom_site_label
 _atom_site_symmetry_multiplicity
 _atom_site_fract_x
 _atom_site_fract_y
 _atom_site_fract_z
 _atom_site_occupancy
  Pr  Pr0  1  0.27758627  0.48501603  0.86910137  1
  Pr  Pr1  1  0.72891753  0.51950600  0.13517197  1
  Pr  Pr2  1  0.77216457  0.00857569  0.87871906  1
  Pr  Pr3  1  0.23297086  0.92375089  0.12933618  1
  Mn  Mn4  1  0.29524260  0.44160120  0.60995314  1
  Mn  Mn5  1  0.69058633  0.52690366  0.35275656  1
  Mn  Mn6  1  0.00270160  0.01453884  0.01672304  1
  Mn  Mn7  1  0.80716893  0.01608312  0.64054737  1
  Mn  Mn8  1  0.20670480  0.05604593  0.39082260  1
  Mn  Mn9  1  0.48912530  0.47388088  0.98705368  1
  Sb  Sb10  1  0.87983995  0.86655496  0.45281764  1
  Sb  Sb11  1  0.10615349  0.99257591  0.53938151  1
  Sb  Sb12  1  0.03654671  0.49479316  0.82391558  1
  Sb  Sb13  1  0.96133719  0.45548750  0.19908687  1
  Sb  Sb14  1  0.41201089  0.55737084  0.46548123  1
  Sb  Sb15  1  0.60405993  0.57399317  0.52926025  1
  Sb  Sb16  1  0.52967074  0.95335190  0.80215289  1
  Sb  Sb17  1  0.46376812  0.00847289  0.18526477  1
  S  S18  1  0.93814471  0.99117407  0.81108190  1
  S  S19  1  0.05608400  0.02440893  0.19634747  1
  S  S20  1  0.41640266  0.00831654  0.98173972  1
  S  S21  1  0.58232584  0.00255783  0.01854297  1
  S  S22  1  0.17787814  0.93364705  0.89052780  1
  S  S23  1  0.82084538  0.05533366  0.09995629  1
  S  S24  1  0.10497108  0.43260833  0.65336799  1
  S  S25  1  0.90443925  0.43193662  0.35213584  1
  S  S26  1  0.72672279  0.02126030  0.30195421  1
  S  S27  1  0.26736484  0.96654891  0.67903649  1
  S  S28  1  0.16866221  0.47947456  0.45127967  1
  S  S29  1  0.81616576  0.53137771  0.55179886  1
  S  S30  1  0.43595990  0.45047525  0.80924818  1
  S  S31  1  0.56531548  0.50325822  0.19785474  1
  S  S32  1  0.91668515  0.53087189  0.99636936  1
  S  S33  1  0.09552780  0.49464023  0.02925577  1
  S  S34  1  0.65485449  0.51137228  0.87859817  1
  S  S35  1  0.32884223  0.45764912  0.09824724  1
  S  S36  1  0.59954227  0.98469499  0.64610967  1
  S  S37  1  0.40269627  0.03245652  0.34454399  1
  S  S38  1  0.24266309  0.52047703  0.32350578  1
  S  S39  1  0.75986928  0.49193133  0.69555614  1
  S  S40  1  0.67741294  0.97042110  0.45039503  1
  S  S41  1  0.33697876  0.94609477  0.54541103  1
