# generated using pymatgen
data_Pr2Mn3(SbS3)4
_symmetry_space_group_name_H-M   'P 1'
_cell_length_a   20.02960800
_cell_length_b   3.90410600
_cell_length_c   14.95364829
_cell_angle_alpha   90.00000000
_cell_angle_beta   126.33350609
_cell_angle_gamma   90.00000000
_symmetry_Int_Tables_number   1
_chemical_formula_structural   Pr2Mn3(SbS3)4
_chemical_formula_sum   'Pr4 Mn6 Sb8 S24'
_cell_volume   942.00006694
_cell_formula_units_Z   2
loop_
 _symmetry_equiv_pos_site_id
 _symmetry_equiv_pos_as_xyz
  1  'x, y, z'
loop_
 _atom_site_type_symbol
 _atom_site_label
 _atom_site_symmetry_multiplicity
 _atom_site_fract_x
 _atom_site_fract_y
 _atom_site_fract_z
 _atom_site_occupancy
  Pr  Pr0  1  0.27750841  0.48502273  0.86908590  1
  Pr  Pr1  1  0.72908739  0.51937196  0.13534604  1
  Pr  Pr2  1  0.77232996  0.00871723  0.87902065  1
  Pr  Pr3  1  0.23297535  0.92375889  0.12925951  1
  Mn  Mn4  1  0.29532197  0.44191396  0.61011987  1
  Mn  Mn5  1  0.69078003  0.52740242  0.35291485  1
  Mn  Mn6  1  0.00273959  0.01377289  0.01655623  1
  Mn  Mn7  1  0.80716460  0.01569103  0.64066754  1
  Mn  Mn8  1  0.20679467  0.05649130  0.39083768  1
  Mn  Mn9  1  0.48932593  0.47349745  0.98748939  1
  Sb  Sb10  1  0.87984697  0.86667797  0.45286482  1
  Sb  Sb11  1  0.10620575  0.99226843  0.53955735  1
  Sb  Sb12  1  0.03663145  0.49472612  0.82391223  1
  Sb  Sb13  1  0.96121622  0.45541024  0.19905541  1
  Sb  Sb14  1  0.41180668  0.55793930  0.46532916  1
  Sb  Sb15  1  0.60403227  0.57434287  0.52924502  1
  Sb  Sb16  1  0.52966063  0.95295223  0.80208852  1
  Sb  Sb17  1  0.46375818  0.00878894  0.18552516  1
  S  S18  1  0.93837304  0.99182995  0.81113701  1
  S  S19  1  0.05616195  0.02482525  0.19648774  1
  S  S20  1  0.41642385  0.00920082  0.98159595  1
  S  S21  1  0.58223477  0.00188504  0.01849003  1
  S  S22  1  0.17782129  0.93334318  0.89070170  1
  S  S23  1  0.82073955  0.05415475  0.09992709  1
  S  S24  1  0.10518493  0.43273764  0.65343130  1
  S  S25  1  0.90440194  0.43212435  0.35236807  1
  S  S26  1  0.72654495  0.02403747  0.30201441  1
  S  S27  1  0.26775206  0.96715668  0.67957450  1
  S  S28  1  0.16864093  0.48069767  0.45140651  1
  S  S29  1  0.81631511  0.53093462  0.55167261  1
  S  S30  1  0.43609967  0.45090334  0.80927637  1
  S  S31  1  0.56539138  0.50258384  0.19777771  1
  S  S32  1  0.91654829  0.53173788  0.99643063  1
  S  S33  1  0.09531604  0.49454850  0.02901147  1
  S  S34  1  0.65470042  0.51077697  0.87842685  1
  S  S35  1  0.32872691  0.45702929  0.09817158  1
  S  S36  1  0.59956515  0.98472444  0.64627718  1
  S  S37  1  0.40290767  0.03276806  0.34456090  1
  S  S38  1  0.24277282  0.51970516  0.32337635  1
  S  S39  1  0.75943761  0.49253982  0.69544467  1
  S  S40  1  0.67733739  0.96919695  0.45030130  1
  S  S41  1  0.33684743  0.94704367  0.54546336  1
