# generated using pymatgen
data_Pr2Mn3(SbS3)4
_symmetry_space_group_name_H-M   'P 1'
_cell_length_a   20.02960800
_cell_length_b   3.90410600
_cell_length_c   14.95364829
_cell_angle_alpha   90.00000000
_cell_angle_beta   126.33350609
_cell_angle_gamma   90.00000000
_symmetry_Int_Tables_number   1
_chemical_formula_structural   Pr2Mn3(SbS3)4
_chemical_formula_sum   'Pr4 Mn6 Sb8 S24'
_cell_volume   942.00006694
_cell_formula_units_Z   2
loop_
 _symmetry_equiv_pos_site_id
 _symmetry_equiv_pos_as_xyz
  1  'x, y, z'
loop_
 _atom_site_type_symbol
 _atom_site_label
 _atom_site_symmetry_multiplicity
 _atom_site_fract_x
 _atom_site_fract_y
 _atom_site_fract_z
 _atom_site_occupancy
  Pr  Pr0  1  0.27740996  0.48514071  0.86895979  1
  Pr  Pr1  1  0.72919477  0.51922093  0.13547720  1
  Pr  Pr2  1  0.77249079  0.00871984  0.87934090  1
  Pr  Pr3  1  0.23295489  0.92377046  0.12919430  1
  Mn  Mn4  1  0.29539368  0.44227805  0.61017750  1
  Mn  Mn5  1  0.69100017  0.52749779  0.35299836  1
  Mn  Mn6  1  0.00281467  0.01291235  0.01640031  1
  Mn  Mn7  1  0.80708058  0.01562560  0.64068878  1
  Mn  Mn8  1  0.20674846  0.05695964  0.39076667  1
  Mn  Mn9  1  0.48955509  0.47344026  0.98785955  1
  Sb  Sb10  1  0.87987610  0.86669197  0.45295239  1
  Sb  Sb11  1  0.10630070  0.99211172  0.53975203  1
  Sb  Sb12  1  0.03673805  0.49489843  0.82390725  1
  Sb  Sb13  1  0.96112832  0.45549298  0.19907801  1
  Sb  Sb14  1  0.41160502  0.55840016  0.46522852  1
  Sb  Sb15  1  0.60396548  0.57461822  0.52915956  1
  Sb  Sb16  1  0.52965484  0.95261247  0.80205455  1
  Sb  Sb17  1  0.46372597  0.00918672  0.18575339  1
  S  S18  1  0.93861974  0.99229697  0.81114032  1
  S  S19  1  0.05624720  0.02535020  0.19641059  1
  S  S20  1  0.41646116  0.00971353  0.98145201  1
  S  S21  1  0.58230904  0.00068166  0.01853939  1
  S  S22  1  0.17769896  0.93267279  0.89094156  1
  S  S23  1  0.82064301  0.05283849  0.09987360  1
  S  S24  1  0.10550952  0.43286179  0.65352643  1
  S  S25  1  0.90427664  0.43263411  0.35245651  1
  S  S26  1  0.72639426  0.02653934  0.30219200  1
  S  S27  1  0.26805269  0.96834058  0.68010198  1
  S  S28  1  0.16883895  0.48189113  0.45175581  1
  S  S29  1  0.81644587  0.53040135  0.55160877  1
  S  S30  1  0.43628429  0.45161724  0.80946704  1
  S  S31  1  0.56551745  0.50163961  0.19770447  1
  S  S32  1  0.91641889  0.53288852  0.99641354  1
  S  S33  1  0.09518736  0.49444112  0.02887009  1
  S  S34  1  0.65455077  0.51015698  0.87834496  1
  S  S35  1  0.32853826  0.45654290  0.09807084  1
  S  S36  1  0.59969628  0.98468591  0.64655603  1
  S  S37  1  0.40307239  0.03272576  0.34464273  1
  S  S38  1  0.24296624  0.51920757  0.32338152  1
  S  S39  1  0.75894245  0.49338525  0.69518983  1
  S  S40  1  0.67730417  0.96788563  0.45038843  1
  S  S41  1  0.33673342  0.94808964  0.54557152  1
