# generated using pymatgen
data_Pr2Mn3(SbS3)4
_symmetry_space_group_name_H-M   'P 1'
_cell_length_a   20.02960800
_cell_length_b   3.90410600
_cell_length_c   14.95364829
_cell_angle_alpha   90.00000000
_cell_angle_beta   126.33350609
_cell_angle_gamma   90.00000000
_symmetry_Int_Tables_number   1
_chemical_formula_structural   Pr2Mn3(SbS3)4
_chemical_formula_sum   'Pr4 Mn6 Sb8 S24'
_cell_volume   942.00006694
_cell_formula_units_Z   2
loop_
 _symmetry_equiv_pos_site_id
 _symmetry_equiv_pos_as_xyz
  1  'x, y, z'
loop_
 _atom_site_type_symbol
 _atom_site_label
 _atom_site_symmetry_multiplicity
 _atom_site_fract_x
 _atom_site_fract_y
 _atom_site_fract_z
 _atom_site_occupancy
  Pr  Pr0  1  0.27731455  0.48502108  0.86883056  1
  Pr  Pr1  1  0.72925926  0.51896450  0.13557924  1
  Pr  Pr2  1  0.77266302  0.00877437  0.87961401  1
  Pr  Pr3  1  0.23293469  0.92386811  0.12910239  1
  Mn  Mn4  1  0.29545884  0.44236157  0.61035814  1
  Mn  Mn5  1  0.69133508  0.52735197  0.35316385  1
  Mn  Mn6  1  0.00284603  0.01176378  0.01625276  1
  Mn  Mn7  1  0.80700952  0.01569476  0.64072166  1
  Mn  Mn8  1  0.20685214  0.05740844  0.39077916  1
  Mn  Mn9  1  0.48978027  0.47352188  0.98817010  1
  Sb  Sb10  1  0.87990293  0.86657757  0.45303925  1
  Sb  Sb11  1  0.10636909  0.99197789  0.53996225  1
  Sb  Sb12  1  0.03681410  0.49518064  0.82388836  1
  Sb  Sb13  1  0.96113616  0.45559735  0.19913898  1
  Sb  Sb14  1  0.41134001  0.55901222  0.46510510  1
  Sb  Sb15  1  0.60396485  0.57485112  0.52917917  1
  Sb  Sb16  1  0.52959009  0.95249293  0.80199365  1
  Sb  Sb17  1  0.46369017  0.00930252  0.18597268  1
  S  S18  1  0.93880633  0.99283705  0.81102570  1
  S  S19  1  0.05629281  0.02609954  0.19640106  1
  S  S20  1  0.41651059  0.01067047  0.98130712  1
  S  S21  1  0.58222918  0.99952046  0.01851172  1
  S  S22  1  0.17758496  0.93224790  0.89126402  1
  S  S23  1  0.82062173  0.05160587  0.09986872  1
  S  S24  1  0.10585325  0.43331322  0.65373607  1
  S  S25  1  0.90415139  0.43322064  0.35248600  1
  S  S26  1  0.72616588  0.02858201  0.30233446  1
  S  S27  1  0.26835248  0.96933158  0.68059568  1
  S  S28  1  0.16916436  0.48296416  0.45215682  1
  S  S29  1  0.81664155  0.52986410  0.55154459  1
  S  S30  1  0.43645374  0.45204167  0.80974723  1
  S  S31  1  0.56555099  0.50091528  0.19765567  1
  S  S32  1  0.91635577  0.53421819  0.99648238  1
  S  S33  1  0.09500507  0.49412744  0.02869501  1
  S  S34  1  0.65445888  0.50930109  0.87836141  1
  S  S35  1  0.32832142  0.45574668  0.09789492  1
  S  S36  1  0.59982320  0.98487033  0.64665375  1
  S  S37  1  0.40321193  0.03254576  0.34467971  1
  S  S38  1  0.24318111  0.51869521  0.32348099  1
  S  S39  1  0.75843368  0.49391413  0.69503576  1
  S  S40  1  0.67722095  0.96620552  0.45029352  1
  S  S41  1  0.33657657  0.94857750  0.54551961  1
