# generated using pymatgen
data_Pr2Mn3(SbS3)4
_symmetry_space_group_name_H-M   'P 1'
_cell_length_a   20.02960800
_cell_length_b   3.90410600
_cell_length_c   14.95364829
_cell_angle_alpha   90.00000000
_cell_angle_beta   126.33350609
_cell_angle_gamma   90.00000000
_symmetry_Int_Tables_number   1
_chemical_formula_structural   Pr2Mn3(SbS3)4
_chemical_formula_sum   'Pr4 Mn6 Sb8 S24'
_cell_volume   942.00006694
_cell_formula_units_Z   2
loop_
 _symmetry_equiv_pos_site_id
 _symmetry_equiv_pos_as_xyz
  1  'x, y, z'
loop_
 _atom_site_type_symbol
 _atom_site_label
 _atom_site_symmetry_multiplicity
 _atom_site_fract_x
 _atom_site_fract_y
 _atom_site_fract_z
 _atom_site_occupancy
  Pr  Pr0  1  0.26144280  0.49862398  0.86439267  1
  Pr  Pr1  1  0.74005395  0.49941723  0.13704143  1
  Pr  Pr2  1  0.76038350  0.00519360  0.86236497  1
  Pr  Pr3  1  0.24027530  0.99228884  0.13784472  1
  Mn  Mn4  1  0.29990620  0.50609311  0.62044060  1
  Mn  Mn5  1  0.69762783  0.50077059  0.37893888  1
  Mn  Mn6  1  0.00026775  0.99693353  0.00069215  1
  Mn  Mn7  1  0.80181689  0.99548914  0.61971736  1
  Mn  Mn8  1  0.19892587  0.99574784  0.37890940  1
  Mn  Mn9  1  0.49978840  0.48896569  0.00102395  1
  Sb  Sb10  1  0.89471133  0.00329700  0.45360819  1
  Sb  Sb11  1  0.10666895  0.99567196  0.54929389  1
  Sb  Sb12  1  0.03801418  0.49525958  0.81418775  1
  Sb  Sb13  1  0.96249113  0.49643046  0.18738745  1
  Sb  Sb14  1  0.39455193  0.49403241  0.45539119  1
  Sb  Sb15  1  0.60557635  0.49700869  0.54737610  1
  Sb  Sb16  1  0.53870234  0.99766112  0.81510802  1
  Sb  Sb17  1  0.46254096  0.99978754  0.18535516  1
  S  S18  1  0.94005496  0.99778959  0.79867231  1
  S  S19  1  0.05760410  0.99386853  0.19550662  1
  S  S20  1  0.40216207  0.98617961  0.98011095  1
  S  S21  1  0.59888077  0.99853664  0.01880429  1
  S  S22  1  0.16878185  0.99018767  0.89831089  1
  S  S23  1  0.82925005  0.00471405  0.10291635  1
  S  S24  1  0.08889481  0.49446062  0.64890930  1
  S  S25  1  0.91015740  0.49533887  0.34908344  1
  S  S26  1  0.74355274  0.98869155  0.29553532  1
  S  S27  1  0.25627101  0.00943818  0.70288147  1
  S  S28  1  0.15672749  0.49157791  0.44949556  1
  S  S29  1  0.84026325  0.50314790  0.54687336  1
  S  S30  1  0.44163614  0.49503304  0.79933621  1
  S  S31  1  0.56041838  0.49532462  0.19984418  1
  S  S32  1  0.90261049  0.49278108  0.97950176  1
  S  S33  1  0.09739524  0.49104547  0.02094389  1
  S  S34  1  0.66591246  0.50783361  0.89495758  1
  S  S35  1  0.33437609  0.49948659  0.10626862  1
  S  S36  1  0.58810451  0.01254537  0.64740073  1
  S  S37  1  0.41328539  0.99385227  0.35432422  1
  S  S38  1  0.24355083  0.48772884  0.29200390  1
  S  S39  1  0.76049248  0.49911353  0.70708428  1
  S  S40  1  0.65786713  0.99472731  0.45362098  1
  S  S41  1  0.34236459  0.99306478  0.54587991  1
