# generated using pymatgen
data_Pr2Mn3(SbS3)4
_symmetry_space_group_name_H-M   'P 1'
_cell_length_a   20.02960800
_cell_length_b   3.90410600
_cell_length_c   14.95364829
_cell_angle_alpha   90.00000000
_cell_angle_beta   126.33350609
_cell_angle_gamma   90.00000000
_symmetry_Int_Tables_number   1
_chemical_formula_structural   Pr2Mn3(SbS3)4
_chemical_formula_sum   'Pr4 Mn6 Sb8 S24'
_cell_volume   942.00006694
_cell_formula_units_Z   2
loop_
 _symmetry_equiv_pos_site_id
 _symmetry_equiv_pos_as_xyz
  1  'x, y, z'
loop_
 _atom_site_type_symbol
 _atom_site_label
 _atom_site_symmetry_multiplicity
 _atom_site_fract_x
 _atom_site_fract_y
 _atom_site_fract_z
 _atom_site_occupancy
  Pr  Pr0  1  0.26543098  0.47396526  0.86558116  1
  Pr  Pr1  1  0.73564461  0.51971609  0.13597424  1
  Pr  Pr2  1  0.76533350  0.01282495  0.86528117  1
  Pr  Pr3  1  0.23853916  0.00749178  0.13841315  1
  Mn  Mn4  1  0.29377394  0.48180119  0.60170865  1
  Mn  Mn5  1  0.69124236  0.50753923  0.38020673  1
  Mn  Mn6  1  0.01016034  0.00275009  0.01636331  1
  Mn  Mn7  1  0.80442162  0.01485223  0.61387758  1
  Mn  Mn8  1  0.19750380  0.97568376  0.37913639  1
  Mn  Mn9  1  0.49451351  0.45808081  0.99011142  1
  Sb  Sb10  1  0.89037856  0.98339420  0.45029066  1
  Sb  Sb11  1  0.11228191  0.97494207  0.54875780  1
  Sb  Sb12  1  0.03899009  0.51848114  0.81852577  1
  Sb  Sb13  1  0.96625637  0.50659137  0.18686867  1
  Sb  Sb14  1  0.39640578  0.51270403  0.45522937  1
  Sb  Sb15  1  0.60598770  0.47566601  0.54739659  1
  Sb  Sb16  1  0.53473417  0.00767578  0.81048631  1
  Sb  Sb17  1  0.46003723  0.01518583  0.18110398  1
  S  S18  1  0.93296899  0.98675982  0.80111789  1
  S  S19  1  0.06687155  0.99155223  0.19109148  1
  S  S20  1  0.40839666  0.98446107  0.98211354  1
  S  S21  1  0.58766208  0.98822022  0.01594858  1
  S  S22  1  0.16932443  0.01486933  0.89696312  1
  S  S23  1  0.82422151  0.02320192  0.09592571  1
  S  S24  1  0.09049293  0.48325160  0.64390486  1
  S  S25  1  0.90917589  0.46883212  0.35603853  1
  S  S26  1  0.74064927  0.94955263  0.30091300  1
  S  S27  1  0.26277582  0.00127320  0.71023711  1
  S  S28  1  0.16463947  0.46805213  0.43882941  1
  S  S29  1  0.82893382  0.48912815  0.54818861  1
  S  S30  1  0.43240507  0.49358873  0.79447741  1
  S  S31  1  0.56183118  0.50928409  0.18366823  1
  S  S32  1  0.91309971  0.50426314  0.98793509  1
  S  S33  1  0.08605868  0.48157909  0.01832183  1
  S  S34  1  0.66637789  0.50328247  0.88846407  1
  S  S35  1  0.32711009  0.52381471  0.09183140  1
  S  S36  1  0.59681344  0.99110170  0.66053631  1
  S  S37  1  0.40607308  0.97859522  0.34932641  1
  S  S38  1  0.24489815  0.44461710  0.30931400  1
  S  S39  1  0.76893883  0.50208203  0.70614925  1
  S  S40  1  0.67023950  0.03038766  0.45324807  1
  S  S41  1  0.32238360  0.96944227  0.54400989  1
