# generated using pymatgen
data_Pr2Mn3(SbS3)4
_symmetry_space_group_name_H-M   'P 1'
_cell_length_a   20.02960800
_cell_length_b   3.90410600
_cell_length_c   14.95364829
_cell_angle_alpha   90.00000000
_cell_angle_beta   126.33350609
_cell_angle_gamma   90.00000000
_symmetry_Int_Tables_number   1
_chemical_formula_structural   Pr2Mn3(SbS3)4
_chemical_formula_sum   'Pr4 Mn6 Sb8 S24'
_cell_volume   942.00006694
_cell_formula_units_Z   2
loop_
 _symmetry_equiv_pos_site_id
 _symmetry_equiv_pos_as_xyz
  1  'x, y, z'
loop_
 _atom_site_type_symbol
 _atom_site_label
 _atom_site_symmetry_multiplicity
 _atom_site_fract_x
 _atom_site_fract_y
 _atom_site_fract_z
 _atom_site_occupancy
  Pr  Pr0  1  0.27723072  0.48483307  0.86874029  1
  Pr  Pr1  1  0.72930383  0.51864516  0.13568134  1
  Pr  Pr2  1  0.77286363  0.00891094  0.87994565  1
  Pr  Pr3  1  0.23296991  0.92395126  0.12907800  1
  Mn  Mn4  1  0.29553551  0.44275310  0.61051157  1
  Mn  Mn5  1  0.69168585  0.52699861  0.35342282  1
  Mn  Mn6  1  0.00292710  0.01086697  0.01624507  1
  Mn  Mn7  1  0.80688117  0.01590226  0.64063891  1
  Mn  Mn8  1  0.20690190  0.05731480  0.39073182  1
  Mn  Mn9  1  0.49005654  0.47369492  0.98852541  1
  Sb  Sb10  1  0.87994485  0.86633853  0.45318964  1
  Sb  Sb11  1  0.10648367  0.99190577  0.54014451  1
  Sb  Sb12  1  0.03688546  0.49559440  0.82383993  1
  Sb  Sb13  1  0.96106294  0.45537396  0.19906938  1
  Sb  Sb14  1  0.41110416  0.55988407  0.46499263  1
  Sb  Sb15  1  0.60399995  0.57501147  0.52920290  1
  Sb  Sb16  1  0.52946773  0.95247631  0.80191289  1
  Sb  Sb17  1  0.46361584  0.00932692  0.18611403  1
  S  S18  1  0.93898630  0.99382158  0.81095049  1
  S  S19  1  0.05632987  0.02725593  0.19630688  1
  S  S20  1  0.41631163  0.01152059  0.98105234  1
  S  S21  1  0.58224981  0.99889736  0.01847570  1
  S  S22  1  0.17745165  0.93227211  0.89156456  1
  S  S23  1  0.82057795  0.05093115  0.09992558  1
  S  S24  1  0.10614710  0.43376576  0.65380348  1
  S  S25  1  0.90399670  0.43381422  0.35236024  1
  S  S26  1  0.72591948  0.03027768  0.30233427  1
  S  S27  1  0.26856562  0.96978282  0.68094033  1
  S  S28  1  0.16942176  0.48383853  0.45259218  1
  S  S29  1  0.81666992  0.52980350  0.55142911  1
  S  S30  1  0.43663619  0.45202318  0.81002603  1
  S  S31  1  0.56560056  0.50003874  0.19753168  1
  S  S32  1  0.91628885  0.53574750  0.99655646  1
  S  S33  1  0.09497130  0.49376642  0.02863928  1
  S  S34  1  0.65448510  0.50873974  0.87841805  1
  S  S35  1  0.32799254  0.45503388  0.09765639  1
  S  S36  1  0.60003220  0.98536159  0.64680916  1
  S  S37  1  0.40335799  0.03278603  0.34482220  1
  S  S38  1  0.24342648  0.51842056  0.32362445  1
  S  S39  1  0.75813416  0.49437311  0.69491122  1
  S  S40  1  0.67715129  0.96504713  0.45019142  1
  S  S41  1  0.33655592  0.94929717  0.54572084  1
