# generated using pymatgen
data_Pr2Mn3(SbS3)4
_symmetry_space_group_name_H-M   'P 1'
_cell_length_a   20.02960800
_cell_length_b   3.90410600
_cell_length_c   14.95364829
_cell_angle_alpha   90.00000000
_cell_angle_beta   126.33350609
_cell_angle_gamma   90.00000000
_symmetry_Int_Tables_number   1
_chemical_formula_structural   Pr2Mn3(SbS3)4
_chemical_formula_sum   'Pr4 Mn6 Sb8 S24'
_cell_volume   942.00006694
_cell_formula_units_Z   2
loop_
 _symmetry_equiv_pos_site_id
 _symmetry_equiv_pos_as_xyz
  1  'x, y, z'
loop_
 _atom_site_type_symbol
 _atom_site_label
 _atom_site_symmetry_multiplicity
 _atom_site_fract_x
 _atom_site_fract_y
 _atom_site_fract_z
 _atom_site_occupancy
  Pr  Pr0  1  0.27719942  0.48459625  0.86870832  1
  Pr  Pr1  1  0.72938821  0.51824491  0.13582098  1
  Pr  Pr2  1  0.77304441  0.00895193  0.88020664  1
  Pr  Pr3  1  0.23297005  0.92396062  0.12904712  1
  Mn  Mn4  1  0.29553890  0.44348481  0.61066482  1
  Mn  Mn5  1  0.69202374  0.52685897  0.35370635  1
  Mn  Mn6  1  0.00296387  0.01010163  0.01626044  1
  Mn  Mn7  1  0.80686615  0.01614301  0.64068477  1
  Mn  Mn8  1  0.20702575  0.05719568  0.39070232  1
  Mn  Mn9  1  0.49031163  0.47383040  0.98880037  1
  Sb  Sb10  1  0.88002256  0.86645188  0.45332205  1
  Sb  Sb11  1  0.10656732  0.99159467  0.54034124  1
  Sb  Sb12  1  0.03691740  0.49594912  0.82374803  1
  Sb  Sb13  1  0.96104481  0.45493172  0.19895838  1
  Sb  Sb14  1  0.41085818  0.56072133  0.46486873  1
  Sb  Sb15  1  0.60401774  0.57505932  0.52921885  1
  Sb  Sb16  1  0.52938646  0.95255508  0.80188540  1
  Sb  Sb17  1  0.46353802  0.00951532  0.18614981  1
  S  S18  1  0.93906086  0.99452930  0.81075677  1
  S  S19  1  0.05633101  0.02845236  0.19627331  1
  S  S20  1  0.41623026  0.01192987  0.98091490  1
  S  S21  1  0.58227241  0.99779539  0.01845446  1
  S  S22  1  0.17738482  0.93265227  0.89189256  1
  S  S23  1  0.82059602  0.05025921  0.09999117  1
  S  S24  1  0.10645814  0.43368218  0.65377915  1
  S  S25  1  0.90381085  0.43458316  0.35209222  1
  S  S26  1  0.72572403  0.03172438  0.30236777  1
  S  S27  1  0.26878458  0.97013992  0.68119876  1
  S  S28  1  0.16966235  0.48464042  0.45283945  1
  S  S29  1  0.81676581  0.52999831  0.55145348  1
  S  S30  1  0.43669430  0.45214094  0.81026383  1
  S  S31  1  0.56562362  0.49933257  0.19737611  1
  S  S32  1  0.91621516  0.53718289  0.99641669  1
  S  S33  1  0.09493362  0.49348185  0.02861897  1
  S  S34  1  0.65458413  0.50829489  0.87841492  1
  S  S35  1  0.32760478  0.45423282  0.09741873  1
  S  S36  1  0.60014879  0.98574389  0.64691524  1
  S  S37  1  0.40350805  0.03304824  0.34501290  1
  S  S38  1  0.24367983  0.51832185  0.32375716  1
  S  S39  1  0.75787938  0.49496958  0.69492595  1
  S  S40  1  0.67700734  0.96393735  0.45005616  1
  S  S41  1  0.33646735  0.95029069  0.54580692  1
