# generated using pymatgen
data_Pr2Mn3(SbS3)4
_symmetry_space_group_name_H-M   'P 1'
_cell_length_a   20.02960800
_cell_length_b   3.90410600
_cell_length_c   14.95364829
_cell_angle_alpha   90.00000000
_cell_angle_beta   126.33350609
_cell_angle_gamma   90.00000000
_symmetry_Int_Tables_number   1
_chemical_formula_structural   Pr2Mn3(SbS3)4
_chemical_formula_sum   'Pr4 Mn6 Sb8 S24'
_cell_volume   942.00006694
_cell_formula_units_Z   2
loop_
 _symmetry_equiv_pos_site_id
 _symmetry_equiv_pos_as_xyz
  1  'x, y, z'
loop_
 _atom_site_type_symbol
 _atom_site_label
 _atom_site_symmetry_multiplicity
 _atom_site_fract_x
 _atom_site_fract_y
 _atom_site_fract_z
 _atom_site_occupancy
  Pr  Pr0  1  0.27719294  0.48447904  0.86874614  1
  Pr  Pr1  1  0.72945118  0.51774880  0.13597371  1
  Pr  Pr2  1  0.77317007  0.00904971  0.88039367  1
  Pr  Pr3  1  0.23298101  0.92387674  0.12905945  1
  Mn  Mn4  1  0.29546291  0.44423441  0.61077365  1
  Mn  Mn5  1  0.69240510  0.52683072  0.35391820  1
  Mn  Mn6  1  0.00298355  0.00945111  0.01632869  1
  Mn  Mn7  1  0.80688916  0.01644604  0.64075039  1
  Mn  Mn8  1  0.20718085  0.05712160  0.39075439  1
  Mn  Mn9  1  0.49056234  0.47404375  0.98909863  1
  Sb  Sb10  1  0.88007217  0.86667382  0.45334999  1
  Sb  Sb11  1  0.10662952  0.99128095  0.54048896  1
  Sb  Sb12  1  0.03689936  0.49641119  0.82363037  1
  Sb  Sb13  1  0.96105229  0.45460015  0.19890335  1
  Sb  Sb14  1  0.41066146  0.56169713  0.46476906  1
  Sb  Sb15  1  0.60403839  0.57507434  0.52927074  1
  Sb  Sb16  1  0.52931014  0.95267572  0.80193223  1
  Sb  Sb17  1  0.46346404  0.00976809  0.18612876  1
  S  S18  1  0.93919657  0.99523896  0.81060444  1
  S  S19  1  0.05623977  0.02954486  0.19626482  1
  S  S20  1  0.41619314  0.01174620  0.98092291  1
  S  S21  1  0.58216203  0.99704268  0.01830988  1
  S  S22  1  0.17736240  0.93291771  0.89220811  1
  S  S23  1  0.82061098  0.04965376  0.10005679  1
  S  S24  1  0.10677512  0.43333820  0.65379062  1
  S  S25  1  0.90371615  0.43539063  0.35202556  1
  S  S26  1  0.72551549  0.03255930  0.30229205  1
  S  S27  1  0.26895717  0.96997966  0.68142052  1
  S  S28  1  0.16994256  0.48566256  0.45314466  1
  S  S29  1  0.81686715  0.53039815  0.55136323  1
  S  S30  1  0.43679809  0.45217292  0.81057286  1
  S  S31  1  0.56560577  0.49901396  0.19724515  1
  S  S32  1  0.91615770  0.53862312  0.99635505  1
  S  S33  1  0.09498188  0.49364559  0.02845117  1
  S  S34  1  0.65476907  0.50784227  0.87846851  1
  S  S35  1  0.32722505  0.45363951  0.09724663  1
  S  S36  1  0.60018824  0.98628455  0.64685847  1
  S  S37  1  0.40360848  0.03304756  0.34510418  1
  S  S38  1  0.24387369  0.51758625  0.32380220  1
  S  S39  1  0.75763489  0.49542785  0.69507407  1
  S  S40  1  0.67682055  0.96327100  0.44998704  1
  S  S41  1  0.33628939  0.95133503  0.54580610  1
