# generated using pymatgen
data_Pr2Mn3(SbS3)4
_symmetry_space_group_name_H-M   'P 1'
_cell_length_a   20.02960800
_cell_length_b   3.90410600
_cell_length_c   14.95364829
_cell_angle_alpha   90.00000000
_cell_angle_beta   126.33350609
_cell_angle_gamma   90.00000000
_symmetry_Int_Tables_number   1
_chemical_formula_structural   Pr2Mn3(SbS3)4
_chemical_formula_sum   'Pr4 Mn6 Sb8 S24'
_cell_volume   942.00006694
_cell_formula_units_Z   2
loop_
 _symmetry_equiv_pos_site_id
 _symmetry_equiv_pos_as_xyz
  1  'x, y, z'
loop_
 _atom_site_type_symbol
 _atom_site_label
 _atom_site_symmetry_multiplicity
 _atom_site_fract_x
 _atom_site_fract_y
 _atom_site_fract_z
 _atom_site_occupancy
  Pr  Pr0  1  0.27716358  0.48452809  0.86877016  1
  Pr  Pr1  1  0.72947656  0.51733295  0.13609828  1
  Pr  Pr2  1  0.77331300  0.00909185  0.88057711  1
  Pr  Pr3  1  0.23302702  0.92399893  0.12905808  1
  Mn  Mn4  1  0.29549112  0.44450230  0.61089611  1
  Mn  Mn5  1  0.69278106  0.52698379  0.35402177  1
  Mn  Mn6  1  0.00294254  0.00890122  0.01637871  1
  Mn  Mn7  1  0.80695493  0.01700745  0.64079380  1
  Mn  Mn8  1  0.20729598  0.05708942  0.39070310  1
  Mn  Mn9  1  0.49078365  0.47451067  0.98937765  1
  Sb  Sb10  1  0.88008107  0.86657921  0.45337759  1
  Sb  Sb11  1  0.10667984  0.99072944  0.54054531  1
  Sb  Sb12  1  0.03691362  0.49636266  0.82360449  1
  Sb  Sb13  1  0.96106978  0.45453441  0.19884641  1
  Sb  Sb14  1  0.41049445  0.56277033  0.46475904  1
  Sb  Sb15  1  0.60404082  0.57500948  0.52927513  1
  Sb  Sb16  1  0.52924549  0.95284384  0.80202760  1
  Sb  Sb17  1  0.46337274  0.00995456  0.18615420  1
  S  S18  1  0.93946171  0.99612393  0.81056961  1
  S  S19  1  0.05615550  0.03028238  0.19614976  1
  S  S20  1  0.41622357  0.01184740  0.98103076  1
  S  S21  1  0.58198932  0.99637722  0.01814209  1
  S  S22  1  0.17746691  0.93293009  0.89259161  1
  S  S23  1  0.82062342  0.04954265  0.10000476  1
  S  S24  1  0.10691545  0.43263959  0.65368909  1
  S  S25  1  0.90362688  0.43574038  0.35184898  1
  S  S26  1  0.72528622  0.03223578  0.30206248  1
  S  S27  1  0.26897116  0.97012423  0.68153480  1
  S  S28  1  0.17018537  0.48685283  0.45346216  1
  S  S29  1  0.81694631  0.53055948  0.55130306  1
  S  S30  1  0.43689715  0.45257025  0.81089094  1
  S  S31  1  0.56549826  0.49906213  0.19699988  1
  S  S32  1  0.91600989  0.54006807  0.99620866  1
  S  S33  1  0.09497501  0.49402644  0.02834873  1
  S  S34  1  0.65499472  0.50719853  0.87858882  1
  S  S35  1  0.32698635  0.45315153  0.09711807  1
  S  S36  1  0.60025248  0.98673559  0.64680353  1
  S  S37  1  0.40377803  0.03354346  0.34526428  1
  S  S38  1  0.24402343  0.51708828  0.32379421  1
  S  S39  1  0.75738388  0.49593612  0.69516661  1
  S  S40  1  0.67656315  0.96261232  0.44974010  1
  S  S41  1  0.33608526  0.95243453  0.54559729  1
