# generated using pymatgen
data_Pr2Mn3(SbS3)4
_symmetry_space_group_name_H-M   'P 1'
_cell_length_a   20.02960800
_cell_length_b   3.90410600
_cell_length_c   14.95364829
_cell_angle_alpha   90.00000000
_cell_angle_beta   126.33350609
_cell_angle_gamma   90.00000000
_symmetry_Int_Tables_number   1
_chemical_formula_structural   Pr2Mn3(SbS3)4
_chemical_formula_sum   'Pr4 Mn6 Sb8 S24'
_cell_volume   942.00006694
_cell_formula_units_Z   2
loop_
 _symmetry_equiv_pos_site_id
 _symmetry_equiv_pos_as_xyz
  1  'x, y, z'
loop_
 _atom_site_type_symbol
 _atom_site_label
 _atom_site_symmetry_multiplicity
 _atom_site_fract_x
 _atom_site_fract_y
 _atom_site_fract_z
 _atom_site_occupancy
  Pr  Pr0  1  0.27712681  0.48436625  0.86876612  1
  Pr  Pr1  1  0.72944179  0.51714981  0.13618846  1
  Pr  Pr2  1  0.77339694  0.00932910  0.88068934  1
  Pr  Pr3  1  0.23308611  0.92405380  0.12907307  1
  Mn  Mn4  1  0.29549019  0.44470406  0.61090391  1
  Mn  Mn5  1  0.69301845  0.52736149  0.35405586  1
  Mn  Mn6  1  0.00288921  0.00870646  0.01635422  1
  Mn  Mn7  1  0.80706028  0.01718499  0.64084939  1
  Mn  Mn8  1  0.20743867  0.05769391  0.39087401  1
  Mn  Mn9  1  0.49108202  0.47504386  0.98962183  1
  Sb  Sb10  1  0.88009666  0.86637847  0.45340346  1
  Sb  Sb11  1  0.10673662  0.99033648  0.54055624  1
  Sb  Sb12  1  0.03694880  0.49623014  0.82362722  1
  Sb  Sb13  1  0.96103683  0.45449865  0.19867001  1
  Sb  Sb14  1  0.41037192  0.56371215  0.46480275  1
  Sb  Sb15  1  0.60407548  0.57478562  0.52928195  1
  Sb  Sb16  1  0.52916527  0.95266158  0.80213954  1
  Sb  Sb17  1  0.46335023  0.01028193  0.18625314  1
  S  S18  1  0.93961901  0.99678768  0.81039882  1
  S  S19  1  0.05595654  0.03103419  0.19592878  1
  S  S20  1  0.41633599  0.01154088  0.98107891  1
  S  S21  1  0.58180180  0.99623322  0.01794858  1
  S  S22  1  0.17747067  0.93293508  0.89302713  1
  S  S23  1  0.82055215  0.04929654  0.09974339  1
  S  S24  1  0.10698600  0.43233344  0.65348587  1
  S  S25  1  0.90350807  0.43570999  0.35177925  1
  S  S26  1  0.72495921  0.03220907  0.30178241  1
  S  S27  1  0.26892664  0.97035286  0.68148527  1
  S  S28  1  0.17035441  0.48827580  0.45375023  1
  S  S29  1  0.81705787  0.53087520  0.55139638  1
  S  S30  1  0.43696747  0.45340430  0.81118896  1
  S  S31  1  0.56531452  0.49918241  0.19664349  1
  S  S32  1  0.91587286  0.54112328  0.99612388  1
  S  S33  1  0.09484533  0.49413153  0.02806482  1
  S  S34  1  0.65527819  0.50667404  0.87891217  1
  S  S35  1  0.32689591  0.45240866  0.09699404  1
  S  S36  1  0.60030560  0.98722006  0.64668726  1
  S  S37  1  0.40379442  0.03406556  0.34529114  1
  S  S38  1  0.24410475  0.51616742  0.32371791  1
  S  S39  1  0.75722866  0.49604750  0.69530515  1
  S  S40  1  0.67618896  0.96209951  0.44932879  1
  S  S41  1  0.33606697  0.95389413  0.54561667  1
