# generated using pymatgen
data_Pr2Mn3(SbS3)4
_symmetry_space_group_name_H-M   'P 1'
_cell_length_a   20.02960800
_cell_length_b   3.90410600
_cell_length_c   14.95364829
_cell_angle_alpha   90.00000000
_cell_angle_beta   126.33350609
_cell_angle_gamma   90.00000000
_symmetry_Int_Tables_number   1
_chemical_formula_structural   Pr2Mn3(SbS3)4
_chemical_formula_sum   'Pr4 Mn6 Sb8 S24'
_cell_volume   942.00006694
_cell_formula_units_Z   2
loop_
 _symmetry_equiv_pos_site_id
 _symmetry_equiv_pos_as_xyz
  1  'x, y, z'
loop_
 _atom_site_type_symbol
 _atom_site_label
 _atom_site_symmetry_multiplicity
 _atom_site_fract_x
 _atom_site_fract_y
 _atom_site_fract_z
 _atom_site_occupancy
  Pr  Pr0  1  0.27712598  0.48417843  0.86876979  1
  Pr  Pr1  1  0.72937984  0.51713599  0.13629704  1
  Pr  Pr2  1  0.77344001  0.00946937  0.88063796  1
  Pr  Pr3  1  0.23316434  0.92406099  0.12910445  1
  Mn  Mn4  1  0.29547122  0.44487694  0.61104235  1
  Mn  Mn5  1  0.69332180  0.52770948  0.35421517  1
  Mn  Mn6  1  0.00286546  0.00821452  0.01628675  1
  Mn  Mn7  1  0.80724099  0.01752037  0.64091191  1
  Mn  Mn8  1  0.20756565  0.05830726  0.39091897  1
  Mn  Mn9  1  0.49140970  0.47539781  0.98984616  1
  Sb  Sb10  1  0.88010155  0.86614130  0.45333192  1
  Sb  Sb11  1  0.10677806  0.99017631  0.54057456  1
  Sb  Sb12  1  0.03694352  0.49613628  0.82362930  1
  Sb  Sb13  1  0.96095864  0.45413524  0.19856264  1
  Sb  Sb14  1  0.41023124  0.56491210  0.46481328  1
  Sb  Sb15  1  0.60408273  0.57442030  0.52935804  1
  Sb  Sb16  1  0.52909083  0.95248522  0.80221584  1
  Sb  Sb17  1  0.46330996  0.01033606  0.18629523  1
  S  S18  1  0.93974341  0.99747817  0.81034615  1
  S  S19  1  0.05578543  0.03162885  0.19575270  1
  S  S20  1  0.41654879  0.01111333  0.98125630  1
  S  S21  1  0.58150734  0.99646748  0.01767536  1
  S  S22  1  0.17740457  0.93337987  0.89340747  1
  S  S23  1  0.82050953  0.04915072  0.09946542  1
  S  S24  1  0.10696403  0.43287728  0.65338393  1
  S  S25  1  0.90334471  0.43500846  0.35159742  1
  S  S26  1  0.72476354  0.03240415  0.30167790  1
  S  S27  1  0.26894115  0.97076460  0.68158010  1
  S  S28  1  0.17047802  0.48955160  0.45393186  1
  S  S29  1  0.81724003  0.53121943  0.55151928  1
  S  S30  1  0.43699965  0.45438303  0.81139346  1
  S  S31  1  0.56501078  0.49978196  0.19612005  1
  S  S32  1  0.91558330  0.54211469  0.99598281  1
  S  S33  1  0.09455381  0.49496112  0.02771081  1
  S  S34  1  0.65559452  0.50547204  0.87921399  1
  S  S35  1  0.32682910  0.45217865  0.09676939  1
  S  S36  1  0.60033760  0.98742542  0.64644346  1
  S  S37  1  0.40382772  0.03518937  0.34522590  1
  S  S38  1  0.24426943  0.51622130  0.32364341  1
  S  S39  1  0.75709491  0.49608194  0.69550096  1
  S  S40  1  0.67584950  0.96215004  0.44906094  1
  S  S41  1  0.33604229  0.95546502  0.54549239  1
