# generated using pymatgen
data_Pr2Mn3(SbS3)4
_symmetry_space_group_name_H-M   'P 1'
_cell_length_a   20.02960800
_cell_length_b   3.90410600
_cell_length_c   14.95364829
_cell_angle_alpha   90.00000000
_cell_angle_beta   126.33350609
_cell_angle_gamma   90.00000000
_symmetry_Int_Tables_number   1
_chemical_formula_structural   Pr2Mn3(SbS3)4
_chemical_formula_sum   'Pr4 Mn6 Sb8 S24'
_cell_volume   942.00006694
_cell_formula_units_Z   2
loop_
 _symmetry_equiv_pos_site_id
 _symmetry_equiv_pos_as_xyz
  1  'x, y, z'
loop_
 _atom_site_type_symbol
 _atom_site_label
 _atom_site_symmetry_multiplicity
 _atom_site_fract_x
 _atom_site_fract_y
 _atom_site_fract_z
 _atom_site_occupancy
  Pr  Pr0  1  0.27710746  0.48392952  0.86868690  1
  Pr  Pr1  1  0.72933956  0.51728815  0.13637494  1
  Pr  Pr2  1  0.77344831  0.00964788  0.88056650  1
  Pr  Pr3  1  0.23321002  0.92388690  0.12911337  1
  Mn  Mn4  1  0.29554158  0.44455963  0.61124077  1
  Mn  Mn5  1  0.69357929  0.52788641  0.35429147  1
  Mn  Mn6  1  0.00284194  0.00781631  0.01617214  1
  Mn  Mn7  1  0.80737048  0.01830697  0.64098901  1
  Mn  Mn8  1  0.20759870  0.05903850  0.39092613  1
  Mn  Mn9  1  0.49167527  0.47552293  0.98997656  1
  Sb  Sb10  1  0.88006852  0.86585103  0.45324271  1
  Sb  Sb11  1  0.10680472  0.99020472  0.54057600  1
  Sb  Sb12  1  0.03691419  0.49620502  0.82361465  1
  Sb  Sb13  1  0.96084954  0.45375302  0.19838461  1
  Sb  Sb14  1  0.41012185  0.56592573  0.46489430  1
  Sb  Sb15  1  0.60405691  0.57424318  0.52944222  1
  Sb  Sb16  1  0.52906754  0.95220288  0.80237557  1
  Sb  Sb17  1  0.46324426  0.01015951  0.18633632  1
  S  S18  1  0.93975538  0.99826677  0.81031077  1
  S  S19  1  0.05560804  0.03182710  0.19559477  1
  S  S20  1  0.41676017  0.01077664  0.98133790  1
  S  S21  1  0.58116978  0.99670157  0.01737866  1
  S  S22  1  0.17730159  0.93407957  0.89365851  1
  S  S23  1  0.82037558  0.04869580  0.09913337  1
  S  S24  1  0.10709911  0.43342525  0.65342801  1
  S  S25  1  0.90309959  0.43443212  0.35137240  1
  S  S26  1  0.72458672  0.03261174  0.30176851  1
  S  S27  1  0.26890792  0.97069807  0.68163546  1
  S  S28  1  0.17064344  0.49076380  0.45403428  1
  S  S29  1  0.81729954  0.53187454  0.55154464  1
  S  S30  1  0.43698971  0.45504321  0.81156913  1
  S  S31  1  0.56475748  0.50029561  0.19573220  1
  S  S32  1  0.91540635  0.54267671  0.99578793  1
  S  S33  1  0.09438688  0.49580218  0.02757976  1
  S  S34  1  0.65588271  0.50460258  0.87939484  1
  S  S35  1  0.32686764  0.45132203  0.09665048  1
  S  S36  1  0.60038045  0.98799754  0.64623963  1
  S  S37  1  0.40384144  0.03621932  0.34517904  1
  S  S38  1  0.24437027  0.51656231  0.32355703  1
  S  S39  1  0.75695088  0.49634741  0.69584867  1
  S  S40  1  0.67549593  0.96241225  0.44887028  1
  S  S41  1  0.33605593  0.95683790  0.54542329  1
