# generated using pymatgen
data_Pr2Mn3(SbS3)4
_symmetry_space_group_name_H-M   'P 1'
_cell_length_a   20.02960800
_cell_length_b   3.90410600
_cell_length_c   14.95364829
_cell_angle_alpha   90.00000000
_cell_angle_beta   126.33350609
_cell_angle_gamma   90.00000000
_symmetry_Int_Tables_number   1
_chemical_formula_structural   Pr2Mn3(SbS3)4
_chemical_formula_sum   'Pr4 Mn6 Sb8 S24'
_cell_volume   942.00006694
_cell_formula_units_Z   2
loop_
 _symmetry_equiv_pos_site_id
 _symmetry_equiv_pos_as_xyz
  1  'x, y, z'
loop_
 _atom_site_type_symbol
 _atom_site_label
 _atom_site_symmetry_multiplicity
 _atom_site_fract_x
 _atom_site_fract_y
 _atom_site_fract_z
 _atom_site_occupancy
  Pr  Pr0  1  0.27707346  0.48366470  0.86865285  1
  Pr  Pr1  1  0.72928405  0.51741189  0.13642153  1
  Pr  Pr2  1  0.77338534  0.00988661  0.88044930  1
  Pr  Pr3  1  0.23324452  0.92369577  0.12913635  1
  Mn  Mn4  1  0.29564087  0.44441486  0.61139424  1
  Mn  Mn5  1  0.69375877  0.52773571  0.35449312  1
  Mn  Mn6  1  0.00280481  0.00718715  0.01606689  1
  Mn  Mn7  1  0.80743309  0.01917656  0.64098031  1
  Mn  Mn8  1  0.20758593  0.05990408  0.39086073  1
  Mn  Mn9  1  0.49191363  0.47600267  0.99019622  1
  Sb  Sb10  1  0.88001833  0.86562272  0.45306202  1
  Sb  Sb11  1  0.10684124  0.99055089  0.54056158  1
  Sb  Sb12  1  0.03688899  0.49635833  0.82355040  1
  Sb  Sb13  1  0.96075289  0.45358106  0.19817771  1
  Sb  Sb14  1  0.40999214  0.56663640  0.46493967  1
  Sb  Sb15  1  0.60403504  0.57396607  0.52951359  1
  Sb  Sb16  1  0.52905469  0.95193471  0.80252207  1
  Sb  Sb17  1  0.46315281  0.00996055  0.18634850  1
  S  S18  1  0.93971137  0.99933121  0.81029226  1
  S  S19  1  0.05542426  0.03193549  0.19538045  1
  S  S20  1  0.41683572  0.01059612  0.98142045  1
  S  S21  1  0.58095333  0.99707050  0.01717802  1
  S  S22  1  0.17726815  0.93485234  0.89395356  1
  S  S23  1  0.82021643  0.04831304  0.09885190  1
  S  S24  1  0.10722383  0.43380151  0.65362707  1
  S  S25  1  0.90289573  0.43354877  0.35120763  1
  S  S26  1  0.72428814  0.03297418  0.30176709  1
  S  S27  1  0.26893055  0.97098955  0.68183787  1
  S  S28  1  0.17073283  0.49266635  0.45417099  1
  S  S29  1  0.81736631  0.53245611  0.55146786  1
  S  S30  1  0.43682839  0.45554692  0.81164701  1
  S  S31  1  0.56458330  0.50042750  0.19540684  1
  S  S32  1  0.91522696  0.54308666  0.99566986  1
  S  S33  1  0.09428204  0.49612404  0.02742366  1
  S  S34  1  0.65617094  0.50319283  0.87960040  1
  S  S35  1  0.32679487  0.45044879  0.09651696  1
  S  S36  1  0.60055397  0.98819821  0.64620179  1
  S  S37  1  0.40382782  0.03738177  0.34513577  1
  S  S38  1  0.24460078  0.51653813  0.32367823  1
  S  S39  1  0.75684522  0.49624127  0.69615694  1
  S  S40  1  0.67524701  0.96272840  0.44867952  1
  S  S41  1  0.33599032  0.95782422  0.54529552  1
