# generated using pymatgen
data_Pr2Mn3(SbS3)4
_symmetry_space_group_name_H-M   'P 1'
_cell_length_a   20.02960800
_cell_length_b   3.90410600
_cell_length_c   14.95364829
_cell_angle_alpha   90.00000000
_cell_angle_beta   126.33350609
_cell_angle_gamma   90.00000000
_symmetry_Int_Tables_number   1
_chemical_formula_structural   Pr2Mn3(SbS3)4
_chemical_formula_sum   'Pr4 Mn6 Sb8 S24'
_cell_volume   942.00006694
_cell_formula_units_Z   2
loop_
 _symmetry_equiv_pos_site_id
 _symmetry_equiv_pos_as_xyz
  1  'x, y, z'
loop_
 _atom_site_type_symbol
 _atom_site_label
 _atom_site_symmetry_multiplicity
 _atom_site_fract_x
 _atom_site_fract_y
 _atom_site_fract_z
 _atom_site_occupancy
  Pr  Pr0  1  0.27699908  0.48354541  0.86861788  1
  Pr  Pr1  1  0.72923019  0.51737555  0.13648462  1
  Pr  Pr2  1  0.77328884  0.00999305  0.88036249  1
  Pr  Pr3  1  0.23323866  0.92370350  0.12912130  1
  Mn  Mn4  1  0.29574797  0.44394563  0.61149534  1
  Mn  Mn5  1  0.69388356  0.52696415  0.35445470  1
  Mn  Mn6  1  0.00261379  0.00657923  0.01577424  1
  Mn  Mn7  1  0.80749824  0.01980308  0.64093469  1
  Mn  Mn8  1  0.20751943  0.06058564  0.39075227  1
  Mn  Mn9  1  0.49215964  0.47654237  0.99032790  1
  Sb  Sb10  1  0.87997426  0.86549177  0.45286292  1
  Sb  Sb11  1  0.10690808  0.99098507  0.54060469  1
  Sb  Sb12  1  0.03691051  0.49682075  0.82358570  1
  Sb  Sb13  1  0.96068688  0.45338811  0.19808612  1
  Sb  Sb14  1  0.40987565  0.56751182  0.46495612  1
  Sb  Sb15  1  0.60398574  0.57392056  0.52958090  1
  Sb  Sb16  1  0.52915105  0.95172060  0.80272513  1
  Sb  Sb17  1  0.46308491  0.00946859  0.18640515  1
  S  S18  1  0.93970710  0.99957251  0.81028361  1
  S  S19  1  0.05525876  0.03216453  0.19519133  1
  S  S20  1  0.41694088  0.01048769  0.98153138  1
  S  S21  1  0.58069265  0.99774732  0.01698697  1
  S  S22  1  0.17728245  0.93536465  0.89428916  1
  S  S23  1  0.82006255  0.04777080  0.09863269  1
  S  S24  1  0.10728767  0.43457223  0.65377270  1
  S  S25  1  0.90268147  0.43261501  0.35096549  1
  S  S26  1  0.72410242  0.03366964  0.30192311  1
  S  S27  1  0.26897946  0.97173817  0.68207290  1
  S  S28  1  0.17072283  0.49432213  0.45413767  1
  S  S29  1  0.81748816  0.53325795  0.55147540  1
  S  S30  1  0.43665508  0.45549159  0.81176013  1
  S  S31  1  0.56434796  0.50071360  0.19497631  1
  S  S32  1  0.91512780  0.54341639  0.99563392  1
  S  S33  1  0.09420419  0.49682299  0.02725090  1
  S  S34  1  0.65652324  0.50219749  0.87990361  1
  S  S35  1  0.32666965  0.44970336  0.09640010  1
  S  S36  1  0.60075567  0.98852979  0.64620230  1
  S  S37  1  0.40358848  0.03777744  0.34488557  1
  S  S38  1  0.24478328  0.51673161  0.32370216  1
  S  S39  1  0.75688209  0.49623054  0.69650474  1
  S  S40  1  0.67504146  0.96287852  0.44863072  1
  S  S41  1  0.33584685  0.95866159  0.54516997  1
