# generated using pymatgen
data_Pr2Mn3(SbS3)4
_symmetry_space_group_name_H-M   'P 1'
_cell_length_a   20.02960800
_cell_length_b   3.90410600
_cell_length_c   14.95364829
_cell_angle_alpha   90.00000000
_cell_angle_beta   126.33350609
_cell_angle_gamma   90.00000000
_symmetry_Int_Tables_number   1
_chemical_formula_structural   Pr2Mn3(SbS3)4
_chemical_formula_sum   'Pr4 Mn6 Sb8 S24'
_cell_volume   942.00006694
_cell_formula_units_Z   2
loop_
 _symmetry_equiv_pos_site_id
 _symmetry_equiv_pos_as_xyz
  1  'x, y, z'
loop_
 _atom_site_type_symbol
 _atom_site_label
 _atom_site_symmetry_multiplicity
 _atom_site_fract_x
 _atom_site_fract_y
 _atom_site_fract_z
 _atom_site_occupancy
  Pr  Pr0  1  0.27693477  0.48324548  0.86853177  1
  Pr  Pr1  1  0.72920353  0.51755021  0.13649651  1
  Pr  Pr2  1  0.77321834  0.01018733  0.88038129  1
  Pr  Pr3  1  0.23319607  0.92362611  0.12911634  1
  Mn  Mn4  1  0.29588127  0.44371245  0.61155744  1
  Mn  Mn5  1  0.69400256  0.52615573  0.35451482  1
  Mn  Mn6  1  0.00254732  0.00595248  0.01560660  1
  Mn  Mn7  1  0.80756671  0.02085127  0.64086558  1
  Mn  Mn8  1  0.20745412  0.06115941  0.39066684  1
  Mn  Mn9  1  0.49248755  0.47678192  0.99060629  1
  Sb  Sb10  1  0.87995674  0.86523034  0.45275313  1
  Sb  Sb11  1  0.10700007  0.99125531  0.54063682  1
  Sb  Sb12  1  0.03694598  0.49724792  0.82369975  1
  Sb  Sb13  1  0.96061095  0.45343413  0.19798190  1
  Sb  Sb14  1  0.40975869  0.56841521  0.46492577  1
  Sb  Sb15  1  0.60392953  0.57395362  0.52961795  1
  Sb  Sb16  1  0.52927280  0.95125943  0.80297150  1
  Sb  Sb17  1  0.46302801  0.00891090  0.18643061  1
  S  S18  1  0.93978314  0.99958533  0.81046488  1
  S  S19  1  0.05506337  0.03210171  0.19498917  1
  S  S20  1  0.41718969  0.01031236  0.98177713  1
  S  S21  1  0.58036881  0.99826856  0.01672601  1
  S  S22  1  0.17710888  0.93680269  0.89436218  1
  S  S23  1  0.81994432  0.04722099  0.09859984  1
  S  S24  1  0.10733071  0.43591578  0.65388700  1
  S  S25  1  0.90243078  0.43157551  0.35084784  1
  S  S26  1  0.72402710  0.03468290  0.30233263  1
  S  S27  1  0.26910784  0.97239450  0.68237407  1
  S  S28  1  0.17079743  0.49547767  0.45429710  1
  S  S29  1  0.81766216  0.53376200  0.55146229  1
  S  S30  1  0.43655778  0.45536756  0.81212746  1
  S  S31  1  0.56413967  0.50095965  0.19477807  1
  S  S32  1  0.91510995  0.54376512  0.99565965  1
  S  S33  1  0.09407462  0.49772674  0.02711459  1
  S  S34  1  0.65670275  0.50094341  0.88005387  1
  S  S35  1  0.32649877  0.44899404  0.09625349  1
  S  S36  1  0.60084836  0.98896390  0.64605694  1
  S  S37  1  0.40332875  0.03834702  0.34460739  1
  S  S38  1  0.24478086  0.51700829  0.32353694  1
  S  S39  1  0.75699140  0.49579751  0.69692289  1
  S  S40  1  0.67477183  0.96235137  0.44868729  1
  S  S41  1  0.33563490  0.95957818  0.54503525  1
