# generated using pymatgen
data_Pr2Mn3(SbS3)4
_symmetry_space_group_name_H-M   'P 1'
_cell_length_a   20.02960800
_cell_length_b   3.90410600
_cell_length_c   14.95364829
_cell_angle_alpha   90.00000000
_cell_angle_beta   126.33350609
_cell_angle_gamma   90.00000000
_symmetry_Int_Tables_number   1
_chemical_formula_structural   Pr2Mn3(SbS3)4
_chemical_formula_sum   'Pr4 Mn6 Sb8 S24'
_cell_volume   942.00006694
_cell_formula_units_Z   2
loop_
 _symmetry_equiv_pos_site_id
 _symmetry_equiv_pos_as_xyz
  1  'x, y, z'
loop_
 _atom_site_type_symbol
 _atom_site_label
 _atom_site_symmetry_multiplicity
 _atom_site_fract_x
 _atom_site_fract_y
 _atom_site_fract_z
 _atom_site_occupancy
  Pr  Pr0  1  0.26548319  0.47480869  0.86540297  1
  Pr  Pr1  1  0.73558397  0.51938747  0.13587975  1
  Pr  Pr2  1  0.76533987  0.01305622  0.86534831  1
  Pr  Pr3  1  0.23848412  0.00759421  0.13834389  1
  Mn  Mn4  1  0.29357685  0.48093534  0.60148611  1
  Mn  Mn5  1  0.69119293  0.50691444  0.38014560  1
  Mn  Mn6  1  0.01028744  0.00238238  0.01643144  1
  Mn  Mn7  1  0.80436990  0.01481797  0.61385876  1
  Mn  Mn8  1  0.19747542  0.97553186  0.37907165  1
  Mn  Mn9  1  0.49426790  0.45882392  0.98998165  1
  Sb  Sb10  1  0.89035019  0.98320495  0.45018909  1
  Sb  Sb11  1  0.11240515  0.97531712  0.54881888  1
  Sb  Sb12  1  0.03904901  0.51854636  0.81867805  1
  Sb  Sb13  1  0.96614807  0.50712873  0.18688505  1
  Sb  Sb14  1  0.39646071  0.51294111  0.45514976  1
  Sb  Sb15  1  0.60591123  0.47575181  0.54726705  1
  Sb  Sb16  1  0.53478756  0.00761400  0.81053260  1
  Sb  Sb17  1  0.46001259  0.01557405  0.18099917  1
  S  S18  1  0.93317503  0.98768058  0.80083713  1
  S  S19  1  0.06680204  0.99056614  0.19136720  1
  S  S20  1  0.40839571  0.98409390  0.98227538  1
  S  S21  1  0.58733200  0.98746772  0.01559205  1
  S  S22  1  0.16932069  0.01543116  0.89693463  1
  S  S23  1  0.82427060  0.02457796  0.09582481  1
  S  S24  1  0.09077738  0.48277714  0.64401115  1
  S  S25  1  0.90934594  0.46885699  0.35633221  1
  S  S26  1  0.74056682  0.94886523  0.30127681  1
  S  S27  1  0.26300476  0.00206279  0.71067120  1
  S  S28  1  0.16449500  0.46820190  0.43865566  1
  S  S29  1  0.82888472  0.48866311  0.54815482  1
  S  S30  1  0.43223849  0.49352950  0.79468554  1
  S  S31  1  0.56165553  0.50872170  0.18391671  1
  S  S32  1  0.91296630  0.50350135  0.98787044  1
  S  S33  1  0.08620014  0.48061848  0.01842388  1
  S  S34  1  0.66635392  0.50301568  0.88843863  1
  S  S35  1  0.32705911  0.52516312  0.09179493  1
  S  S36  1  0.59679721  0.99016262  0.66022235  1
  S  S37  1  0.40608501  0.97912010  0.34959317  1
  S  S38  1  0.24460750  0.44448685  0.30914314  1
  S  S39  1  0.76881228  0.50226095  0.70615536  1
  S  S40  1  0.67034794  0.03075948  0.45380278  1
  S  S41  1  0.32223424  0.97005137  0.54396485  1
