# generated using pymatgen
data_Pr2Mn3(SbS3)4
_symmetry_space_group_name_H-M   'P 1'
_cell_length_a   20.02960800
_cell_length_b   3.90410600
_cell_length_c   14.95364829
_cell_angle_alpha   90.00000000
_cell_angle_beta   126.33350609
_cell_angle_gamma   90.00000000
_symmetry_Int_Tables_number   1
_chemical_formula_structural   Pr2Mn3(SbS3)4
_chemical_formula_sum   'Pr4 Mn6 Sb8 S24'
_cell_volume   942.00006694
_cell_formula_units_Z   2
loop_
 _symmetry_equiv_pos_site_id
 _symmetry_equiv_pos_as_xyz
  1  'x, y, z'
loop_
 _atom_site_type_symbol
 _atom_site_label
 _atom_site_symmetry_multiplicity
 _atom_site_fract_x
 _atom_site_fract_y
 _atom_site_fract_z
 _atom_site_occupancy
  Pr  Pr0  1  0.27695932  0.48302430  0.86852991  1
  Pr  Pr1  1  0.72926664  0.51756021  0.13655048  1
  Pr  Pr2  1  0.77316576  0.01042613  0.88042350  1
  Pr  Pr3  1  0.23318016  0.92410504  0.12918386  1
  Mn  Mn4  1  0.29600369  0.44381516  0.61173729  1
  Mn  Mn5  1  0.69412144  0.52544307  0.35453338  1
  Mn  Mn6  1  0.00247689  0.00504569  0.01546943  1
  Mn  Mn7  1  0.80772003  0.02191999  0.64067868  1
  Mn  Mn8  1  0.20738679  0.06176428  0.39056796  1
  Mn  Mn9  1  0.49273376  0.47725719  0.99080344  1
  Sb  Sb10  1  0.87995018  0.86495669  0.45266831  1
  Sb  Sb11  1  0.10709532  0.99156268  0.54066851  1
  Sb  Sb12  1  0.03697702  0.49726016  0.82385864  1
  Sb  Sb13  1  0.96054858  0.45357825  0.19790071  1
  Sb  Sb14  1  0.40961718  0.56944775  0.46487100  1
  Sb  Sb15  1  0.60389478  0.57410630  0.52968128  1
  Sb  Sb16  1  0.52944128  0.95075055  0.80325514  1
  Sb  Sb17  1  0.46298424  0.00857566  0.18647651  1
  S  S18  1  0.93986732  0.99962761  0.81062220  1
  S  S19  1  0.05486031  0.03204511  0.19473853  1
  S  S20  1  0.41743509  0.01025095  0.98211826  1
  S  S21  1  0.58002968  0.99847218  0.01650838  1
  S  S22  1  0.17691901  0.93761660  0.89444291  1
  S  S23  1  0.81990451  0.04725305  0.09860104  1
  S  S24  1  0.10738664  0.43683836  0.65400601  1
  S  S25  1  0.90212410  0.43143639  0.35064134  1
  S  S26  1  0.72387898  0.03625833  0.30274448  1
  S  S27  1  0.26926979  0.97215456  0.68269533  1
  S  S28  1  0.17082161  0.49622425  0.45438523  1
  S  S29  1  0.81777479  0.53396891  0.55143831  1
  S  S30  1  0.43642666  0.45586883  0.81257865  1
  S  S31  1  0.56399851  0.50126179  0.19472718  1
  S  S32  1  0.91503719  0.54358016  0.99560244  1
  S  S33  1  0.09401197  0.49861743  0.02705912  1
  S  S34  1  0.65683361  0.49966650  0.88011594  1
  S  S35  1  0.32639331  0.44774787  0.09614767  1
  S  S36  1  0.60096495  0.98902739  0.64586146  1
  S  S37  1  0.40309958  0.03870000  0.34445824  1
  S  S38  1  0.24476921  0.51672804  0.32335198  1
  S  S39  1  0.75712245  0.49534041  0.69739846  1
  S  S40  1  0.67449597  0.96166624  0.44882063  1
  S  S41  1  0.33542584  0.96079829  0.54498337  1
