# generated using pymatgen
data_Pr2Mn3(SbS3)4
_symmetry_space_group_name_H-M   'P 1'
_cell_length_a   20.02960800
_cell_length_b   3.90410600
_cell_length_c   14.95364829
_cell_angle_alpha   90.00000000
_cell_angle_beta   126.33350609
_cell_angle_gamma   90.00000000
_symmetry_Int_Tables_number   1
_chemical_formula_structural   Pr2Mn3(SbS3)4
_chemical_formula_sum   'Pr4 Mn6 Sb8 S24'
_cell_volume   942.00006694
_cell_formula_units_Z   2
loop_
 _symmetry_equiv_pos_site_id
 _symmetry_equiv_pos_as_xyz
  1  'x, y, z'
loop_
 _atom_site_type_symbol
 _atom_site_label
 _atom_site_symmetry_multiplicity
 _atom_site_fract_x
 _atom_site_fract_y
 _atom_site_fract_z
 _atom_site_occupancy
  Pr  Pr0  1  0.27700921  0.48280806  0.86855723  1
  Pr  Pr1  1  0.72933049  0.51777601  0.13664864  1
  Pr  Pr2  1  0.77312343  0.01072738  0.88047286  1
  Pr  Pr3  1  0.23317655  0.92450289  0.12927436  1
  Mn  Mn4  1  0.29613495  0.44322570  0.61197592  1
  Mn  Mn5  1  0.69420812  0.52474279  0.35460865  1
  Mn  Mn6  1  0.00238253  0.00407318  0.01536462  1
  Mn  Mn7  1  0.80781047  0.02287641  0.64052880  1
  Mn  Mn8  1  0.20737761  0.06208496  0.39046956  1
  Mn  Mn9  1  0.49294692  0.47721032  0.99100349  1
  Sb  Sb10  1  0.87991959  0.86469643  0.45256981  1
  Sb  Sb11  1  0.10718598  0.99173555  0.54071650  1
  Sb  Sb12  1  0.03699086  0.49746104  0.82399330  1
  Sb  Sb13  1  0.96045820  0.45395920  0.19780066  1
  Sb  Sb14  1  0.40950063  0.57026920  0.46489289  1
  Sb  Sb15  1  0.60382403  0.57442836  0.52972237  1
  Sb  Sb16  1  0.52959666  0.95027180  0.80351523  1
  Sb  Sb17  1  0.46293297  0.00818913  0.18651156  1
  S  S18  1  0.93998629  0.99965615  0.81085580  1
  S  S19  1  0.05472813  0.03255204  0.19460127  1
  S  S20  1  0.41761730  0.00978597  0.98232350  1
  S  S21  1  0.57970123  0.99889867  0.01629235  1
  S  S22  1  0.17682252  0.93809484  0.89470466  1
  S  S23  1  0.81986695  0.04693907  0.09877333  1
  S  S24  1  0.10743182  0.43815866  0.65392795  1
  S  S25  1  0.90182046  0.43088057  0.35031248  1
  S  S26  1  0.72382872  0.03723158  0.30304421  1
  S  S27  1  0.26946755  0.97187422  0.68299128  1
  S  S28  1  0.17095317  0.49676659  0.45451921  1
  S  S29  1  0.81786996  0.53410627  0.55141928  1
  S  S30  1  0.43625780  0.45612985  0.81287329  1
  S  S31  1  0.56384901  0.50129540  0.19452878  1
  S  S32  1  0.91507982  0.54308601  0.99554247  1
  S  S33  1  0.09393902  0.49854438  0.02690175  1
  S  S34  1  0.65688264  0.49860719  0.88018492  1
  S  S35  1  0.32628165  0.44616855  0.09606654  1
  S  S36  1  0.60092571  0.98908859  0.64548062  1
  S  S37  1  0.40299157  0.03992345  0.34422207  1
  S  S38  1  0.24478736  0.51635085  0.32312257  1
  S  S39  1  0.75719638  0.49466029  0.69775314  1
  S  S40  1  0.67430012  0.96107170  0.44897230  1
  S  S41  1  0.33501586  0.96181894  0.54474454  1
