# generated using pymatgen
data_Pr2Mn3(SbS3)4
_symmetry_space_group_name_H-M   'P 1'
_cell_length_a   20.02960800
_cell_length_b   3.90410600
_cell_length_c   14.95364829
_cell_angle_alpha   90.00000000
_cell_angle_beta   126.33350609
_cell_angle_gamma   90.00000000
_symmetry_Int_Tables_number   1
_chemical_formula_structural   Pr2Mn3(SbS3)4
_chemical_formula_sum   'Pr4 Mn6 Sb8 S24'
_cell_volume   942.00006694
_cell_formula_units_Z   2
loop_
 _symmetry_equiv_pos_site_id
 _symmetry_equiv_pos_as_xyz
  1  'x, y, z'
loop_
 _atom_site_type_symbol
 _atom_site_label
 _atom_site_symmetry_multiplicity
 _atom_site_fract_x
 _atom_site_fract_y
 _atom_site_fract_z
 _atom_site_occupancy
  Pr  Pr0  1  0.27701443  0.48292070  0.86852386  1
  Pr  Pr1  1  0.72937210  0.51762046  0.13675049  1
  Pr  Pr2  1  0.77302061  0.01109016  0.88042857  1
  Pr  Pr3  1  0.23314798  0.92485447  0.12930979  1
  Mn  Mn4  1  0.29619234  0.44269906  0.61215013  1
  Mn  Mn5  1  0.69431670  0.52430712  0.35464914  1
  Mn  Mn6  1  0.00231957  0.00346296  0.01532417  1
  Mn  Mn7  1  0.80781606  0.02372077  0.64026479  1
  Mn  Mn8  1  0.20737576  0.06275978  0.39035179  1
  Mn  Mn9  1  0.49321568  0.47698489  0.99126707  1
  Sb  Sb10  1  0.87986248  0.86462684  0.45248700  1
  Sb  Sb11  1  0.10724361  0.99203193  0.54077288  1
  Sb  Sb12  1  0.03701495  0.49767974  0.82413229  1
  Sb  Sb13  1  0.96036632  0.45429146  0.19768697  1
  Sb  Sb14  1  0.40935679  0.57094985  0.46487766  1
  Sb  Sb15  1  0.60369883  0.57433154  0.52977769  1
  Sb  Sb16  1  0.52972255  0.94963460  0.80374664  1
  Sb  Sb17  1  0.46290097  0.00743244  0.18655065  1
  S  S18  1  0.94000794  0.99996286  0.81097256  1
  S  S19  1  0.05462962  0.03299614  0.19454347  1
  S  S20  1  0.41771145  0.00911992  0.98247763  1
  S  S21  1  0.57941090  0.99900715  0.01610651  1
  S  S22  1  0.17678496  0.93798095  0.89506376  1
  S  S23  1  0.81983899  0.04600858  0.09887424  1
  S  S24  1  0.10741723  0.43935775  0.65394845  1
  S  S25  1  0.90161494  0.43019486  0.35002062  1
  S  S26  1  0.72377495  0.03828364  0.30322493  1
  S  S27  1  0.26971385  0.97163461  0.68337386  1
  S  S28  1  0.17112729  0.49720460  0.45472862  1
  S  S29  1  0.81798237  0.53451235  0.55151225  1
  S  S30  1  0.43617701  0.45614054  0.81317017  1
  S  S31  1  0.56370994  0.50106693  0.19432070  1
  S  S32  1  0.91523443  0.54267795  0.99559334  1
  S  S33  1  0.09386603  0.49843954  0.02679422  1
  S  S34  1  0.65698161  0.49724045  0.88023818  1
  S  S35  1  0.32623184  0.44458451  0.09595869  1
  S  S36  1  0.60084997  0.98870842  0.64506092  1
  S  S37  1  0.40281213  0.04114684  0.34388824  1
  S  S38  1  0.24477847  0.51598529  0.32283884  1
  S  S39  1  0.75733255  0.49358095  0.69818737  1
  S  S40  1  0.67410167  0.96094503  0.44900154  1
  S  S41  1  0.33457951  0.96220926  0.54448535  1
