# generated using pymatgen
data_Pr2Mn3(SbS3)4
_symmetry_space_group_name_H-M   'P 1'
_cell_length_a   20.02960800
_cell_length_b   3.90410600
_cell_length_c   14.95364829
_cell_angle_alpha   90.00000000
_cell_angle_beta   126.33350609
_cell_angle_gamma   90.00000000
_symmetry_Int_Tables_number   1
_chemical_formula_structural   Pr2Mn3(SbS3)4
_chemical_formula_sum   'Pr4 Mn6 Sb8 S24'
_cell_volume   942.00006694
_cell_formula_units_Z   2
loop_
 _symmetry_equiv_pos_site_id
 _symmetry_equiv_pos_as_xyz
  1  'x, y, z'
loop_
 _atom_site_type_symbol
 _atom_site_label
 _atom_site_symmetry_multiplicity
 _atom_site_fract_x
 _atom_site_fract_y
 _atom_site_fract_z
 _atom_site_occupancy
  Pr  Pr0  1  0.27701878  0.48318562  0.86853727  1
  Pr  Pr1  1  0.72940505  0.51746684  0.13691555  1
  Pr  Pr2  1  0.77291626  0.01148479  0.88030293  1
  Pr  Pr3  1  0.23309065  0.92490995  0.12931235  1
  Mn  Mn4  1  0.29621414  0.44229048  0.61227938  1
  Mn  Mn5  1  0.69438673  0.52372588  0.35462605  1
  Mn  Mn6  1  0.00222376  0.00308699  0.01522159  1
  Mn  Mn7  1  0.80789778  0.02506176  0.64001399  1
  Mn  Mn8  1  0.20745867  0.06299199  0.39020106  1
  Mn  Mn9  1  0.49352131  0.47624606  0.99152681  1
  Sb  Sb10  1  0.87986304  0.86459038  0.45245669  1
  Sb  Sb11  1  0.10722669  0.99236647  0.54075665  1
  Sb  Sb12  1  0.03711036  0.49762505  0.82435806  1
  Sb  Sb13  1  0.96025607  0.45470740  0.19753814  1
  Sb  Sb14  1  0.40924180  0.57126691  0.46482458  1
  Sb  Sb15  1  0.60356104  0.57427664  0.52982544  1
  Sb  Sb16  1  0.52985571  0.94916371  0.80399016  1
  Sb  Sb17  1  0.46297356  0.00660223  0.18663516  1
  S  S18  1  0.94010759  0.00066556  0.81111298  1
  S  S19  1  0.05444091  0.03294361  0.19437528  1
  S  S20  1  0.41784340  0.00889172  0.98258836  1
  S  S21  1  0.57906906  0.99901344  0.01586003  1
  S  S22  1  0.17678112  0.93834859  0.89539813  1
  S  S23  1  0.81971372  0.04520645  0.09890357  1
  S  S24  1  0.10740566  0.44046863  0.65406343  1
  S  S25  1  0.90152818  0.42944697  0.34987415  1
  S  S26  1  0.72362396  0.03956483  0.30336959  1
  S  S27  1  0.27012733  0.97112662  0.68380280  1
  S  S28  1  0.17119208  0.49748471  0.45491065  1
  S  S29  1  0.81804742  0.53493771  0.55146941  1
  S  S30  1  0.43608549  0.45638893  0.81333226  1
  S  S31  1  0.56359559  0.50083139  0.19422670  1
  S  S32  1  0.91529313  0.54212077  0.99548511  1
  S  S33  1  0.09374682  0.49826812  0.02671773  1
  S  S34  1  0.65705629  0.49568436  0.88028161  1
  S  S35  1  0.32616130  0.44308728  0.09586481  1
  S  S36  1  0.60070292  0.98844312  0.64458892  1
  S  S37  1  0.40265843  0.04173411  0.34360789  1
  S  S38  1  0.24493544  0.51547335  0.32263784  1
  S  S39  1  0.75752850  0.49278212  0.69862901  1
  S  S40  1  0.67391637  0.96093243  0.44907920  1
  S  S41  1  0.33416486  0.96276876  0.54425358  1
