# generated using pymatgen
data_Pr2Mn3(SbS3)4
_symmetry_space_group_name_H-M   'P 1'
_cell_length_a   20.02960800
_cell_length_b   3.90410600
_cell_length_c   14.95364829
_cell_angle_alpha   90.00000000
_cell_angle_beta   126.33350609
_cell_angle_gamma   90.00000000
_symmetry_Int_Tables_number   1
_chemical_formula_structural   Pr2Mn3(SbS3)4
_chemical_formula_sum   'Pr4 Mn6 Sb8 S24'
_cell_volume   942.00006694
_cell_formula_units_Z   2
loop_
 _symmetry_equiv_pos_site_id
 _symmetry_equiv_pos_as_xyz
  1  'x, y, z'
loop_
 _atom_site_type_symbol
 _atom_site_label
 _atom_site_symmetry_multiplicity
 _atom_site_fract_x
 _atom_site_fract_y
 _atom_site_fract_z
 _atom_site_occupancy
  Pr  Pr0  1  0.27699722  0.48359240  0.86851483  1
  Pr  Pr1  1  0.72941077  0.51715478  0.13702406  1
  Pr  Pr2  1  0.77277845  0.01198405  0.88014961  1
  Pr  Pr3  1  0.23301097  0.92517248  0.12925600  1
  Mn  Mn4  1  0.29621167  0.44161517  0.61236719  1
  Mn  Mn5  1  0.69442842  0.52299051  0.35456362  1
  Mn  Mn6  1  0.00205387  0.00277767  0.01520594  1
  Mn  Mn7  1  0.80792184  0.02609931  0.63985647  1
  Mn  Mn8  1  0.20754554  0.06269857  0.39003370  1
  Mn  Mn9  1  0.49374091  0.47561842  0.99165640  1
  Sb  Sb10  1  0.87983244  0.86457276  0.45240602  1
  Sb  Sb11  1  0.10718328  0.99305894  0.54080421  1
  Sb  Sb12  1  0.03725379  0.49778635  0.82463683  1
  Sb  Sb13  1  0.96017090  0.45502472  0.19738107  1
  Sb  Sb14  1  0.40914122  0.57145986  0.46477437  1
  Sb  Sb15  1  0.60350000  0.57437484  0.52998053  1
  Sb  Sb16  1  0.52990625  0.94875139  0.80425843  1
  Sb  Sb17  1  0.46300006  0.00600643  0.18669954  1
  S  S18  1  0.94015790  0.00112580  0.81111408  1
  S  S19  1  0.05431418  0.03308097  0.19419719  1
  S  S20  1  0.41798674  0.00879785  0.98273604  1
  S  S21  1  0.57882366  0.99851650  0.01562479  1
  S  S22  1  0.17677005  0.93893922  0.89561076  1
  S  S23  1  0.81953921  0.04481128  0.09890101  1
  S  S24  1  0.10732200  0.44172865  0.65420156  1
  S  S25  1  0.90155370  0.42812011  0.34972771  1
  S  S26  1  0.72356977  0.04038631  0.30361116  1
  S  S27  1  0.27047184  0.97038424  0.68424132  1
  S  S28  1  0.17122755  0.49772947  0.45504602  1
  S  S29  1  0.81801351  0.53553277  0.55124914  1
  S  S30  1  0.43609880  0.45653805  0.81341245  1
  S  S31  1  0.56346507  0.50077826  0.19419707  1
  S  S32  1  0.91519882  0.54170737  0.99536394  1
  S  S33  1  0.09365091  0.49816770  0.02670783  1
  S  S34  1  0.65714735  0.49439908  0.88040634  1
  S  S35  1  0.32609672  0.44164157  0.09581624  1
  S  S36  1  0.60047600  0.98850532  0.64410294  1
  S  S37  1  0.40252655  0.04249586  0.34334490  1
  S  S38  1  0.24503884  0.51485001  0.32238569  1
  S  S39  1  0.75768570  0.49209087  0.69910745  1
  S  S40  1  0.67365105  0.96063412  0.44918533  1
  S  S41  1  0.33374831  0.96311791  0.54389345  1
