# generated using pymatgen
data_Pr2Mn3(SbS3)4
_symmetry_space_group_name_H-M   'P 1'
_cell_length_a   20.02960800
_cell_length_b   3.90410600
_cell_length_c   14.95364829
_cell_angle_alpha   90.00000000
_cell_angle_beta   126.33350609
_cell_angle_gamma   90.00000000
_symmetry_Int_Tables_number   1
_chemical_formula_structural   Pr2Mn3(SbS3)4
_chemical_formula_sum   'Pr4 Mn6 Sb8 S24'
_cell_volume   942.00006694
_cell_formula_units_Z   2
loop_
 _symmetry_equiv_pos_site_id
 _symmetry_equiv_pos_as_xyz
  1  'x, y, z'
loop_
 _atom_site_type_symbol
 _atom_site_label
 _atom_site_symmetry_multiplicity
 _atom_site_fract_x
 _atom_site_fract_y
 _atom_site_fract_z
 _atom_site_occupancy
  Pr  Pr0  1  0.27694810  0.48395702  0.86848254  1
  Pr  Pr1  1  0.72936773  0.51683904  0.13715453  1
  Pr  Pr2  1  0.77266301  0.01246813  0.88004842  1
  Pr  Pr3  1  0.23296351  0.92558957  0.12922311  1
  Mn  Mn4  1  0.29621686  0.44130857  0.61248465  1
  Mn  Mn5  1  0.69452125  0.52269829  0.35461559  1
  Mn  Mn6  1  0.00194402  0.00244038  0.01530690  1
  Mn  Mn7  1  0.80789313  0.02729271  0.63961267  1
  Mn  Mn8  1  0.20763846  0.06285442  0.38984171  1
  Mn  Mn9  1  0.49397815  0.47499917  0.99177144  1
  Sb  Sb10  1  0.87980783  0.86462618  0.45239206  1
  Sb  Sb11  1  0.10709697  0.99396067  0.54085493  1
  Sb  Sb12  1  0.03735568  0.49809310  0.82484976  1
  Sb  Sb13  1  0.96011201  0.45536171  0.19721085  1
  Sb  Sb14  1  0.40907380  0.57152513  0.46473864  1
  Sb  Sb15  1  0.60345929  0.57437990  0.53014100  1
  Sb  Sb16  1  0.52994162  0.94831837  0.80449897  1
  Sb  Sb17  1  0.46292377  0.00536778  0.18661002  1
  S  S18  1  0.94012761  0.00164871  0.81109484  1
  S  S19  1  0.05425082  0.03327207  0.19411108  1
  S  S20  1  0.41812676  0.00883739  0.98285458  1
  S  S21  1  0.57857278  0.99785346  0.01543405  1
  S  S22  1  0.17675085  0.93945861  0.89569315  1
  S  S23  1  0.81939756  0.04447278  0.09893518  1
  S  S24  1  0.10722241  0.44273256  0.65434307  1
  S  S25  1  0.90151132  0.42775457  0.34950514  1
  S  S26  1  0.72362956  0.04115421  0.30389609  1
  S  S27  1  0.27082987  0.96989017  0.68459959  1
  S  S28  1  0.17120053  0.49856775  0.45510269  1
  S  S29  1  0.81798356  0.53668953  0.55135656  1
  S  S30  1  0.43616967  0.45706947  0.81346179  1
  S  S31  1  0.56344533  0.50090734  0.19425090  1
  S  S32  1  0.91530424  0.54164912  0.99550796  1
  S  S33  1  0.09371174  0.49811992  0.02688008  1
  S  S34  1  0.65731288  0.49316287  0.88060409  1
  S  S35  1  0.32597307  0.44103636  0.09581692  1
  S  S36  1  0.60031788  0.98895878  0.64357378  1
  S  S37  1  0.40241434  0.04312163  0.34330973  1
  S  S38  1  0.24517826  0.51417548  0.32220872  1
  S  S39  1  0.75778795  0.49181895  0.69956386  1
  S  S40  1  0.67344033  0.96003015  0.44924029  1
  S  S41  1  0.33331370  0.96294853  0.54360618  1
