# generated using pymatgen
data_Pr2Mn3(SbS3)4
_symmetry_space_group_name_H-M   'P 1'
_cell_length_a   20.02960800
_cell_length_b   3.90410600
_cell_length_c   14.95364829
_cell_angle_alpha   90.00000000
_cell_angle_beta   126.33350609
_cell_angle_gamma   90.00000000
_symmetry_Int_Tables_number   1
_chemical_formula_structural   Pr2Mn3(SbS3)4
_chemical_formula_sum   'Pr4 Mn6 Sb8 S24'
_cell_volume   942.00006694
_cell_formula_units_Z   2
loop_
 _symmetry_equiv_pos_site_id
 _symmetry_equiv_pos_as_xyz
  1  'x, y, z'
loop_
 _atom_site_type_symbol
 _atom_site_label
 _atom_site_symmetry_multiplicity
 _atom_site_fract_x
 _atom_site_fract_y
 _atom_site_fract_z
 _atom_site_occupancy
  Pr  Pr0  1  0.27691854  0.48405902  0.86843827  1
  Pr  Pr1  1  0.72928414  0.51657850  0.13722026  1
  Pr  Pr2  1  0.77260341  0.01269893  0.87998418  1
  Pr  Pr3  1  0.23290706  0.92598655  0.12917764  1
  Mn  Mn4  1  0.29623624  0.44056366  0.61253472  1
  Mn  Mn5  1  0.69467021  0.52235150  0.35474920  1
  Mn  Mn6  1  0.00188371  0.00189720  0.01534896  1
  Mn  Mn7  1  0.80776683  0.02824363  0.63920716  1
  Mn  Mn8  1  0.20768962  0.06255118  0.38966661  1
  Mn  Mn9  1  0.49422895  0.47430850  0.99195382  1
  Sb  Sb10  1  0.87982524  0.86453456  0.45234866  1
  Sb  Sb11  1  0.10699805  0.99487965  0.54080301  1
  Sb  Sb12  1  0.03746944  0.49860460  0.82507773  1
  Sb  Sb13  1  0.96012060  0.45581675  0.19714681  1
  Sb  Sb14  1  0.40900180  0.57167717  0.46479318  1
  Sb  Sb15  1  0.60342888  0.57424302  0.53037682  1
  Sb  Sb16  1  0.53000809  0.94791611  0.80475304  1
  Sb  Sb17  1  0.46281826  0.00475126  0.18639403  1
  S  S18  1  0.94017949  0.00172303  0.81123359  1
  S  S19  1  0.05419268  0.03326336  0.19400054  1
  S  S20  1  0.41824727  0.00841097  0.98295723  1
  S  S21  1  0.57845298  0.99737574  0.01539163  1
  S  S22  1  0.17674836  0.93963997  0.89584217  1
  S  S23  1  0.81929030  0.04368918  0.09902572  1
  S  S24  1  0.10712967  0.44387660  0.65450206  1
  S  S25  1  0.90156165  0.42706635  0.34924918  1
  S  S26  1  0.72368398  0.04195981  0.30409984  1
  S  S27  1  0.27098467  0.96942622  0.68488776  1
  S  S28  1  0.17108651  0.49952999  0.45506764  1
  S  S29  1  0.81795058  0.53809908  0.55145597  1
  S  S30  1  0.43619028  0.45732541  0.81350419  1
  S  S31  1  0.56346321  0.50110228  0.19432630  1
  S  S32  1  0.91533039  0.54171377  0.99550128  1
  S  S33  1  0.09367948  0.49820003  0.02686605  1
  S  S34  1  0.65738776  0.49172666  0.88074421  1
  S  S35  1  0.32592731  0.44001916  0.09586341  1
  S  S36  1  0.60019152  0.98929090  0.64308542  1
  S  S37  1  0.40234878  0.04367285  0.34340976  1
  S  S38  1  0.24527736  0.51323480  0.32201887  1
  S  S39  1  0.75778889  0.49178223  0.69995517  1
  S  S40  1  0.67326465  0.96022933  0.44925176  1
  S  S41  1  0.33306708  0.96265118  0.54345852  1
