# generated using pymatgen
data_Pr2Mn3(SbS3)4
_symmetry_space_group_name_H-M   'P 1'
_cell_length_a   20.02960800
_cell_length_b   3.90410600
_cell_length_c   14.95364829
_cell_angle_alpha   90.00000000
_cell_angle_beta   126.33350609
_cell_angle_gamma   90.00000000
_symmetry_Int_Tables_number   1
_chemical_formula_structural   Pr2Mn3(SbS3)4
_chemical_formula_sum   'Pr4 Mn6 Sb8 S24'
_cell_volume   942.00006694
_cell_formula_units_Z   2
loop_
 _symmetry_equiv_pos_site_id
 _symmetry_equiv_pos_as_xyz
  1  'x, y, z'
loop_
 _atom_site_type_symbol
 _atom_site_label
 _atom_site_symmetry_multiplicity
 _atom_site_fract_x
 _atom_site_fract_y
 _atom_site_fract_z
 _atom_site_occupancy
  Pr  Pr0  1  0.27684399  0.48410118  0.86837754  1
  Pr  Pr1  1  0.72924599  0.51632357  0.13734991  1
  Pr  Pr2  1  0.77255125  0.01300186  0.87984492  1
  Pr  Pr3  1  0.23289479  0.92621321  0.12920992  1
  Mn  Mn4  1  0.29633938  0.44007034  0.61275830  1
  Mn  Mn5  1  0.69481768  0.52188195  0.35488162  1
  Mn  Mn6  1  0.00182711  0.00138601  0.01536580  1
  Mn  Mn7  1  0.80755869  0.02945453  0.63878949  1
  Mn  Mn8  1  0.20771020  0.06236924  0.38942274  1
  Mn  Mn9  1  0.49437925  0.47321404  0.99219199  1
  Sb  Sb10  1  0.87988860  0.86447129  0.45234840  1
  Sb  Sb11  1  0.10688643  0.99556293  0.54068264  1
  Sb  Sb12  1  0.03756276  0.49886944  0.82531230  1
  Sb  Sb13  1  0.96015760  0.45623483  0.19710523  1
  Sb  Sb14  1  0.40895045  0.57138577  0.46480546  1
  Sb  Sb15  1  0.60336613  0.57392186  0.53055122  1
  Sb  Sb16  1  0.52996212  0.94747531  0.80490412  1
  Sb  Sb17  1  0.46270085  0.00426763  0.18617780  1
  S  S18  1  0.94020110  0.00212487  0.81136144  1
  S  S19  1  0.05426046  0.03285960  0.19396556  1
  S  S20  1  0.41850009  0.00775396  0.98322612  1
  S  S21  1  0.57826528  0.99743926  0.01532252  1
  S  S22  1  0.17671943  0.93970629  0.89584782  1
  S  S23  1  0.81917834  0.04281792  0.09911099  1
  S  S24  1  0.10704769  0.44489183  0.65470589  1
  S  S25  1  0.90153685  0.42626105  0.34889582  1
  S  S26  1  0.72373855  0.04262954  0.30424627  1
  S  S27  1  0.27116885  0.96943063  0.68518578  1
  S  S28  1  0.17093923  0.50039783  0.45498678  1
  S  S29  1  0.81798202  0.53955124  0.55154846  1
  S  S30  1  0.43620561  0.45762688  0.81363255  1
  S  S31  1  0.56352825  0.50102248  0.19444197  1
  S  S32  1  0.91534218  0.54143688  0.99554059  1
  S  S33  1  0.09361211  0.49822689  0.02675907  1
  S  S34  1  0.65735971  0.49078235  0.88078638  1
  S  S35  1  0.32574106  0.43848739  0.09582246  1
  S  S36  1  0.60005192  0.99002055  0.64258145  1
  S  S37  1  0.40233194  0.04429589  0.34345573  1
  S  S38  1  0.24534891  0.51210266  0.32194274  1
  S  S39  1  0.75773813  0.49158216  0.70016104  1
  S  S40  1  0.67326284  0.96084552  0.44934360  1
  S  S41  1  0.33280414  0.96304993  0.54347567  1
