# generated using pymatgen
data_Pr2Mn3(SbS3)4
_symmetry_space_group_name_H-M   'P 1'
_cell_length_a   20.02960800
_cell_length_b   3.90410600
_cell_length_c   14.95364829
_cell_angle_alpha   90.00000000
_cell_angle_beta   126.33350609
_cell_angle_gamma   90.00000000
_symmetry_Int_Tables_number   1
_chemical_formula_structural   Pr2Mn3(SbS3)4
_chemical_formula_sum   'Pr4 Mn6 Sb8 S24'
_cell_volume   942.00006694
_cell_formula_units_Z   2
loop_
 _symmetry_equiv_pos_site_id
 _symmetry_equiv_pos_as_xyz
  1  'x, y, z'
loop_
 _atom_site_type_symbol
 _atom_site_label
 _atom_site_symmetry_multiplicity
 _atom_site_fract_x
 _atom_site_fract_y
 _atom_site_fract_z
 _atom_site_occupancy
  Pr  Pr0  1  0.27674905  0.48429062  0.86826766  1
  Pr  Pr1  1  0.72918690  0.51591177  0.13737575  1
  Pr  Pr2  1  0.77242986  0.01331557  0.87973106  1
  Pr  Pr3  1  0.23288960  0.92633430  0.12920444  1
  Mn  Mn4  1  0.29638333  0.43917543  0.61282987  1
  Mn  Mn5  1  0.69497904  0.52196845  0.35501279  1
  Mn  Mn6  1  0.00177658  0.00123871  0.01542464  1
  Mn  Mn7  1  0.80737645  0.03031085  0.63824827  1
  Mn  Mn8  1  0.20772333  0.06231089  0.38934450  1
  Mn  Mn9  1  0.49454792  0.47209421  0.99251851  1
  Sb  Sb10  1  0.87995411  0.86485938  0.45237543  1
  Sb  Sb11  1  0.10669800  0.99621310  0.54045477  1
  Sb  Sb12  1  0.03767766  0.49923024  0.82551127  1
  Sb  Sb13  1  0.96018966  0.45682522  0.19702104  1
  Sb  Sb14  1  0.40887713  0.57089858  0.46485151  1
  Sb  Sb15  1  0.60328524  0.57362590  0.53065570  1
  Sb  Sb16  1  0.52987642  0.94712001  0.80499990  1
  Sb  Sb17  1  0.46258498  0.00365586  0.18596682  1
  S  S18  1  0.94017368  0.00262097  0.81149704  1
  S  S19  1  0.05431054  0.03242475  0.19390282  1
  S  S20  1  0.41877345  0.00733433  0.98353183  1
  S  S21  1  0.57818039  0.99743120  0.01529956  1
  S  S22  1  0.17681354  0.93945933  0.89599884  1
  S  S23  1  0.81897876  0.04189859  0.09918672  1
  S  S24  1  0.10686364  0.44564644  0.65475683  1
  S  S25  1  0.90140019  0.42503849  0.34847938  1
  S  S26  1  0.72385156  0.04273086  0.30434593  1
  S  S27  1  0.27132301  0.96954377  0.68552908  1
  S  S28  1  0.17088161  0.50113818  0.45491606  1
  S  S29  1  0.81804364  0.54086090  0.55172226  1
  S  S30  1  0.43622312  0.45744766  0.81360363  1
  S  S31  1  0.56356352  0.50092237  0.19456709  1
  S  S32  1  0.91530761  0.54174322  0.99560921  1
  S  S33  1  0.09347867  0.49821255  0.02671805  1
  S  S34  1  0.65727558  0.48990621  0.88069098  1
  S  S35  1  0.32552691  0.43676554  0.09601236  1
  S  S36  1  0.59987810  0.99094877  0.64206214  1
  S  S37  1  0.40234364  0.04528871  0.34360215  1
  S  S38  1  0.24548246  0.51092007  0.32202328  1
  S  S39  1  0.75778475  0.49129235  0.70052095  1
  S  S40  1  0.67317630  0.96116694  0.44945784  1
  S  S41  1  0.33267703  0.96322688  0.54374212  1
