# generated using pymatgen
data_Pr2Mn3(SbS3)4
_symmetry_space_group_name_H-M   'P 1'
_cell_length_a   20.02960800
_cell_length_b   3.90410600
_cell_length_c   14.95364829
_cell_angle_alpha   90.00000000
_cell_angle_beta   126.33350609
_cell_angle_gamma   90.00000000
_symmetry_Int_Tables_number   1
_chemical_formula_structural   Pr2Mn3(SbS3)4
_chemical_formula_sum   'Pr4 Mn6 Sb8 S24'
_cell_volume   942.00006694
_cell_formula_units_Z   2
loop_
 _symmetry_equiv_pos_site_id
 _symmetry_equiv_pos_as_xyz
  1  'x, y, z'
loop_
 _atom_site_type_symbol
 _atom_site_label
 _atom_site_symmetry_multiplicity
 _atom_site_fract_x
 _atom_site_fract_y
 _atom_site_fract_z
 _atom_site_occupancy
  Pr  Pr0  1  0.27666914  0.48432344  0.86815278  1
  Pr  Pr1  1  0.72913195  0.51565214  0.13733415  1
  Pr  Pr2  1  0.77230805  0.01356817  0.87966936  1
  Pr  Pr3  1  0.23292600  0.92641666  0.12923377  1
  Mn  Mn4  1  0.29641507  0.43851823  0.61288834  1
  Mn  Mn5  1  0.69517476  0.52218514  0.35511466  1
  Mn  Mn6  1  0.00176289  0.00109499  0.01550633  1
  Mn  Mn7  1  0.80725130  0.03142330  0.63790610  1
  Mn  Mn8  1  0.20783005  0.06193847  0.38941683  1
  Mn  Mn9  1  0.49462810  0.47111483  0.99275636  1
  Sb  Sb10  1  0.88000311  0.86507201  0.45234247  1
  Sb  Sb11  1  0.10656011  0.99687011  0.54034566  1
  Sb  Sb12  1  0.03773651  0.49958758  0.82564360  1
  Sb  Sb13  1  0.96014269  0.45736954  0.19686705  1
  Sb  Sb14  1  0.40876284  0.57053320  0.46496900  1
  Sb  Sb15  1  0.60327170  0.57331245  0.53076231  1
  Sb  Sb16  1  0.52978844  0.94695986  0.80506129  1
  Sb  Sb17  1  0.46250359  0.00298482  0.18575157  1
  S  S18  1  0.93993454  0.00341375  0.81150529  1
  S  S19  1  0.05433912  0.03199162  0.19395023  1
  S  S20  1  0.41912917  0.00715504  0.98394013  1
  S  S21  1  0.57805666  0.99738283  0.01519771  1
  S  S22  1  0.17692110  0.93934404  0.89608649  1
  S  S23  1  0.81875395  0.04075988  0.09921294  1
  S  S24  1  0.10665384  0.44639432  0.65476012  1
  S  S25  1  0.90124743  0.42428664  0.34813473  1
  S  S26  1  0.72383125  0.04245949  0.30429793  1
  S  S27  1  0.27140116  0.96912841  0.68586671  1
  S  S28  1  0.17089728  0.50214704  0.45500074  1
  S  S29  1  0.81804597  0.54208980  0.55176053  1
  S  S30  1  0.43633376  0.45692505  0.81372217  1
  S  S31  1  0.56374042  0.50062062  0.19495594  1
  S  S32  1  0.91525104  0.54215484  0.99552223  1
  S  S33  1  0.09334908  0.49811088  0.02665357  1
  S  S34  1  0.65712931  0.48866396  0.88032545  1
  S  S35  1  0.32530457  0.43511656  0.09622860  1
  S  S36  1  0.59960331  0.99227030  0.64154566  1
  S  S37  1  0.40235183  0.04624007  0.34369587  1
  S  S38  1  0.24561859  0.50956194  0.32213150  1
  S  S39  1  0.75794187  0.49097682  0.70085621  1
  S  S40  1  0.67320128  0.96175790  0.44966747  1
  S  S41  1  0.33252703  0.96367795  0.54386955  1
