# generated using pymatgen
data_Pr2Mn3(SbS3)4
_symmetry_space_group_name_H-M   'P 1'
_cell_length_a   20.02960800
_cell_length_b   3.90410600
_cell_length_c   14.95364829
_cell_angle_alpha   90.00000000
_cell_angle_beta   126.33350609
_cell_angle_gamma   90.00000000
_symmetry_Int_Tables_number   1
_chemical_formula_structural   Pr2Mn3(SbS3)4
_chemical_formula_sum   'Pr4 Mn6 Sb8 S24'
_cell_volume   942.00006694
_cell_formula_units_Z   2
loop_
 _symmetry_equiv_pos_site_id
 _symmetry_equiv_pos_as_xyz
  1  'x, y, z'
loop_
 _atom_site_type_symbol
 _atom_site_label
 _atom_site_symmetry_multiplicity
 _atom_site_fract_x
 _atom_site_fract_y
 _atom_site_fract_z
 _atom_site_occupancy
  Pr  Pr0  1  0.26555685  0.47545695  0.86522568  1
  Pr  Pr1  1  0.73555213  0.51912584  0.13579998  1
  Pr  Pr2  1  0.76529445  0.01334285  0.86537136  1
  Pr  Pr3  1  0.23843922  0.00757201  0.13828572  1
  Mn  Mn4  1  0.29335487  0.47989629  0.60121222  1
  Mn  Mn5  1  0.69104393  0.50656392  0.38000795  1
  Mn  Mn6  1  0.01041176  0.00169923  0.01669200  1
  Mn  Mn7  1  0.80428521  0.01488913  0.61382927  1
  Mn  Mn8  1  0.19747394  0.97539054  0.37902063  1
  Mn  Mn9  1  0.49403038  0.45988153  0.98968342  1
  Sb  Sb10  1  0.89031616  0.98297179  0.45015017  1
  Sb  Sb11  1  0.11250649  0.97583746  0.54880670  1
  Sb  Sb12  1  0.03911596  0.51869829  0.81886518  1
  Sb  Sb13  1  0.96608292  0.50767739  0.18691597  1
  Sb  Sb14  1  0.39643241  0.51299651  0.45502311  1
  Sb  Sb15  1  0.60590680  0.47584799  0.54731220  1
  Sb  Sb16  1  0.53478558  0.00767668  0.81058119  1
  Sb  Sb17  1  0.45999919  0.01615290  0.18087920  1
  S  S18  1  0.93331143  0.98814734  0.80065426  1
  S  S19  1  0.06675369  0.98950708  0.19170059  1
  S  S20  1  0.40830944  0.98361179  0.98248715  1
  S  S21  1  0.58711250  0.98643193  0.01535933  1
  S  S22  1  0.16920267  0.01587441  0.89686921  1
  S  S23  1  0.82433730  0.02580419  0.09569452  1
  S  S24  1  0.09095283  0.48191573  0.64403626  1
  S  S25  1  0.90950693  0.46878148  0.35643972  1
  S  S26  1  0.74051099  0.94839643  0.30155963  1
  S  S27  1  0.26320157  0.00268922  0.71105104  1
  S  S28  1  0.16422740  0.46835966  0.43833876  1
  S  S29  1  0.82882358  0.48695572  0.54817525  1
  S  S30  1  0.43215647  0.49349428  0.79484379  1
  S  S31  1  0.56141903  0.50792122  0.18405881  1
  S  S32  1  0.91288234  0.50348169  0.98780078  1
  S  S33  1  0.08642202  0.47913519  0.01854788  1
  S  S34  1  0.66632095  0.50312876  0.88837038  1
  S  S35  1  0.32704006  0.52649267  0.09182657  1
  S  S36  1  0.59675943  0.98960413  0.65989315  1
  S  S37  1  0.40613360  0.98005061  0.34985049  1
  S  S38  1  0.24417985  0.44436153  0.30886002  1
  S  S39  1  0.76854384  0.50224905  0.70605719  1
  S  S40  1  0.67043609  0.03054562  0.45434768  1
  S  S41  1  0.32204363  0.97105150  0.54385877  1
