# generated using pymatgen
data_Pr2Mn3(SbS3)4
_symmetry_space_group_name_H-M   'P 1'
_cell_length_a   20.02960800
_cell_length_b   3.90410600
_cell_length_c   14.95364829
_cell_angle_alpha   90.00000000
_cell_angle_beta   126.33350609
_cell_angle_gamma   90.00000000
_symmetry_Int_Tables_number   1
_chemical_formula_structural   Pr2Mn3(SbS3)4
_chemical_formula_sum   'Pr4 Mn6 Sb8 S24'
_cell_volume   942.00006694
_cell_formula_units_Z   2
loop_
 _symmetry_equiv_pos_site_id
 _symmetry_equiv_pos_as_xyz
  1  'x, y, z'
loop_
 _atom_site_type_symbol
 _atom_site_label
 _atom_site_symmetry_multiplicity
 _atom_site_fract_x
 _atom_site_fract_y
 _atom_site_fract_z
 _atom_site_occupancy
  Pr  Pr0  1  0.27661086  0.48420237  0.86810139  1
  Pr  Pr1  1  0.72911944  0.51555766  0.13733475  1
  Pr  Pr2  1  0.77215645  0.01391015  0.87956733  1
  Pr  Pr3  1  0.23293902  0.92685497  0.12922521  1
  Mn  Mn4  1  0.29647440  0.43751655  0.61298231  1
  Mn  Mn5  1  0.69541907  0.52217412  0.35516980  1
  Mn  Mn6  1  0.00170418  0.00066055  0.01557000  1
  Mn  Mn7  1  0.80714337  0.03225408  0.63766564  1
  Mn  Mn8  1  0.20800514  0.06182053  0.38949279  1
  Mn  Mn9  1  0.49471931  0.47032040  0.99304196  1
  Sb  Sb10  1  0.88005879  0.86519914  0.45235273  1
  Sb  Sb11  1  0.10643548  0.99725217  0.54026249  1
  Sb  Sb12  1  0.03775838  0.50006313  0.82572123  1
  Sb  Sb13  1  0.96011517  0.45784930  0.19678217  1
  Sb  Sb14  1  0.40863542  0.57027527  0.46506664  1
  Sb  Sb15  1  0.60324570  0.57297867  0.53081675  1
  Sb  Sb16  1  0.52966856  0.94698461  0.80509393  1
  Sb  Sb17  1  0.46246322  0.00244077  0.18558306  1
  S  S18  1  0.93972495  0.00434950  0.81144770  1
  S  S19  1  0.05431413  0.03156680  0.19392085  1
  S  S20  1  0.41934116  0.00689909  0.98417479  1
  S  S21  1  0.57794649  0.99753423  0.01504403  1
  S  S22  1  0.17695852  0.93922499  0.89609965  1
  S  S23  1  0.81845152  0.03966143  0.09916782  1
  S  S24  1  0.10648767  0.44688868  0.65472023  1
  S  S25  1  0.90095632  0.42388646  0.34776713  1
  S  S26  1  0.72388317  0.04209139  0.30423214  1
  S  S27  1  0.27154544  0.96856400  0.68620674  1
  S  S28  1  0.17088677  0.50292459  0.45515626  1
  S  S29  1  0.81796783  0.54296229  0.55198208  1
  S  S30  1  0.43637859  0.45658296  0.81372861  1
  S  S31  1  0.56380621  0.50039634  0.19519177  1
  S  S32  1  0.91512305  0.54258307  0.99519443  1
  S  S33  1  0.09321491  0.49821835  0.02647169  1
  S  S34  1  0.65701416  0.48758711  0.87997526  1
  S  S35  1  0.32514255  0.43363595  0.09654906  1
  S  S36  1  0.59937294  0.99342038  0.64125861  1
  S  S37  1  0.40233272  0.04718185  0.34378920  1
  S  S38  1  0.24579507  0.50827945  0.32219241  1
  S  S39  1  0.75808021  0.49065991  0.70113368  1
  S  S40  1  0.67322251  0.96235849  0.44970665  1
  S  S41  1  0.33235831  0.96405466  0.54399535  1
