# generated using pymatgen
data_Pr2Mn3(SbS3)4
_symmetry_space_group_name_H-M   'P 1'
_cell_length_a   20.02960800
_cell_length_b   3.90410600
_cell_length_c   14.95364829
_cell_angle_alpha   90.00000000
_cell_angle_beta   126.33350609
_cell_angle_gamma   90.00000000
_symmetry_Int_Tables_number   1
_chemical_formula_structural   Pr2Mn3(SbS3)4
_chemical_formula_sum   'Pr4 Mn6 Sb8 S24'
_cell_volume   942.00006694
_cell_formula_units_Z   2
loop_
 _symmetry_equiv_pos_site_id
 _symmetry_equiv_pos_as_xyz
  1  'x, y, z'
loop_
 _atom_site_type_symbol
 _atom_site_label
 _atom_site_symmetry_multiplicity
 _atom_site_fract_x
 _atom_site_fract_y
 _atom_site_fract_z
 _atom_site_occupancy
  Pr  Pr0  1  0.27657848  0.48404806  0.86806885  1
  Pr  Pr1  1  0.72911680  0.51513222  0.13733193  1
  Pr  Pr2  1  0.77198639  0.01431265  0.87941774  1
  Pr  Pr3  1  0.23294447  0.92707558  0.12925150  1
  Mn  Mn4  1  0.29654602  0.43620184  0.61313404  1
  Mn  Mn5  1  0.69565647  0.52187290  0.35525950  1
  Mn  Mn6  1  0.00165803  0.00052012  0.01564504  1
  Mn  Mn7  1  0.80713188  0.03308646  0.63745759  1
  Mn  Mn8  1  0.20818317  0.06158947  0.38964976  1
  Mn  Mn9  1  0.49474949  0.46944644  0.99323460  1
  Sb  Sb10  1  0.88012657  0.86542549  0.45237334  1
  Sb  Sb11  1  0.10632893  0.99755658  0.54022345  1
  Sb  Sb12  1  0.03778251  0.50038985  0.82571448  1
  Sb  Sb13  1  0.95999253  0.45846622  0.19658488  1
  Sb  Sb14  1  0.40856357  0.57003106  0.46515539  1
  Sb  Sb15  1  0.60318269  0.57261419  0.53076323  1
  Sb  Sb16  1  0.52957297  0.94672603  0.80508200  1
  Sb  Sb17  1  0.46241730  0.00173419  0.18548923  1
  S  S18  1  0.93966643  0.00501066  0.81145770  1
  S  S19  1  0.05429280  0.03138192  0.19381432  1
  S  S20  1  0.41952726  0.00660309  0.98431122  1
  S  S21  1  0.57773346  0.99720068  0.01467359  1
  S  S22  1  0.17686137  0.93888711  0.89604457  1
  S  S23  1  0.81822604  0.03888871  0.09908539  1
  S  S24  1  0.10632983  0.44814414  0.65477653  1
  S  S25  1  0.90055057  0.42341618  0.34736245  1
  S  S26  1  0.72398911  0.04144694  0.30427179  1
  S  S27  1  0.27158948  0.96826543  0.68652919  1
  S  S28  1  0.17100356  0.50360917  0.45528207  1
  S  S29  1  0.81802166  0.54389201  0.55230158  1
  S  S30  1  0.43653841  0.45567752  0.81376112  1
  S  S31  1  0.56399120  0.50006883  0.19554989  1
  S  S32  1  0.91507249  0.54314730  0.99493237  1
  S  S33  1  0.09310619  0.49804525  0.02636719  1
  S  S34  1  0.65698768  0.48659527  0.87964903  1
  S  S35  1  0.32494565  0.43221441  0.09664012  1
  S  S36  1  0.59906966  0.99473930  0.64094409  1
  S  S37  1  0.40235902  0.04774105  0.34381740  1
  S  S38  1  0.24592919  0.50715356  0.32219028  1
  S  S39  1  0.75817110  0.49046772  0.70137109  1
  S  S40  1  0.67311073  0.96315300  0.44954142  1
  S  S41  1  0.33216172  0.96449624  0.54421375  1
