# generated using pymatgen
data_Pr2Mn3(SbS3)4
_symmetry_space_group_name_H-M   'P 1'
_cell_length_a   20.02960800
_cell_length_b   3.90410600
_cell_length_c   14.95364829
_cell_angle_alpha   90.00000000
_cell_angle_beta   126.33350609
_cell_angle_gamma   90.00000000
_symmetry_Int_Tables_number   1
_chemical_formula_structural   Pr2Mn3(SbS3)4
_chemical_formula_sum   'Pr4 Mn6 Sb8 S24'
_cell_volume   942.00006694
_cell_formula_units_Z   2
loop_
 _symmetry_equiv_pos_site_id
 _symmetry_equiv_pos_as_xyz
  1  'x, y, z'
loop_
 _atom_site_type_symbol
 _atom_site_label
 _atom_site_symmetry_multiplicity
 _atom_site_fract_x
 _atom_site_fract_y
 _atom_site_fract_z
 _atom_site_occupancy
  Pr  Pr0  1  0.27652350  0.48391635  0.86799814  1
  Pr  Pr1  1  0.72910069  0.51478444  0.13733057  1
  Pr  Pr2  1  0.77182368  0.01470809  0.87929477  1
  Pr  Pr3  1  0.23298136  0.92736023  0.12930016  1
  Mn  Mn4  1  0.29659146  0.43509189  0.61321469  1
  Mn  Mn5  1  0.69585877  0.52163952  0.35531342  1
  Mn  Mn6  1  0.00168560  0.00059741  0.01584596  1
  Mn  Mn7  1  0.80706671  0.03396286  0.63720754  1
  Mn  Mn8  1  0.20830424  0.06150256  0.38969636  1
  Mn  Mn9  1  0.49479014  0.46966088  0.99339307  1
  Sb  Sb10  1  0.88018588  0.86553943  0.45239414  1
  Sb  Sb11  1  0.10630656  0.99795178  0.54027392  1
  Sb  Sb12  1  0.03784143  0.50070827  0.82567817  1
  Sb  Sb13  1  0.95983093  0.45879016  0.19639213  1
  Sb  Sb14  1  0.40842095  0.56987738  0.46520245  1
  Sb  Sb15  1  0.60314977  0.57234776  0.53066444  1
  Sb  Sb16  1  0.52947405  0.94661574  0.80508590  1
  Sb  Sb17  1  0.46234075  0.00081764  0.18542621  1
  S  S18  1  0.93959009  0.00580623  0.81150798  1
  S  S19  1  0.05431528  0.03063403  0.19378109  1
  S  S20  1  0.41974444  0.00622279  0.98447880  1
  S  S21  1  0.57753279  0.99672531  0.01426624  1
  S  S22  1  0.17680691  0.93905396  0.89606725  1
  S  S23  1  0.81794170  0.03812514  0.09894556  1
  S  S24  1  0.10620609  0.44920691  0.65481135  1
  S  S25  1  0.90021731  0.42317501  0.34707277  1
  S  S26  1  0.72413759  0.04043997  0.30425985  1
  S  S27  1  0.27172635  0.96775496  0.68679802  1
  S  S28  1  0.17117213  0.50447166  0.45537197  1
  S  S29  1  0.81809714  0.54393565  0.55261174  1
  S  S30  1  0.43671430  0.45527275  0.81380489  1
  S  S31  1  0.56418298  0.49978396  0.19599971  1
  S  S32  1  0.91504338  0.54362668  0.99475046  1
  S  S33  1  0.09287659  0.49828351  0.02624605  1
  S  S34  1  0.65702488  0.48556815  0.87931266  1
  S  S35  1  0.32474671  0.43099757  0.09656434  1
  S  S36  1  0.59880013  0.99545599  0.64059845  1
  S  S37  1  0.40235352  0.04804609  0.34385942  1
  S  S38  1  0.24616606  0.50590933  0.32214845  1
  S  S39  1  0.75828300  0.49110790  0.70140853  1
  S  S40  1  0.67296259  0.96417683  0.44929531  1
  S  S41  1  0.33201036  0.96448252  0.54448996  1
