# generated using pymatgen
data_Pr2Mn3(SbS3)4
_symmetry_space_group_name_H-M   'P 1'
_cell_length_a   20.02960800
_cell_length_b   3.90410600
_cell_length_c   14.95364829
_cell_angle_alpha   90.00000000
_cell_angle_beta   126.33350609
_cell_angle_gamma   90.00000000
_symmetry_Int_Tables_number   1
_chemical_formula_structural   Pr2Mn3(SbS3)4
_chemical_formula_sum   'Pr4 Mn6 Sb8 S24'
_cell_volume   942.00006694
_cell_formula_units_Z   2
loop_
 _symmetry_equiv_pos_site_id
 _symmetry_equiv_pos_as_xyz
  1  'x, y, z'
loop_
 _atom_site_type_symbol
 _atom_site_label
 _atom_site_symmetry_multiplicity
 _atom_site_fract_x
 _atom_site_fract_y
 _atom_site_fract_z
 _atom_site_occupancy
  Pr  Pr0  1  0.27647184  0.48391675  0.86795774  1
  Pr  Pr1  1  0.72906498  0.51469007  0.13728681  1
  Pr  Pr2  1  0.77166692  0.01524784  0.87922581  1
  Pr  Pr3  1  0.23302827  0.92758887  0.12931516  1
  Mn  Mn4  1  0.29666495  0.43441306  0.61326682  1
  Mn  Mn5  1  0.69616570  0.52145386  0.35552441  1
  Mn  Mn6  1  0.00156574  0.00084967  0.01581178  1
  Mn  Mn7  1  0.80702891  0.03445881  0.63705716  1
  Mn  Mn8  1  0.20839980  0.06130659  0.38971961  1
  Mn  Mn9  1  0.49478600  0.46997810  0.99353361  1
  Sb  Sb10  1  0.88026274  0.86565083  0.45236626  1
  Sb  Sb11  1  0.10626114  0.99846989  0.54030723  1
  Sb  Sb12  1  0.03789519  0.50111355  0.82560164  1
  Sb  Sb13  1  0.95968962  0.45905708  0.19620252  1
  Sb  Sb14  1  0.40828165  0.56970519  0.46520670  1
  Sb  Sb15  1  0.60308460  0.57210570  0.53053810  1
  Sb  Sb16  1  0.52933145  0.94633634  0.80507989  1
  Sb  Sb17  1  0.46219321  0.00001795  0.18533151  1
  S  S18  1  0.93959961  0.00640876  0.81154988  1
  S  S19  1  0.05439720  0.02979981  0.19378255  1
  S  S20  1  0.42000770  0.00515196  0.98472636  1
  S  S21  1  0.57751274  0.99642577  0.01395331  1
  S  S22  1  0.17678759  0.93953009  0.89609825  1
  S  S23  1  0.81764446  0.03732027  0.09876399  1
  S  S24  1  0.10608892  0.45050277  0.65473561  1
  S  S25  1  0.89996277  0.42314576  0.34682102  1
  S  S26  1  0.72422030  0.03971811  0.30407192  1
  S  S27  1  0.27176709  0.96728697  0.68702900  1
  S  S28  1  0.17126708  0.50565341  0.45534378  1
  S  S29  1  0.81823973  0.54377004  0.55302796  1
  S  S30  1  0.43700548  0.45486707  0.81399349  1
  S  S31  1  0.56431323  0.49956666  0.19646415  1
  S  S32  1  0.91502519  0.54368517  0.99482921  1
  S  S33  1  0.09258327  0.49795115  0.02598827  1
  S  S34  1  0.65709531  0.48499452  0.87904076  1
  S  S35  1  0.32459068  0.43004039  0.09642791  1
  S  S36  1  0.59859400  0.99631628  0.64034880  1
  S  S37  1  0.40236154  0.04837162  0.34405230  1
  S  S38  1  0.24635957  0.50492748  0.32204347  1
  S  S39  1  0.75843021  0.49146602  0.70146712  1
  S  S40  1  0.67277447  0.96522224  0.44897534  1
  S  S41  1  0.33191759  0.96457667  0.54476748  1
