# generated using pymatgen
data_Pr2Mn3(SbS3)4
_symmetry_space_group_name_H-M   'P 1'
_cell_length_a   20.02960800
_cell_length_b   3.90410600
_cell_length_c   14.95364829
_cell_angle_alpha   90.00000000
_cell_angle_beta   126.33350609
_cell_angle_gamma   90.00000000
_symmetry_Int_Tables_number   1
_chemical_formula_structural   Pr2Mn3(SbS3)4
_chemical_formula_sum   'Pr4 Mn6 Sb8 S24'
_cell_volume   942.00006694
_cell_formula_units_Z   2
loop_
 _symmetry_equiv_pos_site_id
 _symmetry_equiv_pos_as_xyz
  1  'x, y, z'
loop_
 _atom_site_type_symbol
 _atom_site_label
 _atom_site_symmetry_multiplicity
 _atom_site_fract_x
 _atom_site_fract_y
 _atom_site_fract_z
 _atom_site_occupancy
  Pr  Pr0  1  0.27645234  0.48386400  0.86795138  1
  Pr  Pr1  1  0.72905238  0.51459764  0.13723716  1
  Pr  Pr2  1  0.77154873  0.01545048  0.87916505  1
  Pr  Pr3  1  0.23308371  0.92763085  0.12941753  1
  Mn  Mn4  1  0.29673448  0.43375934  0.61320145  1
  Mn  Mn5  1  0.69644577  0.52162769  0.35564340  1
  Mn  Mn6  1  0.00152697  0.00115933  0.01580986  1
  Mn  Mn7  1  0.80707230  0.03488159  0.63702266  1
  Mn  Mn8  1  0.20844587  0.06090128  0.38964167  1
  Mn  Mn9  1  0.49481891  0.47060892  0.99366926  1
  Sb  Sb10  1  0.88030207  0.86586559  0.45229434  1
  Sb  Sb11  1  0.10623220  0.99876454  0.54031881  1
  Sb  Sb12  1  0.03793047  0.50141991  0.82557677  1
  Sb  Sb13  1  0.95964254  0.45942859  0.19604111  1
  Sb  Sb14  1  0.40811330  0.56942142  0.46522964  1
  Sb  Sb15  1  0.60305010  0.57196261  0.53051718  1
  Sb  Sb16  1  0.52919242  0.94622282  0.80501757  1
  Sb  Sb17  1  0.46210242  0.99918486  0.18526952  1
  S  S18  1  0.93959193  0.00656992  0.81166547  1
  S  S19  1  0.05437696  0.02891244  0.19358361  1
  S  S20  1  0.42025134  0.00348108  0.98483734  1
  S  S21  1  0.57765853  0.99616269  0.01364323  1
  S  S22  1  0.17676991  0.93965720  0.89612192  1
  S  S23  1  0.81740452  0.03614125  0.09860409  1
  S  S24  1  0.10604708  0.45189607  0.65474544  1
  S  S25  1  0.89971523  0.42291720  0.34678023  1
  S  S26  1  0.72426405  0.03921701  0.30374423  1
  S  S27  1  0.27174611  0.96679748  0.68720128  1
  S  S28  1  0.17142537  0.50663299  0.45554939  1
  S  S29  1  0.81830090  0.54373739  0.55340476  1
  S  S30  1  0.43738773  0.45423614  0.81420454  1
  S  S31  1  0.56451615  0.49931920  0.19689866  1
  S  S32  1  0.91498691  0.54371403  0.99503039  1
  S  S33  1  0.09224927  0.49758078  0.02581437  1
  S  S34  1  0.65724073  0.48412608  0.87895594  1
  S  S35  1  0.32447207  0.42920988  0.09628700  1
  S  S36  1  0.59832184  0.99756182  0.64002208  1
  S  S37  1  0.40236306  0.04842983  0.34419248  1
  S  S38  1  0.24645534  0.50359989  0.32189036  1
  S  S39  1  0.75858754  0.49228692  0.70146005  1
  S  S40  1  0.67258402  0.96671061  0.44864203  1
  S  S41  1  0.33177293  0.96466068  0.54493992  1
