# generated using pymatgen
data_Pr2Mn3(SbS3)4
_symmetry_space_group_name_H-M   'P 1'
_cell_length_a   20.02960800
_cell_length_b   3.90410600
_cell_length_c   14.95364829
_cell_angle_alpha   90.00000000
_cell_angle_beta   126.33350609
_cell_angle_gamma   90.00000000
_symmetry_Int_Tables_number   1
_chemical_formula_structural   Pr2Mn3(SbS3)4
_chemical_formula_sum   'Pr4 Mn6 Sb8 S24'
_cell_volume   942.00006694
_cell_formula_units_Z   2
loop_
 _symmetry_equiv_pos_site_id
 _symmetry_equiv_pos_as_xyz
  1  'x, y, z'
loop_
 _atom_site_type_symbol
 _atom_site_label
 _atom_site_symmetry_multiplicity
 _atom_site_fract_x
 _atom_site_fract_y
 _atom_site_fract_z
 _atom_site_occupancy
  Pr  Pr0  1  0.27642482  0.48385061  0.86792192  1
  Pr  Pr1  1  0.72900325  0.51480781  0.13713208  1
  Pr  Pr2  1  0.77140241  0.01538495  0.87909773  1
  Pr  Pr3  1  0.23311404  0.92761615  0.12948150  1
  Mn  Mn4  1  0.29679833  0.43295120  0.61312105  1
  Mn  Mn5  1  0.69668088  0.52194761  0.35566728  1
  Mn  Mn6  1  0.00146410  0.00118936  0.01574514  1
  Mn  Mn7  1  0.80708329  0.03475457  0.63696526  1
  Mn  Mn8  1  0.20854007  0.06067857  0.38965845  1
  Mn  Mn9  1  0.49491019  0.47146118  0.99388977  1
  Sb  Sb10  1  0.88036745  0.86607539  0.45231431  1
  Sb  Sb11  1  0.10618331  0.99902990  0.54025337  1
  Sb  Sb12  1  0.03795680  0.50152467  0.82549315  1
  Sb  Sb13  1  0.95957025  0.45966319  0.19587488  1
  Sb  Sb14  1  0.40796455  0.56891006  0.46519460  1
  Sb  Sb15  1  0.60302257  0.57179840  0.53052690  1
  Sb  Sb16  1  0.52904810  0.94618688  0.80495863  1
  Sb  Sb17  1  0.46203150  0.99846399  0.18520846  1
  S  S18  1  0.93958704  0.00669187  0.81180488  1
  S  S19  1  0.05443375  0.02846029  0.19353165  1
  S  S20  1  0.42044029  0.00217376  0.98482377  1
  S  S21  1  0.57784235  0.99622367  0.01333669  1
  S  S22  1  0.17669153  0.93996243  0.89600810  1
  S  S23  1  0.81716353  0.03505152  0.09836561  1
  S  S24  1  0.10594528  0.45331637  0.65465622  1
  S  S25  1  0.89946742  0.42231922  0.34666349  1
  S  S26  1  0.72432965  0.03822115  0.30352138  1
  S  S27  1  0.27172583  0.96630903  0.68732622  1
  S  S28  1  0.17161433  0.50697234  0.45583183  1
  S  S29  1  0.81820161  0.54314970  0.55361549  1
  S  S30  1  0.43777577  0.45331033  0.81421321  1
  S  S31  1  0.56476082  0.49940795  0.19733568  1
  S  S32  1  0.91501032  0.54386789  0.99520107  1
  S  S33  1  0.09185058  0.49687573  0.02568636  1
  S  S34  1  0.65737044  0.48280273  0.87884039  1
  S  S35  1  0.32430043  0.42845874  0.09620163  1
  S  S36  1  0.59804615  0.99855463  0.63969433  1
  S  S37  1  0.40224180  0.04843468  0.34420530  1
  S  S38  1  0.24654657  0.50227805  0.32180270  1
  S  S39  1  0.75871849  0.49322661  0.70152977  1
  S  S40  1  0.67246651  0.96837130  0.44837653  1
  S  S41  1  0.33160600  0.96501332  0.54500408  1
