# generated using pymatgen
data_Pr2Mn3(SbS3)4
_symmetry_space_group_name_H-M   'P 1'
_cell_length_a   20.02960800
_cell_length_b   3.90410600
_cell_length_c   14.95364829
_cell_angle_alpha   90.00000000
_cell_angle_beta   126.33350609
_cell_angle_gamma   90.00000000
_symmetry_Int_Tables_number   1
_chemical_formula_structural   Pr2Mn3(SbS3)4
_chemical_formula_sum   'Pr4 Mn6 Sb8 S24'
_cell_volume   942.00006694
_cell_formula_units_Z   2
loop_
 _symmetry_equiv_pos_site_id
 _symmetry_equiv_pos_as_xyz
  1  'x, y, z'
loop_
 _atom_site_type_symbol
 _atom_site_label
 _atom_site_symmetry_multiplicity
 _atom_site_fract_x
 _atom_site_fract_y
 _atom_site_fract_z
 _atom_site_occupancy
  Pr  Pr0  1  0.27644520  0.48387058  0.86797750  1
  Pr  Pr1  1  0.72892116  0.51524946  0.13700686  1
  Pr  Pr2  1  0.77125987  0.01540514  0.87900676  1
  Pr  Pr3  1  0.23316889  0.92776175  0.12962500  1
  Mn  Mn4  1  0.29689197  0.43202327  0.61291699  1
  Mn  Mn5  1  0.69687543  0.52204948  0.35568834  1
  Mn  Mn6  1  0.00130756  0.00157705  0.01556365  1
  Mn  Mn7  1  0.80709542  0.03442094  0.63688514  1
  Mn  Mn8  1  0.20871756  0.06025936  0.38972542  1
  Mn  Mn9  1  0.49493185  0.47209129  0.99417915  1
  Sb  Sb10  1  0.88036422  0.86622692  0.45231592  1
  Sb  Sb11  1  0.10614874  0.99933959  0.54020602  1
  Sb  Sb12  1  0.03796065  0.50153673  0.82536542  1
  Sb  Sb13  1  0.95953493  0.45998747  0.19572129  1
  Sb  Sb14  1  0.40785699  0.56843028  0.46512057  1
  Sb  Sb15  1  0.60300866  0.57157855  0.53052853  1
  Sb  Sb16  1  0.52886570  0.94611553  0.80490354  1
  Sb  Sb17  1  0.46191230  0.99784253  0.18510791  1
  S  S18  1  0.93950609  0.00666561  0.81185530  1
  S  S19  1  0.05445312  0.02862193  0.19340622  1
  S  S20  1  0.42074934  0.00053568  0.98491861  1
  S  S21  1  0.57799104  0.99660466  0.01281155  1
  S  S22  1  0.17658326  0.94013042  0.89591150  1
  S  S23  1  0.81691439  0.03404709  0.09808364  1
  S  S24  1  0.10586645  0.45506530  0.65463929  1
  S  S25  1  0.89918158  0.42193906  0.34658766  1
  S  S26  1  0.72446592  0.03764690  0.30345228  1
  S  S27  1  0.27156739  0.96595537  0.68735832  1
  S  S28  1  0.17170442  0.50687914  0.45604866  1
  S  S29  1  0.81798236  0.54234495  0.55369890  1
  S  S30  1  0.43807182  0.45312193  0.81411025  1
  S  S31  1  0.56491854  0.49971463  0.19781947  1
  S  S32  1  0.91510112  0.54393839  0.99548794  1
  S  S33  1  0.09150021  0.49599088  0.02552737  1
  S  S34  1  0.65755661  0.48194443  0.87878706  1
  S  S35  1  0.32411300  0.42774385  0.09608910  1
  S  S36  1  0.59782132  0.99923618  0.63937498  1
  S  S37  1  0.40227753  0.04831408  0.34424688  1
  S  S38  1  0.24658231  0.50116076  0.32172855  1
  S  S39  1  0.75867795  0.49377344  0.70154769  1
  S  S40  1  0.67238968  0.97023986  0.44815430  1
  S  S41  1  0.33150747  0.96505922  0.54504453  1
