# generated using pymatgen
data_Pr2Mn3(SbS3)4
_symmetry_space_group_name_H-M   'P 1'
_cell_length_a   20.02960800
_cell_length_b   3.90410600
_cell_length_c   14.95364829
_cell_angle_alpha   90.00000000
_cell_angle_beta   126.33350609
_cell_angle_gamma   90.00000000
_symmetry_Int_Tables_number   1
_chemical_formula_structural   Pr2Mn3(SbS3)4
_chemical_formula_sum   'Pr4 Mn6 Sb8 S24'
_cell_volume   942.00006694
_cell_formula_units_Z   2
loop_
 _symmetry_equiv_pos_site_id
 _symmetry_equiv_pos_as_xyz
  1  'x, y, z'
loop_
 _atom_site_type_symbol
 _atom_site_label
 _atom_site_symmetry_multiplicity
 _atom_site_fract_x
 _atom_site_fract_y
 _atom_site_fract_z
 _atom_site_occupancy
  Pr  Pr0  1  0.27648762  0.48393243  0.86808525  1
  Pr  Pr1  1  0.72885963  0.51564176  0.13688002  1
  Pr  Pr2  1  0.77119886  0.01549334  0.87900529  1
  Pr  Pr3  1  0.23324275  0.92817499  0.12975973  1
  Mn  Mn4  1  0.29698956  0.43105146  0.61269898  1
  Mn  Mn5  1  0.69700801  0.52195868  0.35573729  1
  Mn  Mn6  1  0.00110015  0.00166261  0.01533860  1
  Mn  Mn7  1  0.80704598  0.03364361  0.63670757  1
  Mn  Mn8  1  0.20882794  0.06003183  0.38970547  1
  Mn  Mn9  1  0.49491275  0.47256407  0.99448680  1
  Sb  Sb10  1  0.88030195  0.86647409  0.45221881  1
  Sb  Sb11  1  0.10611120  0.99962204  0.54018808  1
  Sb  Sb12  1  0.03794734  0.50156589  0.82525387  1
  Sb  Sb13  1  0.95945507  0.46039757  0.19562912  1
  Sb  Sb14  1  0.40779693  0.56787655  0.46512342  1
  Sb  Sb15  1  0.60301234  0.57157872  0.53054656  1
  Sb  Sb16  1  0.52873505  0.94596988  0.80487945  1
  Sb  Sb17  1  0.46176632  0.99758496  0.18490508  1
  S  S18  1  0.93938232  0.00639592  0.81175359  1
  S  S19  1  0.05457970  0.02884395  0.19341000  1
  S  S20  1  0.42099430  0.99923056  0.98480380  1
  S  S21  1  0.57817278  0.99696760  0.01235640  1
  S  S22  1  0.17649194  0.94013123  0.89594021  1
  S  S23  1  0.81668262  0.03341297  0.09780622  1
  S  S24  1  0.10582357  0.45644928  0.65473228  1
  S  S25  1  0.89892033  0.42152336  0.34654278  1
  S  S26  1  0.72464242  0.03744409  0.30351730  1
  S  S27  1  0.27143129  0.96535131  0.68743304  1
  S  S28  1  0.17184277  0.50655683  0.45617341  1
  S  S29  1  0.81766951  0.54203313  0.55360587  1
  S  S30  1  0.43832116  0.45311744  0.81384514  1
  S  S31  1  0.56500212  0.50009904  0.19823219  1
  S  S32  1  0.91521933  0.54421306  0.99565273  1
  S  S33  1  0.09118291  0.49520197  0.02543923  1
  S  S34  1  0.65763180  0.48111225  0.87869695  1
  S  S35  1  0.32410657  0.42722938  0.09608201  1
  S  S36  1  0.59765212  0.00001609  0.63910030  1
  S  S37  1  0.40236584  0.04784173  0.34433814  1
  S  S38  1  0.24660457  0.50017731  0.32157740  1
  S  S39  1  0.75858627  0.49386846  0.70151152  1
  S  S40  1  0.67219228  0.97201800  0.44792454  1
  S  S41  1  0.33149295  0.96486833  0.54510416  1
