# generated using pymatgen
data_Pr2Mn3(SbS3)4
_symmetry_space_group_name_H-M   'P 1'
_cell_length_a   20.02960800
_cell_length_b   3.90410600
_cell_length_c   14.95364829
_cell_angle_alpha   90.00000000
_cell_angle_beta   126.33350609
_cell_angle_gamma   90.00000000
_symmetry_Int_Tables_number   1
_chemical_formula_structural   Pr2Mn3(SbS3)4
_chemical_formula_sum   'Pr4 Mn6 Sb8 S24'
_cell_volume   942.00006694
_cell_formula_units_Z   2
loop_
 _symmetry_equiv_pos_site_id
 _symmetry_equiv_pos_as_xyz
  1  'x, y, z'
loop_
 _atom_site_type_symbol
 _atom_site_label
 _atom_site_symmetry_multiplicity
 _atom_site_fract_x
 _atom_site_fract_y
 _atom_site_fract_z
 _atom_site_occupancy
  Pr  Pr0  1  0.27659748  0.48420069  0.86823399  1
  Pr  Pr1  1  0.72885800  0.51605493  0.13677626  1
  Pr  Pr2  1  0.77110380  0.01564586  0.87897246  1
  Pr  Pr3  1  0.23331394  0.92831582  0.12989753  1
  Mn  Mn4  1  0.29716237  0.43017395  0.61258235  1
  Mn  Mn5  1  0.69716503  0.52230907  0.35580687  1
  Mn  Mn6  1  0.00093913  0.00131700  0.01518695  1
  Mn  Mn7  1  0.80694236  0.03308306  0.63639174  1
  Mn  Mn8  1  0.20902457  0.05996057  0.38989069  1
  Mn  Mn9  1  0.49486807  0.47315444  0.99480891  1
  Sb  Sb10  1  0.88026939  0.86701718  0.45218715  1
  Sb  Sb11  1  0.10607942  0.99980424  0.54013279  1
  Sb  Sb12  1  0.03797844  0.50158317  0.82523088  1
  Sb  Sb13  1  0.95930347  0.46112112  0.19537965  1
  Sb  Sb14  1  0.40777181  0.56735542  0.46513482  1
  Sb  Sb15  1  0.60300754  0.57141612  0.53043284  1
  Sb  Sb16  1  0.52859522  0.94561692  0.80490540  1
  Sb  Sb17  1  0.46162562  0.99756926  0.18473733  1
  S  S18  1  0.93913438  0.00610352  0.81166226  1
  S  S19  1  0.05479219  0.02873672  0.19352851  1
  S  S20  1  0.42114458  0.99753758  0.98478723  1
  S  S21  1  0.57834326  0.99751689  0.01188187  1
  S  S22  1  0.17628703  0.93969798  0.89582411  1
  S  S23  1  0.81645011  0.03316847  0.09749414  1
  S  S24  1  0.10583317  0.45721281  0.65492368  1
  S  S25  1  0.89864466  0.42074917  0.34657467  1
  S  S26  1  0.72483446  0.03752992  0.30363284  1
  S  S27  1  0.27122847  0.96502329  0.68740729  1
  S  S28  1  0.17197047  0.50637974  0.45637657  1
  S  S29  1  0.81730501  0.54174037  0.55352581  1
  S  S30  1  0.43855005  0.45319668  0.81359940  1
  S  S31  1  0.56500050  0.50047373  0.19850436  1
  S  S32  1  0.91545759  0.54431089  0.99585120  1
  S  S33  1  0.09090707  0.49474554  0.02532628  1
  S  S34  1  0.65760252  0.48025224  0.87845943  1
  S  S35  1  0.32405537  0.42692189  0.09592107  1
  S  S36  1  0.59747823  0.00087960  0.63887317  1
  S  S37  1  0.40255491  0.04697409  0.34436433  1
  S  S38  1  0.24666111  0.49924592  0.32162495  1
  S  S39  1  0.75842384  0.49415076  0.70127898  1
  S  S40  1  0.67207639  0.97380513  0.44773563  1
  S  S41  1  0.33144339  0.96453709  0.54508023  1
