# generated using pymatgen
data_Pr2Mn3(SbS3)4
_symmetry_space_group_name_H-M   'P 1'
_cell_length_a   20.02960800
_cell_length_b   3.90410600
_cell_length_c   14.95364829
_cell_angle_alpha   90.00000000
_cell_angle_beta   126.33350609
_cell_angle_gamma   90.00000000
_symmetry_Int_Tables_number   1
_chemical_formula_structural   Pr2Mn3(SbS3)4
_chemical_formula_sum   'Pr4 Mn6 Sb8 S24'
_cell_volume   942.00006694
_cell_formula_units_Z   2
loop_
 _symmetry_equiv_pos_site_id
 _symmetry_equiv_pos_as_xyz
  1  'x, y, z'
loop_
 _atom_site_type_symbol
 _atom_site_label
 _atom_site_symmetry_multiplicity
 _atom_site_fract_x
 _atom_site_fract_y
 _atom_site_fract_z
 _atom_site_occupancy
  Pr  Pr0  1  0.27664710  0.48453749  0.86829318  1
  Pr  Pr1  1  0.72890111  0.51675297  0.13672968  1
  Pr  Pr2  1  0.77099376  0.01591353  0.87890950  1
  Pr  Pr3  1  0.23335910  0.92848656  0.13000151  1
  Mn  Mn4  1  0.29729599  0.42946859  0.61240472  1
  Mn  Mn5  1  0.69732344  0.52260819  0.35592342  1
  Mn  Mn6  1  0.00068722  0.00109001  0.01492878  1
  Mn  Mn7  1  0.80683325  0.03256724  0.63606942  1
  Mn  Mn8  1  0.20908791  0.05997785  0.39001584  1
  Mn  Mn9  1  0.49492733  0.47365811  0.99519955  1
  Sb  Sb10  1  0.88016214  0.86749310  0.45213408  1
  Sb  Sb11  1  0.10605990  0.99988895  0.54007298  1
  Sb  Sb12  1  0.03812479  0.50140657  0.82538501  1
  Sb  Sb13  1  0.95923574  0.46183558  0.19525005  1
  Sb  Sb14  1  0.40776593  0.56723823  0.46520287  1
  Sb  Sb15  1  0.60298650  0.57099725  0.53035659  1
  Sb  Sb16  1  0.52846631  0.94554559  0.80493506  1
  Sb  Sb17  1  0.46151140  0.99760173  0.18458812  1
  S  S18  1  0.93884773  0.00605492  0.81137848  1
  S  S19  1  0.05501353  0.02904759  0.19375994  1
  S  S20  1  0.42112099  0.99575865  0.98461463  1
  S  S21  1  0.57842225  0.99827944  0.01132249  1
  S  S22  1  0.17601605  0.93934999  0.89557152  1
  S  S23  1  0.81629701  0.03319494  0.09715902  1
  S  S24  1  0.10592002  0.45792829  0.65516087  1
  S  S25  1  0.89832511  0.41982028  0.34669648  1
  S  S26  1  0.72499907  0.03757889  0.30367017  1
  S  S27  1  0.27095012  0.96518035  0.68734899  1
  S  S28  1  0.17206965  0.50649246  0.45656957  1
  S  S29  1  0.81704389  0.54153532  0.55352165  1
  S  S30  1  0.43860004  0.45322869  0.81313218  1
  S  S31  1  0.56505218  0.50083278  0.19890534  1
  S  S32  1  0.91566315  0.54451158  0.99604491  1
  S  S33  1  0.09073436  0.49390711  0.02529188  1
  S  S34  1  0.65755837  0.47961131  0.87835731  1
  S  S35  1  0.32395126  0.42697041  0.09585189  1
  S  S36  1  0.59735085  0.00129501  0.63882574  1
  S  S37  1  0.40272913  0.04603195  0.34443180  1
  S  S38  1  0.24657484  0.49853414  0.32158264  1
  S  S39  1  0.75810150  0.49490479  0.70094260  1
  S  S40  1  0.67197479  0.97467675  0.44743172  1
  S  S41  1  0.33145132  0.96455059  0.54501424  1
