# generated using pymatgen
data_Pr2Mn3(SbS3)4
_symmetry_space_group_name_H-M   'P 1'
_cell_length_a   20.02960800
_cell_length_b   3.90410600
_cell_length_c   14.95364829
_cell_angle_alpha   90.00000000
_cell_angle_beta   126.33350609
_cell_angle_gamma   90.00000000
_symmetry_Int_Tables_number   1
_chemical_formula_structural   Pr2Mn3(SbS3)4
_chemical_formula_sum   'Pr4 Mn6 Sb8 S24'
_cell_volume   942.00006694
_cell_formula_units_Z   2
loop_
 _symmetry_equiv_pos_site_id
 _symmetry_equiv_pos_as_xyz
  1  'x, y, z'
loop_
 _atom_site_type_symbol
 _atom_site_label
 _atom_site_symmetry_multiplicity
 _atom_site_fract_x
 _atom_site_fract_y
 _atom_site_fract_z
 _atom_site_occupancy
  Pr  Pr0  1  0.26563853  0.47598491  0.86502610  1
  Pr  Pr1  1  0.73550702  0.51868620  0.13580174  1
  Pr  Pr2  1  0.76522791  0.01372234  0.86531595  1
  Pr  Pr3  1  0.23837593  0.00746948  0.13823051  1
  Mn  Mn4  1  0.29311081  0.47911366  0.60086737  1
  Mn  Mn5  1  0.69097785  0.50614872  0.37986755  1
  Mn  Mn6  1  0.01047239  0.00088955  0.01689594  1
  Mn  Mn7  1  0.80424899  0.01511460  0.61381809  1
  Mn  Mn8  1  0.19740839  0.97498962  0.37897304  1
  Mn  Mn9  1  0.49388124  0.46083101  0.98949402  1
  Sb  Sb10  1  0.89026978  0.98279814  0.45010798  1
  Sb  Sb11  1  0.11258343  0.97638517  0.54877891  1
  Sb  Sb12  1  0.03916325  0.51854714  0.81899716  1
  Sb  Sb13  1  0.96596841  0.50796869  0.18687726  1
  Sb  Sb14  1  0.39635241  0.51319759  0.45483544  1
  Sb  Sb15  1  0.60588615  0.47570268  0.54733807  1
  Sb  Sb16  1  0.53474574  0.00756749  0.81065566  1
  Sb  Sb17  1  0.46001811  0.01653894  0.18080992  1
  S  S18  1  0.93342681  0.98869986  0.80062901  1
  S  S19  1  0.06673852  0.98861982  0.19228359  1
  S  S20  1  0.40831635  0.98344568  0.98275846  1
  S  S21  1  0.58674875  0.98579290  0.01498145  1
  S  S22  1  0.16913979  0.01640629  0.89671275  1
  S  S23  1  0.82451312  0.02768949  0.09568416  1
  S  S24  1  0.09110198  0.48047325  0.64396366  1
  S  S25  1  0.90971981  0.46854676  0.35631859  1
  S  S26  1  0.74051851  0.94783844  0.30186007  1
  S  S27  1  0.26333061  0.00302066  0.71130333  1
  S  S28  1  0.16392569  0.46870642  0.43795286  1
  S  S29  1  0.82870041  0.48536823  0.54817887  1
  S  S30  1  0.43199831  0.49389247  0.79490600  1
  S  S31  1  0.56125237  0.50732801  0.18418427  1
  S  S32  1  0.91280609  0.50336995  0.98773479  1
  S  S33  1  0.08661935  0.47763029  0.01869939  1
  S  S34  1  0.66628939  0.50330588  0.88841363  1
  S  S35  1  0.32702746  0.52718212  0.09193995  1
  S  S36  1  0.59668678  0.98929702  0.65946721  1
  S  S37  1  0.40618788  0.98068405  0.35004026  1
  S  S38  1  0.24386989  0.44426375  0.30864611  1
  S  S39  1  0.76831373  0.50208598  0.70585634  1
  S  S40  1  0.67067254  0.03052986  0.45497503  1
  S  S41  1  0.32187916  0.97218880  0.54387697  1
