# generated using pymatgen
data_Pr2Mn3(SbS3)4
_symmetry_space_group_name_H-M   'P 1'
_cell_length_a   20.02960800
_cell_length_b   3.90410600
_cell_length_c   14.95364829
_cell_angle_alpha   90.00000000
_cell_angle_beta   126.33350609
_cell_angle_gamma   90.00000000
_symmetry_Int_Tables_number   1
_chemical_formula_structural   Pr2Mn3(SbS3)4
_chemical_formula_sum   'Pr4 Mn6 Sb8 S24'
_cell_volume   942.00006694
_cell_formula_units_Z   2
loop_
 _symmetry_equiv_pos_site_id
 _symmetry_equiv_pos_as_xyz
  1  'x, y, z'
loop_
 _atom_site_type_symbol
 _atom_site_label
 _atom_site_symmetry_multiplicity
 _atom_site_fract_x
 _atom_site_fract_y
 _atom_site_fract_z
 _atom_site_occupancy
  Pr  Pr0  1  0.27668190  0.48465571  0.86834622  1
  Pr  Pr1  1  0.72895040  0.51722498  0.13661651  1
  Pr  Pr2  1  0.77091086  0.01619061  0.87886047  1
  Pr  Pr3  1  0.23340260  0.92861100  0.13012843  1
  Mn  Mn4  1  0.29741914  0.42907503  0.61226247  1
  Mn  Mn5  1  0.69755903  0.52286583  0.35610792  1
  Mn  Mn6  1  0.00049431  0.00060599  0.01478544  1
  Mn  Mn7  1  0.80678871  0.03195874  0.63582216  1
  Mn  Mn8  1  0.20912211  0.06033791  0.39017169  1
  Mn  Mn9  1  0.49501272  0.47400850  0.99552325  1
  Sb  Sb10  1  0.88009605  0.86793045  0.45211336  1
  Sb  Sb11  1  0.10605876  0.99986535  0.54003653  1
  Sb  Sb12  1  0.03830681  0.50137893  0.82549577  1
  Sb  Sb13  1  0.95914884  0.46264674  0.19509847  1
  Sb  Sb14  1  0.40775989  0.56690408  0.46521211  1
  Sb  Sb15  1  0.60299022  0.57022045  0.53025300  1
  Sb  Sb16  1  0.52837222  0.94556575  0.80496617  1
  Sb  Sb17  1  0.46141412  0.99775590  0.18449684  1
  S  S18  1  0.93853161  0.00613781  0.81121921  1
  S  S19  1  0.05522676  0.02937104  0.19390908  1
  S  S20  1  0.42106391  0.99401075  0.98429356  1
  S  S21  1  0.57854066  0.99905017  0.01081831  1
  S  S22  1  0.17576259  0.93841395  0.89538006  1
  S  S23  1  0.81613810  0.03320485  0.09692297  1
  S  S24  1  0.10602576  0.45892557  0.65518255  1
  S  S25  1  0.89828077  0.41934735  0.34691987  1
  S  S26  1  0.72524015  0.03811892  0.30384064  1
  S  S27  1  0.27073110  0.96494018  0.68726096  1
  S  S28  1  0.17214808  0.50640335  0.45673845  1
  S  S29  1  0.81677560  0.54151618  0.55350677  1
  S  S30  1  0.43865667  0.45307692  0.81259630  1
  S  S31  1  0.56511932  0.50135661  0.19935876  1
  S  S32  1  0.91599886  0.54463587  0.99635403  1
  S  S33  1  0.09046821  0.49336108  0.02515486  1
  S  S34  1  0.65759595  0.47961048  0.87828956  1
  S  S35  1  0.32384935  0.42719760  0.09581601  1
  S  S36  1  0.59716782  0.00171524  0.63874741  1
  S  S37  1  0.40291199  0.04500965  0.34459157  1
  S  S38  1  0.24638165  0.49745079  0.32145900  1
  S  S39  1  0.75775173  0.49493780  0.70067656  1
  S  S40  1  0.67180502  0.97503444  0.44713144  1
  S  S41  1  0.33152469  0.96403826  0.54511663  1
