# generated using pymatgen
data_Pr2Mn3(SbS3)4
_symmetry_space_group_name_H-M   'P 1'
_cell_length_a   20.02960800
_cell_length_b   3.90410600
_cell_length_c   14.95364829
_cell_angle_alpha   90.00000000
_cell_angle_beta   126.33350609
_cell_angle_gamma   90.00000000
_symmetry_Int_Tables_number   1
_chemical_formula_structural   Pr2Mn3(SbS3)4
_chemical_formula_sum   'Pr4 Mn6 Sb8 S24'
_cell_volume   942.00006694
_cell_formula_units_Z   2
loop_
 _symmetry_equiv_pos_site_id
 _symmetry_equiv_pos_as_xyz
  1  'x, y, z'
loop_
 _atom_site_type_symbol
 _atom_site_label
 _atom_site_symmetry_multiplicity
 _atom_site_fract_x
 _atom_site_fract_y
 _atom_site_fract_z
 _atom_site_occupancy
  Pr  Pr0  1  0.27666520  0.48493458  0.86833902  1
  Pr  Pr1  1  0.72905847  0.51772635  0.13656939  1
  Pr  Pr2  1  0.77077482  0.01644303  0.87870103  1
  Pr  Pr3  1  0.23347883  0.92862560  0.13023684  1
  Mn  Mn4  1  0.29749600  0.42843149  0.61223744  1
  Mn  Mn5  1  0.69779465  0.52270383  0.35632669  1
  Mn  Mn6  1  0.00033763  0.00036156  0.01457675  1
  Mn  Mn7  1  0.80665096  0.03141635  0.63554670  1
  Mn  Mn8  1  0.20904757  0.06069220  0.39021305  1
  Mn  Mn9  1  0.49507024  0.47456722  0.99580087  1
  Sb  Sb10  1  0.88007267  0.86809395  0.45214392  1
  Sb  Sb11  1  0.10607068  0.00005960  0.53995663  1
  Sb  Sb12  1  0.03849354  0.50145622  0.82557842  1
  Sb  Sb13  1  0.95910010  0.46339066  0.19496823  1
  Sb  Sb14  1  0.40779385  0.56648252  0.46530130  1
  Sb  Sb15  1  0.60298225  0.56942195  0.53014249  1
  Sb  Sb16  1  0.52826511  0.94569208  0.80505187  1
  Sb  Sb17  1  0.46127425  0.99780201  0.18431482  1
  S  S18  1  0.93810191  0.00630550  0.81094229  1
  S  S19  1  0.05530026  0.02945271  0.19395517  1
  S  S20  1  0.42092523  0.99240731  0.98395470  1
  S  S21  1  0.57851187  0.99965152  0.01030825  1
  S  S22  1  0.17546051  0.93777145  0.89522608  1
  S  S23  1  0.81599364  0.03302397  0.09664325  1
  S  S24  1  0.10617644  0.45954941  0.65529783  1
  S  S25  1  0.89827410  0.41920398  0.34710659  1
  S  S26  1  0.72543106  0.03845828  0.30400126  1
  S  S27  1  0.27049706  0.96464557  0.68722762  1
  S  S28  1  0.17215040  0.50582197  0.45693097  1
  S  S29  1  0.81657491  0.54107778  0.55356289  1
  S  S30  1  0.43872456  0.45262042  0.81214617  1
  S  S31  1  0.56519672  0.50198044  0.19980662  1
  S  S32  1  0.91634072  0.54467465  0.99674585  1
  S  S33  1  0.09026408  0.49281710  0.02506847  1
  S  S34  1  0.65765792  0.47963013  0.87830326  1
  S  S35  1  0.32374865  0.42772949  0.09569770  1
  S  S36  1  0.59698563  0.00174885  0.63870797  1
  S  S37  1  0.40316672  0.04401562  0.34478209  1
  S  S38  1  0.24607622  0.49631331  0.32112224  1
  S  S39  1  0.75730095  0.49504120  0.70036269  1
  S  S40  1  0.67168912  0.97514536  0.44684783  1
  S  S41  1  0.33157556  0.96382685  0.54510863  1
