# generated using pymatgen
data_Pr2Mn3(SbS3)4
_symmetry_space_group_name_H-M   'P 1'
_cell_length_a   20.02960800
_cell_length_b   3.90410600
_cell_length_c   14.95364829
_cell_angle_alpha   90.00000000
_cell_angle_beta   126.33350609
_cell_angle_gamma   90.00000000
_symmetry_Int_Tables_number   1
_chemical_formula_structural   Pr2Mn3(SbS3)4
_chemical_formula_sum   'Pr4 Mn6 Sb8 S24'
_cell_volume   942.00006694
_cell_formula_units_Z   2
loop_
 _symmetry_equiv_pos_site_id
 _symmetry_equiv_pos_as_xyz
  1  'x, y, z'
loop_
 _atom_site_type_symbol
 _atom_site_label
 _atom_site_symmetry_multiplicity
 _atom_site_fract_x
 _atom_site_fract_y
 _atom_site_fract_z
 _atom_site_occupancy
  Pr  Pr0  1  0.27668555  0.48521116  0.86835367  1
  Pr  Pr1  1  0.72911132  0.51836713  0.13646974  1
  Pr  Pr2  1  0.77064742  0.01657272  0.87849601  1
  Pr  Pr3  1  0.23354688  0.92868098  0.13031103  1
  Mn  Mn4  1  0.29753171  0.42817046  0.61210957  1
  Mn  Mn5  1  0.69795200  0.52270552  0.35650769  1
  Mn  Mn6  1  0.00012291  0.00080611  0.01427624  1
  Mn  Mn7  1  0.80648073  0.03083333  0.63514299  1
  Mn  Mn8  1  0.20903367  0.06119551  0.39033053  1
  Mn  Mn9  1  0.49519371  0.47507449  0.99611617  1
  Sb  Sb10  1  0.88003074  0.86816106  0.45214600  1
  Sb  Sb11  1  0.10605291  0.00014542  0.53969182  1
  Sb  Sb12  1  0.03865055  0.50163226  0.82564372  1
  Sb  Sb13  1  0.95914811  0.46396043  0.19494078  1
  Sb  Sb14  1  0.40780770  0.56624205  0.46535167  1
  Sb  Sb15  1  0.60297661  0.56876084  0.53000882  1
  Sb  Sb16  1  0.52810059  0.94585903  0.80506026  1
  Sb  Sb17  1  0.46113792  0.99802660  0.18411922  1
  S  S18  1  0.93770732  0.00624804  0.81057168  1
  S  S19  1  0.05542132  0.02981882  0.19410927  1
  S  S20  1  0.42084815  0.99079906  0.98367821  1
  S  S21  1  0.57847750  0.99974443  0.00987613  1
  S  S22  1  0.17514918  0.93683937  0.89511451  1
  S  S23  1  0.81582611  0.03312979  0.09641315  1
  S  S24  1  0.10632949  0.45991017  0.65544574  1
  S  S25  1  0.89828758  0.41967007  0.34735992  1
  S  S26  1  0.72562048  0.03898881  0.30398210  1
  S  S27  1  0.27017825  0.96449813  0.68720523  1
  S  S28  1  0.17211824  0.50539880  0.45703616  1
  S  S29  1  0.81638273  0.54110473  0.55365611  1
  S  S30  1  0.43881402  0.45238062  0.81177276  1
  S  S31  1  0.56511883  0.50295538  0.20013866  1
  S  S32  1  0.91661236  0.54481881  0.99710590  1
  S  S33  1  0.09017454  0.49290187  0.02510246  1
  S  S34  1  0.65775471  0.48001496  0.87832996  1
  S  S35  1  0.32366384  0.42804596  0.09540601  1
  S  S36  1  0.59678983  0.00174916  0.63854182  1
  S  S37  1  0.40344269  0.04298505  0.34509571  1
  S  S38  1  0.24583715  0.49522889  0.32082637  1
  S  S39  1  0.75683629  0.49465043  0.70022730  1
  S  S40  1  0.67166909  0.97513889  0.44663534  1
  S  S41  1  0.33152766  0.96320078  0.54500707  1
