# generated using pymatgen
data_Pr2Mn3(SbS3)4
_symmetry_space_group_name_H-M   'P 1'
_cell_length_a   20.02960800
_cell_length_b   3.90410600
_cell_length_c   14.95364829
_cell_angle_alpha   90.00000000
_cell_angle_beta   126.33350609
_cell_angle_gamma   90.00000000
_symmetry_Int_Tables_number   1
_chemical_formula_structural   Pr2Mn3(SbS3)4
_chemical_formula_sum   'Pr4 Mn6 Sb8 S24'
_cell_volume   942.00006694
_cell_formula_units_Z   2
loop_
 _symmetry_equiv_pos_site_id
 _symmetry_equiv_pos_as_xyz
  1  'x, y, z'
loop_
 _atom_site_type_symbol
 _atom_site_label
 _atom_site_symmetry_multiplicity
 _atom_site_fract_x
 _atom_site_fract_y
 _atom_site_fract_z
 _atom_site_occupancy
  Pr  Pr0  1  0.27668188  0.48533485  0.86836983  1
  Pr  Pr1  1  0.72911672  0.51889121  0.13626224  1
  Pr  Pr2  1  0.77050029  0.01682192  0.87820317  1
  Pr  Pr3  1  0.23357854  0.92884560  0.13035696  1
  Mn  Mn4  1  0.29750202  0.42817383  0.61191875  1
  Mn  Mn5  1  0.69814552  0.52274879  0.35671287  1
  Mn  Mn6  1  0.99993913  0.00132695  0.01404978  1
  Mn  Mn7  1  0.80633024  0.03031804  0.63479995  1
  Mn  Mn8  1  0.20898334  0.06120751  0.39044511  1
  Mn  Mn9  1  0.49540750  0.47530134  0.99651875  1
  Sb  Sb10  1  0.88005954  0.86813031  0.45218882  1
  Sb  Sb11  1  0.10602958  0.00056304  0.53953461  1
  Sb  Sb12  1  0.03880760  0.50184469  0.82569601  1
  Sb  Sb13  1  0.95912913  0.46430009  0.19485044  1
  Sb  Sb14  1  0.40784077  0.56582869  0.46541059  1
  Sb  Sb15  1  0.60296918  0.56850537  0.52990205  1
  Sb  Sb16  1  0.52791464  0.94594843  0.80507387  1
  Sb  Sb17  1  0.46107714  0.99816421  0.18394746  1
  S  S18  1  0.93730459  0.00676220  0.81027218  1
  S  S19  1  0.05560868  0.03060234  0.19430986  1
  S  S20  1  0.42087359  0.98941584  0.98363724  1
  S  S21  1  0.57837058  0.99943794  0.00931441  1
  S  S22  1  0.17479255  0.93580872  0.89496679  1
  S  S23  1  0.81561575  0.03358977  0.09618949  1
  S  S24  1  0.10633196  0.45992001  0.65558714  1
  S  S25  1  0.89837536  0.42035162  0.34762875  1
  S  S26  1  0.72588039  0.03969454  0.30399876  1
  S  S27  1  0.26978053  0.96505725  0.68710892  1
  S  S28  1  0.17219137  0.50476452  0.45722889  1
  S  S29  1  0.81610652  0.54130090  0.55366278  1
  S  S30  1  0.43905266  0.45234448  0.81142552  1
  S  S31  1  0.56496129  0.50379464  0.20041604  1
  S  S32  1  0.91690725  0.54480861  0.99741896  1
  S  S33  1  0.09009523  0.49281682  0.02506037  1
  S  S34  1  0.65780395  0.48033732  0.87840592  1
  S  S35  1  0.32360748  0.42763837  0.09517582  1
  S  S36  1  0.59667753  0.00163881  0.63851168  1
  S  S37  1  0.40383082  0.04132461  0.34554859  1
  S  S38  1  0.24558392  0.49404550  0.32057939  1
  S  S39  1  0.75637090  0.49434546  0.69995696  1
  S  S40  1  0.67165180  0.97485523  0.44635619  1
  S  S41  1  0.33141704  0.96262284  0.54479584  1
