# generated using pymatgen
data_Pr2Mn3(SbS3)4
_symmetry_space_group_name_H-M   'P 1'
_cell_length_a   20.02960800
_cell_length_b   3.90410600
_cell_length_c   14.95364829
_cell_angle_alpha   90.00000000
_cell_angle_beta   126.33350609
_cell_angle_gamma   90.00000000
_symmetry_Int_Tables_number   1
_chemical_formula_structural   Pr2Mn3(SbS3)4
_chemical_formula_sum   'Pr4 Mn6 Sb8 S24'
_cell_volume   942.00006694
_cell_formula_units_Z   2
loop_
 _symmetry_equiv_pos_site_id
 _symmetry_equiv_pos_as_xyz
  1  'x, y, z'
loop_
 _atom_site_type_symbol
 _atom_site_label
 _atom_site_symmetry_multiplicity
 _atom_site_fract_x
 _atom_site_fract_y
 _atom_site_fract_z
 _atom_site_occupancy
  Pr  Pr0  1  0.27665761  0.48529608  0.86840952  1
  Pr  Pr1  1  0.72911925  0.51953544  0.13597316  1
  Pr  Pr2  1  0.77031785  0.01680995  0.87792458  1
  Pr  Pr3  1  0.23362190  0.92905757  0.13041905  1
  Mn  Mn4  1  0.29758080  0.42782849  0.61186985  1
  Mn  Mn5  1  0.69825723  0.52248240  0.35686189  1
  Mn  Mn6  1  0.99975156  0.00155184  0.01392319  1
  Mn  Mn7  1  0.80611912  0.02985076  0.63439318  1
  Mn  Mn8  1  0.20893050  0.06139155  0.39056024  1
  Mn  Mn9  1  0.49558393  0.47542020  0.99690123  1
  Sb  Sb10  1  0.88005544  0.86809695  0.45218989  1
  Sb  Sb11  1  0.10603004  0.00078056  0.53942465  1
  Sb  Sb12  1  0.03897781  0.50173993  0.82576178  1
  Sb  Sb13  1  0.95913115  0.46449760  0.19479428  1
  Sb  Sb14  1  0.40779029  0.56551193  0.46547214  1
  Sb  Sb15  1  0.60296523  0.56828595  0.52982158  1
  Sb  Sb16  1  0.52770901  0.94593193  0.80505177  1
  Sb  Sb17  1  0.46099598  0.99827127  0.18373563  1
  S  S18  1  0.93699184  0.00760132  0.80992584  1
  S  S19  1  0.05580951  0.03139409  0.19446775  1
  S  S20  1  0.42085454  0.98887740  0.98359598  1
  S  S21  1  0.57818532  0.99915273  0.00877706  1
  S  S22  1  0.17434445  0.93503721  0.89475705  1
  S  S23  1  0.81553679  0.03469562  0.09607282  1
  S  S24  1  0.10640906  0.45970981  0.65567937  1
  S  S25  1  0.89851937  0.42104999  0.34790524  1
  S  S26  1  0.72606656  0.04033765  0.30408479  1
  S  S27  1  0.26948240  0.96494683  0.68709218  1
  S  S28  1  0.17234317  0.50381999  0.45745558  1
  S  S29  1  0.81591818  0.54127171  0.55358665  1
  S  S30  1  0.43930511  0.45216499  0.81126085  1
  S  S31  1  0.56486035  0.50439310  0.20078729  1
  S  S32  1  0.91720180  0.54447403  0.99780658  1
  S  S33  1  0.09020662  0.49221517  0.02520759  1
  S  S34  1  0.65788440  0.48030885  0.87851903  1
  S  S35  1  0.32349687  0.42738154  0.09495693  1
  S  S36  1  0.59659883  0.00054729  0.63852844  1
  S  S37  1  0.40421575  0.03972926  0.34586722  1
  S  S38  1  0.24537309  0.49316745  0.32047294  1
  S  S39  1  0.75604733  0.49409217  0.69966603  1
  S  S40  1  0.67146695  0.97432235  0.44589456  1
  S  S41  1  0.33125654  0.96237697  0.54461140  1
