# generated using pymatgen
data_Pr2Mn3(SbS3)4
_symmetry_space_group_name_H-M   'P 1'
_cell_length_a   20.02960800
_cell_length_b   3.90410600
_cell_length_c   14.95364829
_cell_angle_alpha   90.00000000
_cell_angle_beta   126.33350609
_cell_angle_gamma   90.00000000
_symmetry_Int_Tables_number   1
_chemical_formula_structural   Pr2Mn3(SbS3)4
_chemical_formula_sum   'Pr4 Mn6 Sb8 S24'
_cell_volume   942.00006694
_cell_formula_units_Z   2
loop_
 _symmetry_equiv_pos_site_id
 _symmetry_equiv_pos_as_xyz
  1  'x, y, z'
loop_
 _atom_site_type_symbol
 _atom_site_label
 _atom_site_symmetry_multiplicity
 _atom_site_fract_x
 _atom_site_fract_y
 _atom_site_fract_z
 _atom_site_occupancy
  Pr  Pr0  1  0.27667421  0.48514399  0.86850908  1
  Pr  Pr1  1  0.72913164  0.51986332  0.13574664  1
  Pr  Pr2  1  0.77009285  0.01685730  0.87764140  1
  Pr  Pr3  1  0.23361408  0.92909146  0.13043123  1
  Mn  Mn4  1  0.29755113  0.42762472  0.61178389  1
  Mn  Mn5  1  0.69844435  0.52238183  0.35705782  1
  Mn  Mn6  1  0.99957783  0.00175344  0.01372142  1
  Mn  Mn7  1  0.80596563  0.02929286  0.63397299  1
  Mn  Mn8  1  0.20893406  0.06129082  0.39075135  1
  Mn  Mn9  1  0.49566589  0.47520704  0.99722683  1
  Sb  Sb10  1  0.88011202  0.86811712  0.45219476  1
  Sb  Sb11  1  0.10604066  0.00113444  0.53935784  1
  Sb  Sb12  1  0.03907954  0.50156483  0.82574593  1
  Sb  Sb13  1  0.95908468  0.46467240  0.19474635  1
  Sb  Sb14  1  0.40774716  0.56516088  0.46558149  1
  Sb  Sb15  1  0.60289678  0.56799015  0.52963535  1
  Sb  Sb16  1  0.52753302  0.94593101  0.80499324  1
  Sb  Sb17  1  0.46093925  0.99817198  0.18355749  1
  S  S18  1  0.93672765  0.00789900  0.80952716  1
  S  S19  1  0.05604622  0.03215079  0.19465525  1
  S  S20  1  0.42092034  0.98831052  0.98360721  1
  S  S21  1  0.57799891  0.99873257  0.00835054  1
  S  S22  1  0.17387955  0.93451678  0.89456884  1
  S  S23  1  0.81560998  0.03564769  0.09606578  1
  S  S24  1  0.10639617  0.45875887  0.65568932  1
  S  S25  1  0.89865292  0.42162551  0.34803199  1
  S  S26  1  0.72625306  0.04106270  0.30426428  1
  S  S27  1  0.26916001  0.96461680  0.68706618  1
  S  S28  1  0.17233598  0.50260277  0.45754347  1
  S  S29  1  0.81581943  0.54100861  0.55341947  1
  S  S30  1  0.43964631  0.45171620  0.81120615  1
  S  S31  1  0.56466548  0.50511423  0.20098933  1
  S  S32  1  0.91730653  0.54406569  0.99811637  1
  S  S33  1  0.09016004  0.49106269  0.02534620  1
  S  S34  1  0.65790740  0.48030351  0.87865187  1
  S  S35  1  0.32341214  0.42756286  0.09464078  1
  S  S36  1  0.59644619  0.99997604  0.63850998  1
  S  S37  1  0.40458012  0.03825709  0.34617221  1
  S  S38  1  0.24513570  0.49246595  0.32025027  1
  S  S39  1  0.75581339  0.49396855  0.69948390  1
  S  S40  1  0.67135267  0.97383831  0.44535442  1
  S  S41  1  0.33099428  0.96214451  0.54438355  1
