# generated using pymatgen
data_Pr2Mn3(SbS3)4
_symmetry_space_group_name_H-M   'P 1'
_cell_length_a   20.02960800
_cell_length_b   3.90410600
_cell_length_c   14.95364829
_cell_angle_alpha   90.00000000
_cell_angle_beta   126.33350609
_cell_angle_gamma   90.00000000
_symmetry_Int_Tables_number   1
_chemical_formula_structural   Pr2Mn3(SbS3)4
_chemical_formula_sum   'Pr4 Mn6 Sb8 S24'
_cell_volume   942.00006694
_cell_formula_units_Z   2
loop_
 _symmetry_equiv_pos_site_id
 _symmetry_equiv_pos_as_xyz
  1  'x, y, z'
loop_
 _atom_site_type_symbol
 _atom_site_label
 _atom_site_symmetry_multiplicity
 _atom_site_fract_x
 _atom_site_fract_y
 _atom_site_fract_z
 _atom_site_occupancy
  Pr  Pr0  1  0.27671179  0.48496402  0.86864127  1
  Pr  Pr1  1  0.72920095  0.52025040  0.13551204  1
  Pr  Pr2  1  0.76990572  0.01693633  0.87736472  1
  Pr  Pr3  1  0.23362342  0.92936437  0.13045219  1
  Mn  Mn4  1  0.29750811  0.42717545  0.61167395  1
  Mn  Mn5  1  0.69864963  0.52220094  0.35729318  1
  Mn  Mn6  1  0.99931538  0.00173742  0.01338672  1
  Mn  Mn7  1  0.80587889  0.02863676  0.63369314  1
  Mn  Mn8  1  0.20902420  0.06117550  0.39096232  1
  Mn  Mn9  1  0.49577699  0.47493887  0.99762048  1
  Sb  Sb10  1  0.88017055  0.86817151  0.45212465  1
  Sb  Sb11  1  0.10610912  0.00162597  0.53928986  1
  Sb  Sb12  1  0.03915076  0.50135842  0.82566429  1
  Sb  Sb13  1  0.95903809  0.46457467  0.19467377  1
  Sb  Sb14  1  0.40772202  0.56475487  0.46569372  1
  Sb  Sb15  1  0.60289169  0.56786262  0.52952177  1
  Sb  Sb16  1  0.52735454  0.94597540  0.80491315  1
  Sb  Sb17  1  0.46088254  0.99811884  0.18332729  1
  S  S18  1  0.93637366  0.00817533  0.80895476  1
  S  S19  1  0.05626158  0.03265379  0.19476359  1
  S  S20  1  0.42096783  0.98808646  0.98354271  1
  S  S21  1  0.57784965  0.99829701  0.00793513  1
  S  S22  1  0.17347854  0.93420460  0.89439241  1
  S  S23  1  0.81572329  0.03670277  0.09606002  1
  S  S24  1  0.10631081  0.45835855  0.65567459  1
  S  S25  1  0.89875546  0.42205448  0.34813519  1
  S  S26  1  0.72644079  0.04176347  0.30437704  1
  S  S27  1  0.26889783  0.96420667  0.68710164  1
  S  S28  1  0.17242066  0.50097577  0.45768060  1
  S  S29  1  0.81584690  0.54072575  0.55321426  1
  S  S30  1  0.44000399  0.45137277  0.81120825  1
  S  S31  1  0.56449676  0.50557892  0.20116216  1
  S  S32  1  0.91734990  0.54356847  0.99829665  1
  S  S33  1  0.09006077  0.48990501  0.02545874  1
  S  S34  1  0.65794039  0.48043375  0.87877209  1
  S  S35  1  0.32327533  0.42743189  0.09443364  1
  S  S36  1  0.59621198  0.99946698  0.63841225  1
  S  S37  1  0.40496271  0.03680253  0.34644422  1
  S  S38  1  0.24486366  0.49177306  0.32009395  1
  S  S39  1  0.75552073  0.49356107  0.69920622  1
  S  S40  1  0.67120749  0.97368491  0.44485930  1
  S  S41  1  0.33081462  0.96183744  0.54409985  1
