# generated using pymatgen
data_Pr2Mn3(SbS3)4
_symmetry_space_group_name_H-M   'P 1'
_cell_length_a   20.02960800
_cell_length_b   3.90410600
_cell_length_c   14.95364829
_cell_angle_alpha   90.00000000
_cell_angle_beta   126.33350609
_cell_angle_gamma   90.00000000
_symmetry_Int_Tables_number   1
_chemical_formula_structural   Pr2Mn3(SbS3)4
_chemical_formula_sum   'Pr4 Mn6 Sb8 S24'
_cell_volume   942.00006694
_cell_formula_units_Z   2
loop_
 _symmetry_equiv_pos_site_id
 _symmetry_equiv_pos_as_xyz
  1  'x, y, z'
loop_
 _atom_site_type_symbol
 _atom_site_label
 _atom_site_symmetry_multiplicity
 _atom_site_fract_x
 _atom_site_fract_y
 _atom_site_fract_z
 _atom_site_occupancy
  Pr  Pr0  1  0.27679660  0.48481673  0.86877557  1
  Pr  Pr1  1  0.72924655  0.52057448  0.13525492  1
  Pr  Pr2  1  0.76973793  0.01716402  0.87709160  1
  Pr  Pr3  1  0.23363746  0.92961406  0.13045121  1
  Mn  Mn4  1  0.29739169  0.42670783  0.61155448  1
  Mn  Mn5  1  0.69884019  0.52233531  0.35751465  1
  Mn  Mn6  1  0.99907403  0.00191846  0.01298387  1
  Mn  Mn7  1  0.80582389  0.02786582  0.63336568  1
  Mn  Mn8  1  0.20913513  0.06085893  0.39121338  1
  Mn  Mn9  1  0.49582222  0.47533418  0.99790748  1
  Sb  Sb10  1  0.88018779  0.86839292  0.45202064  1
  Sb  Sb11  1  0.10619225  0.00201270  0.53925831  1
  Sb  Sb12  1  0.03919226  0.50124771  0.82552713  1
  Sb  Sb13  1  0.95900772  0.46472950  0.19458460  1
  Sb  Sb14  1  0.40772434  0.56423996  0.46578369  1
  Sb  Sb15  1  0.60288452  0.56772129  0.52936271  1
  Sb  Sb16  1  0.52712924  0.94616773  0.80479068  1
  Sb  Sb17  1  0.46078878  0.99828251  0.18311992  1
  S  S18  1  0.93599702  0.00806230  0.80837446  1
  S  S19  1  0.05647048  0.03346334  0.19496059  1
  S  S20  1  0.42103735  0.98760521  0.98343236  1
  S  S21  1  0.57778468  0.99747486  0.00758699  1
  S  S22  1  0.17318000  0.93410873  0.89420112  1
  S  S23  1  0.81568792  0.03761489  0.09585673  1
  S  S24  1  0.10622164  0.45760918  0.65571335  1
  S  S25  1  0.89898134  0.42262726  0.34832413  1
  S  S26  1  0.72658937  0.04213110  0.30445468  1
  S  S27  1  0.26861061  0.96349919  0.68713890  1
  S  S28  1  0.17249879  0.49922972  0.45779519  1
  S  S29  1  0.81590800  0.54090134  0.55305807  1
  S  S30  1  0.44030361  0.45143806  0.81116971  1
  S  S31  1  0.56432551  0.50589199  0.20135957  1
  S  S32  1  0.91730711  0.54268634  0.99847275  1
  S  S33  1  0.09002206  0.48896457  0.02563888  1
  S  S34  1  0.65801658  0.48075624  0.87884998  1
  S  S35  1  0.32305580  0.42815168  0.09411448  1
  S  S36  1  0.59597832  0.99909673  0.63838995  1
  S  S37  1  0.40519366  0.03548087  0.34653391  1
  S  S38  1  0.24468381  0.49128020  0.32010776  1
  S  S39  1  0.75524977  0.49301546  0.69901446  1
  S  S40  1  0.67105330  0.97355219  0.44447525  1
  S  S41  1  0.33072820  0.96094210  0.54387210  1
