# generated using pymatgen
data_Pr2Mn3(SbS3)4
_symmetry_space_group_name_H-M   'P 1'
_cell_length_a   20.02960800
_cell_length_b   3.90410600
_cell_length_c   14.95364829
_cell_angle_alpha   90.00000000
_cell_angle_beta   126.33350609
_cell_angle_gamma   90.00000000
_symmetry_Int_Tables_number   1
_chemical_formula_structural   Pr2Mn3(SbS3)4
_chemical_formula_sum   'Pr4 Mn6 Sb8 S24'
_cell_volume   942.00006694
_cell_formula_units_Z   2
loop_
 _symmetry_equiv_pos_site_id
 _symmetry_equiv_pos_as_xyz
  1  'x, y, z'
loop_
 _atom_site_type_symbol
 _atom_site_label
 _atom_site_symmetry_multiplicity
 _atom_site_fract_x
 _atom_site_fract_y
 _atom_site_fract_z
 _atom_site_occupancy
  Pr  Pr0  1  0.27690938  0.48495122  0.86895055  1
  Pr  Pr1  1  0.72923425  0.52060476  0.13499301  1
  Pr  Pr2  1  0.76959285  0.01744709  0.87676978  1
  Pr  Pr3  1  0.23368984  0.92990030  0.13050177  1
  Mn  Mn4  1  0.29725275  0.42602533  0.61138955  1
  Mn  Mn5  1  0.69904949  0.52250789  0.35778454  1
  Mn  Mn6  1  0.99877147  0.00194867  0.01258542  1
  Mn  Mn7  1  0.80575918  0.02718218  0.63293198  1
  Mn  Mn8  1  0.20913811  0.06047815  0.39131042  1
  Mn  Mn9  1  0.49587990  0.47554992  0.99812409  1
  Sb  Sb10  1  0.88022989  0.86867269  0.45197622  1
  Sb  Sb11  1  0.10624283  0.00237067  0.53917956  1
  Sb  Sb12  1  0.03916346  0.50124241  0.82529978  1
  Sb  Sb13  1  0.95898358  0.46518569  0.19453649  1
  Sb  Sb14  1  0.40768844  0.56372302  0.46581507  1
  Sb  Sb15  1  0.60288810  0.56776364  0.52924669  1
  Sb  Sb16  1  0.52692246  0.94647361  0.80469237  1
  Sb  Sb17  1  0.46072403  0.99840652  0.18294654  1
  S  S18  1  0.93577387  0.00788109  0.80785464  1
  S  S19  1  0.05664755  0.03415633  0.19524248  1
  S  S20  1  0.42106851  0.98668292  0.98344285  1
  S  S21  1  0.57783620  0.99653574  0.00751834  1
  S  S22  1  0.17301976  0.93435561  0.89402271  1
  S  S23  1  0.81559053  0.03848663  0.09576616  1
  S  S24  1  0.10619909  0.45712267  0.65587563  1
  S  S25  1  0.89914335  0.42309314  0.34846103  1
  S  S26  1  0.72683380  0.04262760  0.30469440  1
  S  S27  1  0.26831219  0.96319959  0.68704647  1
  S  S28  1  0.17260397  0.49773519  0.45785686  1
  S  S29  1  0.81601452  0.54105623  0.55287897  1
  S  S30  1  0.44056841  0.45154591  0.81119262  1
  S  S31  1  0.56421423  0.50609308  0.20145463  1
  S  S32  1  0.91737618  0.54113425  0.99863812  1
  S  S33  1  0.09003482  0.48800175  0.02584895  1
  S  S34  1  0.65790523  0.48140354  0.87893851  1
  S  S35  1  0.32286834  0.42838730  0.09392221  1
  S  S36  1  0.59573320  0.99934090  0.63836564  1
  S  S37  1  0.40543453  0.03457166  0.34668332  1
  S  S38  1  0.24447038  0.49082526  0.32013577  1
  S  S39  1  0.75505630  0.49251452  0.69894114  1
  S  S40  1  0.67091140  0.97327169  0.44415051  1
  S  S41  1  0.33051678  0.96051619  0.54353953  1
