# generated using pymatgen
data_Pr2Mn3(SbS3)4
_symmetry_space_group_name_H-M   'P 1'
_cell_length_a   20.02960800
_cell_length_b   3.90410600
_cell_length_c   14.95364829
_cell_angle_alpha   90.00000000
_cell_angle_beta   126.33350609
_cell_angle_gamma   90.00000000
_symmetry_Int_Tables_number   1
_chemical_formula_structural   Pr2Mn3(SbS3)4
_chemical_formula_sum   'Pr4 Mn6 Sb8 S24'
_cell_volume   942.00006694
_cell_formula_units_Z   2
loop_
 _symmetry_equiv_pos_site_id
 _symmetry_equiv_pos_as_xyz
  1  'x, y, z'
loop_
 _atom_site_type_symbol
 _atom_site_label
 _atom_site_symmetry_multiplicity
 _atom_site_fract_x
 _atom_site_fract_y
 _atom_site_fract_z
 _atom_site_occupancy
  Pr  Pr0  1  0.27701290  0.48498269  0.86911160  1
  Pr  Pr1  1  0.72922397  0.52040570  0.13473139  1
  Pr  Pr2  1  0.76945029  0.01781531  0.87645188  1
  Pr  Pr3  1  0.23372455  0.92994042  0.13054265  1
  Mn  Mn4  1  0.29723457  0.42557625  0.61127653  1
  Mn  Mn5  1  0.69929611  0.52269339  0.35817031  1
  Mn  Mn6  1  0.99850168  0.00170694  0.01226541  1
  Mn  Mn7  1  0.80571513  0.02615682  0.63256702  1
  Mn  Mn8  1  0.20914164  0.06025158  0.39134193  1
  Mn  Mn9  1  0.49601326  0.47604671  0.99829983  1
  Sb  Sb10  1  0.88029562  0.86889780  0.45192647  1
  Sb  Sb11  1  0.10630460  0.00265014  0.53912671  1
  Sb  Sb12  1  0.03912679  0.50137052  0.82509265  1
  Sb  Sb13  1  0.95897463  0.46558027  0.19446361  1
  Sb  Sb14  1  0.40764491  0.56318132  0.46580463  1
  Sb  Sb15  1  0.60290362  0.56777387  0.52915249  1
  Sb  Sb16  1  0.52674460  0.94668695  0.80462018  1
  Sb  Sb17  1  0.46069017  0.99853329  0.18278443  1
  S  S18  1  0.93553805  0.00760302  0.80730687  1
  S  S19  1  0.05683469  0.03446138  0.19545879  1
  S  S20  1  0.42105378  0.98591576  0.98343355  1
  S  S21  1  0.57787563  0.99572667  0.00735412  1
  S  S22  1  0.17295428  0.93434402  0.89369928  1
  S  S23  1  0.81545455  0.03990069  0.09576459  1
  S  S24  1  0.10622241  0.45707717  0.65601835  1
  S  S25  1  0.89934137  0.42321513  0.34869880  1
  S  S26  1  0.72699265  0.04261788  0.30486977  1
  S  S27  1  0.26802978  0.96229570  0.68691585  1
  S  S28  1  0.17279715  0.49648413  0.45809287  1
  S  S29  1  0.81615620  0.54036977  0.55270549  1
  S  S30  1  0.44082019  0.45222583  0.81113794  1
  S  S31  1  0.56412647  0.50619875  0.20153473  1
  S  S32  1  0.91745073  0.53963067  0.99873241  1
  S  S33  1  0.08994672  0.48656279  0.02599518  1
  S  S34  1  0.65786381  0.48189659  0.87901935  1
  S  S35  1  0.32265245  0.42829588  0.09364907  1
  S  S36  1  0.59549661  0.99952408  0.63844750  1
  S  S37  1  0.40556197  0.03389743  0.34670119  1
  S  S38  1  0.24420988  0.49040113  0.31997864  1
  S  S39  1  0.75487936  0.49237179  0.69883402  1
  S  S40  1  0.67079596  0.97375953  0.44393420  1
  S  S41  1  0.33031584  0.96012963  0.54324537  1
