# generated using pymatgen
data_Pr2Mn3(SbS3)4
_symmetry_space_group_name_H-M   'P 1'
_cell_length_a   20.02960800
_cell_length_b   3.90410600
_cell_length_c   14.95364829
_cell_angle_alpha   90.00000000
_cell_angle_beta   126.33350609
_cell_angle_gamma   90.00000000
_symmetry_Int_Tables_number   1
_chemical_formula_structural   Pr2Mn3(SbS3)4
_chemical_formula_sum   'Pr4 Mn6 Sb8 S24'
_cell_volume   942.00006694
_cell_formula_units_Z   2
loop_
 _symmetry_equiv_pos_site_id
 _symmetry_equiv_pos_as_xyz
  1  'x, y, z'
loop_
 _atom_site_type_symbol
 _atom_site_label
 _atom_site_symmetry_multiplicity
 _atom_site_fract_x
 _atom_site_fract_y
 _atom_site_fract_z
 _atom_site_occupancy
  Pr  Pr0  1  0.26573485  0.47657092  0.86488264  1
  Pr  Pr1  1  0.73544661  0.51846422  0.13570990  1
  Pr  Pr2  1  0.76516386  0.01412592  0.86526009  1
  Pr  Pr3  1  0.23830308  0.00735469  0.13820917  1
  Mn  Mn4  1  0.29292230  0.47830610  0.60057873  1
  Mn  Mn5  1  0.69092285  0.50567822  0.37967625  1
  Mn  Mn6  1  0.01052536  0.00010315  0.01703895  1
  Mn  Mn7  1  0.80411220  0.01581499  0.61379358  1
  Mn  Mn8  1  0.19747502  0.97471175  0.37894758  1
  Mn  Mn9  1  0.49380762  0.46168660  0.98943675  1
  Sb  Sb10  1  0.89024295  0.98263579  0.45007764  1
  Sb  Sb11  1  0.11264390  0.97682659  0.54867177  1
  Sb  Sb12  1  0.03924546  0.51846616  0.81921422  1
  Sb  Sb13  1  0.96589745  0.50800443  0.18679582  1
  Sb  Sb14  1  0.39624564  0.51308964  0.45468430  1
  Sb  Sb15  1  0.60586529  0.47554383  0.54741780  1
  Sb  Sb16  1  0.53471676  0.00738909  0.81080298  1
  Sb  Sb17  1  0.46003978  0.01690399  0.18077340  1
  S  S18  1  0.93348866  0.98920517  0.80066050  1
  S  S19  1  0.06663140  0.98785113  0.19273417  1
  S  S20  1  0.40830205  0.98311541  0.98309901  1
  S  S21  1  0.58632109  0.98544805  0.01445343  1
  S  S22  1  0.16909282  0.01673488  0.89661136  1
  S  S23  1  0.82471105  0.02915044  0.09566119  1
  S  S24  1  0.09118324  0.47909107  0.64391127  1
  S  S25  1  0.90988908  0.46845552  0.35621390  1
  S  S26  1  0.74051272  0.94745110  0.30215179  1
  S  S27  1  0.26339726  0.00261255  0.71160438  1
  S  S28  1  0.16354913  0.46923976  0.43759769  1
  S  S29  1  0.82856968  0.48393282  0.54818327  1
  S  S30  1  0.43187828  0.49408076  0.79500831  1
  S  S31  1  0.56097430  0.50720944  0.18390617  1
  S  S32  1  0.91268591  0.50295314  0.98775369  1
  S  S33  1  0.08676025  0.47569307  0.01892595  1
  S  S34  1  0.66617233  0.50430247  0.88828090  1
  S  S35  1  0.32714926  0.52766118  0.09210543  1
  S  S36  1  0.59660109  0.98969018  0.65913994  1
  S  S37  1  0.40637199  0.98144106  0.35018161  1
  S  S38  1  0.24359624  0.44470492  0.30849757  1
  S  S39  1  0.76807072  0.50236546  0.70562803  1
  S  S40  1  0.67096285  0.03051116  0.45563238  1
  S  S41  1  0.32187331  0.97382968  0.54395981  1
