# generated using pymatgen
data_Pr2Mn3(SbS3)4
_symmetry_space_group_name_H-M   'P 1'
_cell_length_a   20.02960800
_cell_length_b   3.90410600
_cell_length_c   14.95364829
_cell_angle_alpha   90.00000000
_cell_angle_beta   126.33350609
_cell_angle_gamma   90.00000000
_symmetry_Int_Tables_number   1
_chemical_formula_structural   Pr2Mn3(SbS3)4
_chemical_formula_sum   'Pr4 Mn6 Sb8 S24'
_cell_volume   942.00006694
_cell_formula_units_Z   2
loop_
 _symmetry_equiv_pos_site_id
 _symmetry_equiv_pos_as_xyz
  1  'x, y, z'
loop_
 _atom_site_type_symbol
 _atom_site_label
 _atom_site_symmetry_multiplicity
 _atom_site_fract_x
 _atom_site_fract_y
 _atom_site_fract_z
 _atom_site_occupancy
  Pr  Pr0  1  0.27712180  0.48510387  0.86920125  1
  Pr  Pr1  1  0.72920298  0.52042123  0.13446617  1
  Pr  Pr2  1  0.76931308  0.01811458  0.87613825  1
  Pr  Pr3  1  0.23371840  0.92977574  0.13059592  1
  Mn  Mn4  1  0.29715047  0.42516904  0.61104580  1
  Mn  Mn5  1  0.69959132  0.52316881  0.35850592  1
  Mn  Mn6  1  0.99829867  0.00124643  0.01211094  1
  Mn  Mn7  1  0.80568317  0.02550784  0.63223670  1
  Mn  Mn8  1  0.20922673  0.05999979  0.39142069  1
  Mn  Mn9  1  0.49611855  0.47623185  0.99839617  1
  Sb  Sb10  1  0.88034385  0.86894386  0.45183632  1
  Sb  Sb11  1  0.10637822  0.00285968  0.53914681  1
  Sb  Sb12  1  0.03912094  0.50141011  0.82487690  1
  Sb  Sb13  1  0.95898971  0.46581484  0.19443522  1
  Sb  Sb14  1  0.40754906  0.56261139  0.46578818  1
  Sb  Sb15  1  0.60293676  0.56779172  0.52913586  1
  Sb  Sb16  1  0.52659215  0.94682838  0.80456946  1
  Sb  Sb17  1  0.46064660  0.99862566  0.18259630  1
  S  S18  1  0.93535152  0.00738879  0.80683597  1
  S  S19  1  0.05705183  0.03478860  0.19573393  1
  S  S20  1  0.42103811  0.98547875  0.98340631  1
  S  S21  1  0.57789868  0.99490739  0.00722279  1
  S  S22  1  0.17310710  0.93375677  0.89348776  1
  S  S23  1  0.81527310  0.04110997  0.09570500  1
  S  S24  1  0.10615440  0.45711422  0.65603172  1
  S  S25  1  0.89952488  0.42380640  0.34908110  1
  S  S26  1  0.72724693  0.04282664  0.30516210  1
  S  S27  1  0.26771245  0.96203065  0.68663693  1
  S  S28  1  0.17295619  0.49547500  0.45824388  1
  S  S29  1  0.81629130  0.53984039  0.55263700  1
  S  S30  1  0.44102677  0.45242427  0.81107470  1
  S  S31  1  0.56400957  0.50661018  0.20153158  1
  S  S32  1  0.91762893  0.53775927  0.99893177  1
  S  S33  1  0.08981222  0.48557525  0.02604644  1
  S  S34  1  0.65779795  0.48248135  0.87919364  1
  S  S35  1  0.32248373  0.42918532  0.09356677  1
  S  S36  1  0.59534141  0.99974905  0.63843167  1
  S  S37  1  0.40576862  0.03345852  0.34663104  1
  S  S38  1  0.24403400  0.48986953  0.31988609  1
  S  S39  1  0.75469719  0.49274542  0.69875328  1
  S  S40  1  0.67065649  0.97440813  0.44369645  1
  S  S41  1  0.33005638  0.96016331  0.54286900  1
