# generated using pymatgen
data_Pr2Mn3(SbS3)4
_symmetry_space_group_name_H-M   'P 1'
_cell_length_a   20.02960800
_cell_length_b   3.90410600
_cell_length_c   14.95364829
_cell_angle_alpha   90.00000000
_cell_angle_beta   126.33350609
_cell_angle_gamma   90.00000000
_symmetry_Int_Tables_number   1
_chemical_formula_structural   Pr2Mn3(SbS3)4
_chemical_formula_sum   'Pr4 Mn6 Sb8 S24'
_cell_volume   942.00006694
_cell_formula_units_Z   2
loop_
 _symmetry_equiv_pos_site_id
 _symmetry_equiv_pos_as_xyz
  1  'x, y, z'
loop_
 _atom_site_type_symbol
 _atom_site_label
 _atom_site_symmetry_multiplicity
 _atom_site_fract_x
 _atom_site_fract_y
 _atom_site_fract_z
 _atom_site_occupancy
  Pr  Pr0  1  0.27720339  0.48511763  0.86926560  1
  Pr  Pr1  1  0.72925765  0.52029624  0.13426720  1
  Pr  Pr2  1  0.76913368  0.01845743  0.87581645  1
  Pr  Pr3  1  0.23369815  0.92956892  0.13064997  1
  Mn  Mn4  1  0.29696152  0.42519408  0.61066487  1
  Mn  Mn5  1  0.69985149  0.52362163  0.35871947  1
  Mn  Mn6  1  0.99808366  0.00095030  0.01189886  1
  Mn  Mn7  1  0.80554502  0.02497076  0.63186802  1
  Mn  Mn8  1  0.20931425  0.05961381  0.39154696  1
  Mn  Mn9  1  0.49628735  0.47621043  0.99855818  1
  Sb  Sb10  1  0.88028217  0.86879274  0.45164938  1
  Sb  Sb11  1  0.10648097  0.00313328  0.53926973  1
  Sb  Sb12  1  0.03913022  0.50117433  0.82474301  1
  Sb  Sb13  1  0.95904796  0.46581949  0.19441454  1
  Sb  Sb14  1  0.40748496  0.56231687  0.46580449  1
  Sb  Sb15  1  0.60286597  0.56758332  0.52905521  1
  Sb  Sb16  1  0.52643028  0.94665799  0.80448729  1
  Sb  Sb17  1  0.46065398  0.99900097  0.18248342  1
  S  S18  1  0.93521101  0.00730772  0.80642778  1
  S  S19  1  0.05739204  0.03521921  0.19611151  1
  S  S20  1  0.42105832  0.98509516  0.98336459  1
  S  S21  1  0.57797753  0.99419846  0.00717974  1
  S  S22  1  0.17316083  0.93332767  0.89324370  1
  S  S23  1  0.81526110  0.04222758  0.09570722  1
  S  S24  1  0.10615080  0.45681040  0.65622827  1
  S  S25  1  0.89973584  0.42461189  0.34947457  1
  S  S26  1  0.72752865  0.04290299  0.30550620  1
  S  S27  1  0.26733816  0.96139684  0.68626677  1
  S  S28  1  0.17312992  0.49441346  0.45842666  1
  S  S29  1  0.81656312  0.53980009  0.55280210  1
  S  S30  1  0.44115317  0.45290914  0.81099797  1
  S  S31  1  0.56386244  0.50686581  0.20148104  1
  S  S32  1  0.91774412  0.53546364  0.99901490  1
  S  S33  1  0.08969308  0.48454956  0.02609740  1
  S  S34  1  0.65779779  0.48274706  0.87938637  1
  S  S35  1  0.32231135  0.42990563  0.09355608  1
  S  S36  1  0.59520004  0.00013749  0.63838451  1
  S  S37  1  0.40588859  0.03303980  0.34653582  1
  S  S38  1  0.24387586  0.48956264  0.31983203  1
  S  S39  1  0.75446564  0.49271364  0.69874780  1
  S  S40  1  0.67056470  0.97507588  0.44372140  1
  S  S41  1  0.32988411  0.96042932  0.54272332  1
