# generated using pymatgen
data_Pr2Mn3(SbS3)4
_symmetry_space_group_name_H-M   'P 1'
_cell_length_a   20.02960800
_cell_length_b   3.90410600
_cell_length_c   14.95364829
_cell_angle_alpha   90.00000000
_cell_angle_beta   126.33350609
_cell_angle_gamma   90.00000000
_symmetry_Int_Tables_number   1
_chemical_formula_structural   Pr2Mn3(SbS3)4
_chemical_formula_sum   'Pr4 Mn6 Sb8 S24'
_cell_volume   942.00006694
_cell_formula_units_Z   2
loop_
 _symmetry_equiv_pos_site_id
 _symmetry_equiv_pos_as_xyz
  1  'x, y, z'
loop_
 _atom_site_type_symbol
 _atom_site_label
 _atom_site_symmetry_multiplicity
 _atom_site_fract_x
 _atom_site_fract_y
 _atom_site_fract_z
 _atom_site_occupancy
  Pr  Pr0  1  0.27729308  0.48519237  0.86933973  1
  Pr  Pr1  1  0.72931034  0.52023232  0.13412204  1
  Pr  Pr2  1  0.76897965  0.01875371  0.87553206  1
  Pr  Pr3  1  0.23368899  0.92935712  0.13065754  1
  Mn  Mn4  1  0.29670351  0.42580405  0.61027338  1
  Mn  Mn5  1  0.70008943  0.52383676  0.35894676  1
  Mn  Mn6  1  0.99789879  0.00077945  0.01163711  1
  Mn  Mn7  1  0.80540172  0.02468066  0.63153666  1
  Mn  Mn8  1  0.20930087  0.05904091  0.39157670  1
  Mn  Mn9  1  0.49644574  0.47616191  0.99867733  1
  Sb  Sb10  1  0.88016321  0.86866885  0.45141159  1
  Sb  Sb11  1  0.10659645  0.00340724  0.53933665  1
  Sb  Sb12  1  0.03917469  0.50088171  0.82460450  1
  Sb  Sb13  1  0.95906223  0.46548786  0.19441295  1
  Sb  Sb14  1  0.40741423  0.56237281  0.46579390  1
  Sb  Sb15  1  0.60279226  0.56726379  0.52894547  1
  Sb  Sb16  1  0.52629425  0.94643137  0.80451635  1
  Sb  Sb17  1  0.46065906  0.99960241  0.18236216  1
  S  S18  1  0.93513797  0.00743919  0.80605050  1
  S  S19  1  0.05768446  0.03580485  0.19652589  1
  S  S20  1  0.42104452  0.98479424  0.98332925  1
  S  S21  1  0.57804274  0.99375159  0.00719348  1
  S  S22  1  0.17322744  0.93258668  0.89308477  1
  S  S23  1  0.81536010  0.04336047  0.09575102  1
  S  S24  1  0.10615492  0.45664917  0.65644770  1
  S  S25  1  0.89992009  0.42562116  0.34984774  1
  S  S26  1  0.72770987  0.04279469  0.30552369  1
  S  S27  1  0.26690034  0.96037690  0.68577835  1
  S  S28  1  0.17322488  0.49316962  0.45841962  1
  S  S29  1  0.81672560  0.53985727  0.55291423  1
  S  S30  1  0.44115059  0.45293793  0.81075128  1
  S  S31  1  0.56363141  0.50749057  0.20129447  1
  S  S32  1  0.91775665  0.53344367  0.99885920  1
  S  S33  1  0.08949083  0.48276531  0.02611040  1
  S  S34  1  0.65780050  0.48346594  0.87946398  1
  S  S35  1  0.32225321  0.43052580  0.09360770  1
  S  S36  1  0.59516892  0.00047025  0.63857009  1
  S  S37  1  0.40601542  0.03232005  0.34648210  1
  S  S38  1  0.24362535  0.48898501  0.31969390  1
  S  S39  1  0.75428492  0.49232615  0.69870450  1
  S  S40  1  0.67046151  0.97537087  0.44367261  1
  S  S41  1  0.32981247  0.96084291  0.54271636  1
