# generated using pymatgen
data_Pr2Mn3(SbS3)4
_symmetry_space_group_name_H-M   'P 1'
_cell_length_a   20.02960800
_cell_length_b   3.90410600
_cell_length_c   14.95364829
_cell_angle_alpha   90.00000000
_cell_angle_beta   126.33350609
_cell_angle_gamma   90.00000000
_symmetry_Int_Tables_number   1
_chemical_formula_structural   Pr2Mn3(SbS3)4
_chemical_formula_sum   'Pr4 Mn6 Sb8 S24'
_cell_volume   942.00006694
_cell_formula_units_Z   2
loop_
 _symmetry_equiv_pos_site_id
 _symmetry_equiv_pos_as_xyz
  1  'x, y, z'
loop_
 _atom_site_type_symbol
 _atom_site_label
 _atom_site_symmetry_multiplicity
 _atom_site_fract_x
 _atom_site_fract_y
 _atom_site_fract_z
 _atom_site_occupancy
  Pr  Pr0  1  0.27731619  0.48530585  0.86939896  1
  Pr  Pr1  1  0.72936306  0.51998800  0.13398790  1
  Pr  Pr2  1  0.76881767  0.01892447  0.87530945  1
  Pr  Pr3  1  0.23365396  0.92953971  0.13062705  1
  Mn  Mn4  1  0.29649050  0.42637568  0.60983567  1
  Mn  Mn5  1  0.70030959  0.52404734  0.35909426  1
  Mn  Mn6  1  0.99775311  0.00071064  0.01145472  1
  Mn  Mn7  1  0.80520912  0.02441344  0.63113402  1
  Mn  Mn8  1  0.20933035  0.05842969  0.39160497  1
  Mn  Mn9  1  0.49659087  0.47602994  0.99874941  1
  Sb  Sb10  1  0.88008066  0.86871630  0.45125421  1
  Sb  Sb11  1  0.10669806  0.00361167  0.53936475  1
  Sb  Sb12  1  0.03913332  0.50079326  0.82441703  1
  Sb  Sb13  1  0.95911458  0.46511805  0.19441103  1
  Sb  Sb14  1  0.40738010  0.56250555  0.46579058  1
  Sb  Sb15  1  0.60270759  0.56702877  0.52884620  1
  Sb  Sb16  1  0.52615051  0.94617493  0.80458059  1
  Sb  Sb17  1  0.46058995  0.00025031  0.18217624  1
  S  S18  1  0.93502030  0.00750581  0.80556638  1
  S  S19  1  0.05803726  0.03665248  0.19682702  1
  S  S20  1  0.42079739  0.98459218  0.98301409  1
  S  S21  1  0.57811289  0.99309110  0.00732068  1
  S  S22  1  0.17324475  0.93221207  0.89298093  1
  S  S23  1  0.81548370  0.04418452  0.09594148  1
  S  S24  1  0.10622637  0.45670472  0.65659880  1
  S  S25  1  0.90006561  0.42639344  0.35003959  1
  S  S26  1  0.72784988  0.04324555  0.30559104  1
  S  S27  1  0.26653826  0.95956918  0.68526811  1
  S  S28  1  0.17334300  0.49274888  0.45849777  1
  S  S29  1  0.81693731  0.54034331  0.55316635  1
  S  S30  1  0.44102339  0.45302241  0.81053839  1
  S  S31  1  0.56344454  0.50770689  0.20121550  1
  S  S32  1  0.91772790  0.53123188  0.99861140  1
  S  S33  1  0.08926245  0.48117361  0.02618768  1
  S  S34  1  0.65775412  0.48382342  0.87942303  1
  S  S35  1  0.32218680  0.43111701  0.09362890  1
  S  S36  1  0.59528305  0.00061593  0.63879011  1
  S  S37  1  0.40593317  0.03115264  0.34632862  1
  S  S38  1  0.24351939  0.48875882  0.31966521  1
  S  S39  1  0.75408623  0.49163568  0.69853160  1
  S  S40  1  0.67032709  0.97598731  0.44355793  1
  S  S41  1  0.32983467  0.96136967  0.54269239  1
