# generated using pymatgen
data_Pr2Mn3(SbS3)4
_symmetry_space_group_name_H-M   'P 1'
_cell_length_a   20.02960800
_cell_length_b   3.90410600
_cell_length_c   14.95364829
_cell_angle_alpha   90.00000000
_cell_angle_beta   126.33350609
_cell_angle_gamma   90.00000000
_symmetry_Int_Tables_number   1
_chemical_formula_structural   Pr2Mn3(SbS3)4
_chemical_formula_sum   'Pr4 Mn6 Sb8 S24'
_cell_volume   942.00006694
_cell_formula_units_Z   2
loop_
 _symmetry_equiv_pos_site_id
 _symmetry_equiv_pos_as_xyz
  1  'x, y, z'
loop_
 _atom_site_type_symbol
 _atom_site_label
 _atom_site_symmetry_multiplicity
 _atom_site_fract_x
 _atom_site_fract_y
 _atom_site_fract_z
 _atom_site_occupancy
  Pr  Pr0  1  0.27736302  0.48518935  0.86950234  1
  Pr  Pr1  1  0.72942865  0.51977410  0.13387184  1
  Pr  Pr2  1  0.76866138  0.01925324  0.87507944  1
  Pr  Pr3  1  0.23368838  0.92967581  0.13063609  1
  Mn  Mn4  1  0.29625335  0.42681135  0.60950769  1
  Mn  Mn5  1  0.70046802  0.52430403  0.35926400  1
  Mn  Mn6  1  0.99768652  0.00065447  0.01123894  1
  Mn  Mn7  1  0.80506778  0.02413517  0.63069183  1
  Mn  Mn8  1  0.20940475  0.05796915  0.39151988  1
  Mn  Mn9  1  0.49671431  0.47599635  0.99876728  1
  Sb  Sb10  1  0.87998659  0.86840187  0.45115987  1
  Sb  Sb11  1  0.10675406  0.00366465  0.53937350  1
  Sb  Sb12  1  0.03911435  0.50059820  0.82430546  1
  Sb  Sb13  1  0.95915609  0.46493595  0.19432063  1
  Sb  Sb14  1  0.40735975  0.56270359  0.46578794  1
  Sb  Sb15  1  0.60267238  0.56699787  0.52877614  1
  Sb  Sb16  1  0.52603874  0.94578398  0.80470729  1
  Sb  Sb17  1  0.46050029  0.00077362  0.18198467  1
  S  S18  1  0.93502536  0.00780196  0.80520684  1
  S  S19  1  0.05837288  0.03767817  0.19712832  1
  S  S20  1  0.42062765  0.98459355  0.98283452  1
  S  S21  1  0.57832128  0.99272131  0.00750570  1
  S  S22  1  0.17340752  0.93129457  0.89303802  1
  S  S23  1  0.81568921  0.04474517  0.09616949  1
  S  S24  1  0.10642103  0.45692018  0.65683653  1
  S  S25  1  0.90024578  0.42727300  0.35024256  1
  S  S26  1  0.72796706  0.04352908  0.30555204  1
  S  S27  1  0.26624657  0.95876503  0.68490091  1
  S  S28  1  0.17352890  0.49265516  0.45866646  1
  S  S29  1  0.81708100  0.54115634  0.55339310  1
  S  S30  1  0.44079692  0.45336484  0.81025479  1
  S  S31  1  0.56320720  0.50774706  0.20115548  1
  S  S32  1  0.91779599  0.52869340  0.99832139  1
  S  S33  1  0.08903013  0.47939579  0.02626102  1
  S  S34  1  0.65763880  0.48417465  0.87934412  1
  S  S35  1  0.32210442  0.43136391  0.09378780  1
  S  S36  1  0.59540371  0.00043274  0.63904381  1
  S  S37  1  0.40595271  0.03014363  0.34626033  1
  S  S38  1  0.24348014  0.48863972  0.31956576  1
  S  S39  1  0.75394793  0.49166461  0.69831247  1
  S  S40  1  0.67019182  0.97716082  0.44354938  1
  S  S41  1  0.32992392  0.96208465  0.54276444  1
