# generated using pymatgen
data_Pr2Mn3(SbS3)4
_symmetry_space_group_name_H-M   'P 1'
_cell_length_a   20.02960800
_cell_length_b   3.90410600
_cell_length_c   14.95364829
_cell_angle_alpha   90.00000000
_cell_angle_beta   126.33350609
_cell_angle_gamma   90.00000000
_symmetry_Int_Tables_number   1
_chemical_formula_structural   Pr2Mn3(SbS3)4
_chemical_formula_sum   'Pr4 Mn6 Sb8 S24'
_cell_volume   942.00006694
_cell_formula_units_Z   2
loop_
 _symmetry_equiv_pos_site_id
 _symmetry_equiv_pos_as_xyz
  1  'x, y, z'
loop_
 _atom_site_type_symbol
 _atom_site_label
 _atom_site_symmetry_multiplicity
 _atom_site_fract_x
 _atom_site_fract_y
 _atom_site_fract_z
 _atom_site_occupancy
  Pr  Pr0  1  0.27746560  0.48519618  0.86966893  1
  Pr  Pr1  1  0.72948504  0.51961925  0.13377544  1
  Pr  Pr2  1  0.76845940  0.01977996  0.87481880  1
  Pr  Pr3  1  0.23375042  0.92975131  0.13066508  1
  Mn  Mn4  1  0.29606496  0.42691401  0.60922762  1
  Mn  Mn5  1  0.70068655  0.52461711  0.35951930  1
  Mn  Mn6  1  0.99758303  0.00073255  0.01105306  1
  Mn  Mn7  1  0.80496552  0.02398891  0.63030418  1
  Mn  Mn8  1  0.20952593  0.05797309  0.39151725  1
  Mn  Mn9  1  0.49670980  0.47564033  0.99875929  1
  Sb  Sb10  1  0.87983614  0.86806500  0.45100290  1
  Sb  Sb11  1  0.10679793  0.00335072  0.53941363  1
  Sb  Sb12  1  0.03906501  0.50033105  0.82422275  1
  Sb  Sb13  1  0.95921502  0.46442997  0.19417115  1
  Sb  Sb14  1  0.40734367  0.56264854  0.46581888  1
  Sb  Sb15  1  0.60264264  0.56686324  0.52877214  1
  Sb  Sb16  1  0.52596036  0.94547435  0.80485386  1
  Sb  Sb17  1  0.46044647  0.00134616  0.18183567  1
  S  S18  1  0.93505027  0.00804480  0.80490696  1
  S  S19  1  0.05856325  0.03854938  0.19736185  1
  S  S20  1  0.42045348  0.98497533  0.98279120  1
  S  S21  1  0.57853307  0.99220828  0.00778702  1
  S  S22  1  0.17352453  0.93076144  0.89299634  1
  S  S23  1  0.81587992  0.04557516  0.09634441  1
  S  S24  1  0.10662375  0.45659231  0.65705236  1
  S  S25  1  0.90033081  0.42790442  0.35039761  1
  S  S26  1  0.72810293  0.04365171  0.30545038  1
  S  S27  1  0.26587714  0.95767605  0.68448317  1
  S  S28  1  0.17375037  0.49231648  0.45884175  1
  S  S29  1  0.81718013  0.54163341  0.55364825  1
  S  S30  1  0.44060793  0.45450761  0.80999585  1
  S  S31  1  0.56304034  0.50789241  0.20110567  1
  S  S32  1  0.91786182  0.52628776  0.99801177  1
  S  S33  1  0.08867093  0.47779122  0.02616372  1
  S  S34  1  0.65758167  0.48439796  0.87946022  1
  S  S35  1  0.32203112  0.43103658  0.09390277  1
  S  S36  1  0.59548284  0.00013828  0.63919672  1
  S  S37  1  0.40602849  0.02971700  0.34637985  1
  S  S38  1  0.24347424  0.48896009  0.31942761  1
  S  S39  1  0.75394886  0.49143500  0.69814681  1
  S  S40  1  0.66993542  0.97832627  0.44334191  1
  S  S41  1  0.32998553  0.96318105  0.54276938  1
