# generated using pymatgen
data_Pr2Mn3(SbS3)4
_symmetry_space_group_name_H-M   'P 1'
_cell_length_a   20.02960800
_cell_length_b   3.90410600
_cell_length_c   14.95364829
_cell_angle_alpha   90.00000000
_cell_angle_beta   126.33350609
_cell_angle_gamma   90.00000000
_symmetry_Int_Tables_number   1
_chemical_formula_structural   Pr2Mn3(SbS3)4
_chemical_formula_sum   'Pr4 Mn6 Sb8 S24'
_cell_volume   942.00006694
_cell_formula_units_Z   2
loop_
 _symmetry_equiv_pos_site_id
 _symmetry_equiv_pos_as_xyz
  1  'x, y, z'
loop_
 _atom_site_type_symbol
 _atom_site_label
 _atom_site_symmetry_multiplicity
 _atom_site_fract_x
 _atom_site_fract_y
 _atom_site_fract_z
 _atom_site_occupancy
  Pr  Pr0  1  0.27752461  0.48526527  0.86983243  1
  Pr  Pr1  1  0.72956409  0.51929116  0.13373899  1
  Pr  Pr2  1  0.76825716  0.02035406  0.87460048  1
  Pr  Pr3  1  0.23383261  0.92975833  0.13068857  1
  Mn  Mn4  1  0.29597799  0.42721025  0.60906173  1
  Mn  Mn5  1  0.70086923  0.52488244  0.35978487  1
  Mn  Mn6  1  0.99750240  0.00097995  0.01088659  1
  Mn  Mn7  1  0.80489364  0.02421919  0.62995576  1
  Mn  Mn8  1  0.20966493  0.05803150  0.39148170  1
  Mn  Mn9  1  0.49671779  0.47513003  0.99860641  1
  Sb  Sb10  1  0.87975872  0.86782543  0.45093355  1
  Sb  Sb11  1  0.10682996  0.00291330  0.53947553  1
  Sb  Sb12  1  0.03900706  0.49999086  0.82418358  1
  Sb  Sb13  1  0.95932643  0.46389695  0.19408146  1
  Sb  Sb14  1  0.40734670  0.56264730  0.46586710  1
  Sb  Sb15  1  0.60258876  0.56689449  0.52873585  1
  Sb  Sb16  1  0.52581684  0.94519380  0.80493616  1
  Sb  Sb17  1  0.46043987  0.00207481  0.18175394  1
  S  S18  1  0.93498905  0.00807052  0.80452763  1
  S  S19  1  0.05870531  0.03892993  0.19757958  1
  S  S20  1  0.42018858  0.98596569  0.98267079  1
  S  S21  1  0.57866877  0.99181145  0.00807037  1
  S  S22  1  0.17362317  0.93078984  0.89303006  1
  S  S23  1  0.81613254  0.04509718  0.09659509  1
  S  S24  1  0.10676727  0.45616931  0.65725556  1
  S  S25  1  0.90044044  0.42853085  0.35061152  1
  S  S26  1  0.72833351  0.04384421  0.30543555  1
  S  S27  1  0.26557409  0.95682967  0.68421325  1
  S  S28  1  0.17377986  0.49151678  0.45887368  1
  S  S29  1  0.81723307  0.54193542  0.55391288  1
  S  S30  1  0.44039770  0.45567523  0.80977747  1
  S  S31  1  0.56291875  0.50811962  0.20097730  1
  S  S32  1  0.91789100  0.52417963  0.99764182  1
  S  S33  1  0.08833946  0.47677357  0.02594965  1
  S  S34  1  0.65746045  0.48457089  0.87952930  1
  S  S35  1  0.32195183  0.43114331  0.09408610  1
  S  S36  1  0.59558022  0.99996419  0.63928925  1
  S  S37  1  0.40613788  0.02929291  0.34646849  1
  S  S38  1  0.24345122  0.48904352  0.31930038  1
  S  S39  1  0.75387577  0.49095357  0.69781992  1
  S  S40  1  0.66968766  0.97926727  0.44307402  1
  S  S41  1  0.33002129  0.96322702  0.54292681  1
