# generated using pymatgen
data_Pr2Mn3(SbS3)4
_symmetry_space_group_name_H-M   'P 1'
_cell_length_a   20.02960800
_cell_length_b   3.90410600
_cell_length_c   14.95364829
_cell_angle_alpha   90.00000000
_cell_angle_beta   126.33350609
_cell_angle_gamma   90.00000000
_symmetry_Int_Tables_number   1
_chemical_formula_structural   Pr2Mn3(SbS3)4
_chemical_formula_sum   'Pr4 Mn6 Sb8 S24'
_cell_volume   942.00006694
_cell_formula_units_Z   2
loop_
 _symmetry_equiv_pos_site_id
 _symmetry_equiv_pos_as_xyz
  1  'x, y, z'
loop_
 _atom_site_type_symbol
 _atom_site_label
 _atom_site_symmetry_multiplicity
 _atom_site_fract_x
 _atom_site_fract_y
 _atom_site_fract_z
 _atom_site_occupancy
  Pr  Pr0  1  0.27761848  0.48540272  0.86997939  1
  Pr  Pr1  1  0.72954245  0.51921874  0.13361936  1
  Pr  Pr2  1  0.76810045  0.02085949  0.87450900  1
  Pr  Pr3  1  0.23393231  0.92954232  0.13070814  1
  Mn  Mn4  1  0.29589317  0.42734783  0.60899284  1
  Mn  Mn5  1  0.70109194  0.52499735  0.36010432  1
  Mn  Mn6  1  0.99732212  0.00076884  0.01065675  1
  Mn  Mn7  1  0.80479308  0.02442698  0.62967740  1
  Mn  Mn8  1  0.20973327  0.05776646  0.39143488  1
  Mn  Mn9  1  0.49673487  0.47476245  0.99857216  1
  Sb  Sb10  1  0.87972690  0.86753808  0.45086793  1
  Sb  Sb11  1  0.10687776  0.00266191  0.53970138  1
  Sb  Sb12  1  0.03899920  0.49968871  0.82417339  1
  Sb  Sb13  1  0.95947319  0.46346302  0.19404016  1
  Sb  Sb14  1  0.40731273  0.56274009  0.46588600  1
  Sb  Sb15  1  0.60258583  0.56685869  0.52869949  1
  Sb  Sb16  1  0.52576149  0.94517307  0.80505739  1
  Sb  Sb17  1  0.46045466  0.00260947  0.18169502  1
  S  S18  1  0.93501039  0.00831417  0.80430783  1
  S  S19  1  0.05884798  0.03933413  0.19775028  1
  S  S20  1  0.41994573  0.98676986  0.98259527  1
  S  S21  1  0.57880705  0.99106588  0.00833574  1
  S  S22  1  0.17375728  0.93009971  0.89307255  1
  S  S23  1  0.81628590  0.04452079  0.09665407  1
  S  S24  1  0.10696109  0.45521296  0.65752643  1
  S  S25  1  0.90054438  0.42894146  0.35083893  1
  S  S26  1  0.72841267  0.04433813  0.30540298  1
  S  S27  1  0.26521395  0.95582619  0.68389812  1
  S  S28  1  0.17386851  0.49125558  0.45891318  1
  S  S29  1  0.81724107  0.54255396  0.55428606  1
  S  S30  1  0.44018412  0.45711177  0.80944763  1
  S  S31  1  0.56279724  0.50894385  0.20079780  1
  S  S32  1  0.91799148  0.52219340  0.99749562  1
  S  S33  1  0.08801243  0.47540734  0.02567490  1
  S  S34  1  0.65737480  0.48468337  0.87950518  1
  S  S35  1  0.32192459  0.43152959  0.09432602  1
  S  S36  1  0.59556988  0.99993214  0.63917010  1
  S  S37  1  0.40629130  0.02865533  0.34661426  1
  S  S38  1  0.24346791  0.48894900  0.31921656  1
  S  S39  1  0.75379853  0.49097340  0.69727847  1
  S  S40  1  0.66956876  0.97987514  0.44302114  1
  S  S41  1  0.32995874  0.96336515  0.54300573  1
