# generated using pymatgen
data_Pr2Mn3(SbS3)4
_symmetry_space_group_name_H-M   'P 1'
_cell_length_a   20.02960800
_cell_length_b   3.90410600
_cell_length_c   14.95364829
_cell_angle_alpha   90.00000000
_cell_angle_beta   126.33350609
_cell_angle_gamma   90.00000000
_symmetry_Int_Tables_number   1
_chemical_formula_structural   Pr2Mn3(SbS3)4
_chemical_formula_sum   'Pr4 Mn6 Sb8 S24'
_cell_volume   942.00006694
_cell_formula_units_Z   2
loop_
 _symmetry_equiv_pos_site_id
 _symmetry_equiv_pos_as_xyz
  1  'x, y, z'
loop_
 _atom_site_type_symbol
 _atom_site_label
 _atom_site_symmetry_multiplicity
 _atom_site_fract_x
 _atom_site_fract_y
 _atom_site_fract_z
 _atom_site_occupancy
  Pr  Pr0  1  0.27774319  0.48556850  0.87013953  1
  Pr  Pr1  1  0.72944819  0.51950699  0.13348283  1
  Pr  Pr2  1  0.76796635  0.02118866  0.87438750  1
  Pr  Pr3  1  0.23398757  0.92925727  0.13070760  1
  Mn  Mn4  1  0.29576054  0.42738778  0.60885815  1
  Mn  Mn5  1  0.70128693  0.52554112  0.36041035  1
  Mn  Mn6  1  0.99705811  0.00098323  0.01042647  1
  Mn  Mn7  1  0.80462095  0.02462175  0.62935622  1
  Mn  Mn8  1  0.20981439  0.05745936  0.39139056  1
  Mn  Mn9  1  0.49675641  0.47443796  0.99854378  1
  Sb  Sb10  1  0.87971265  0.86724279  0.45080140  1
  Sb  Sb11  1  0.10691959  0.00239963  0.53988834  1
  Sb  Sb12  1  0.03906689  0.49929524  0.82421471  1
  Sb  Sb13  1  0.95960893  0.46307027  0.19398297  1
  Sb  Sb14  1  0.40730750  0.56258828  0.46586950  1
  Sb  Sb15  1  0.60256815  0.56672483  0.52865794  1
  Sb  Sb16  1  0.52571301  0.94512095  0.80519333  1
  Sb  Sb17  1  0.46046664  0.00356791  0.18161578  1
  S  S18  1  0.93502888  0.00831890  0.80414525  1
  S  S19  1  0.05909711  0.03970094  0.19802552  1
  S  S20  1  0.41967007  0.98749573  0.98258922  1
  S  S21  1  0.57886403  0.99035127  0.00843028  1
  S  S22  1  0.17379413  0.92899063  0.89312072  1
  S  S23  1  0.81650283  0.04403197  0.09677798  1
  S  S24  1  0.10716029  0.45468235  0.65790634  1
  S  S25  1  0.90065477  0.42959446  0.35104157  1
  S  S26  1  0.72847101  0.04447839  0.30538561  1
  S  S27  1  0.26484909  0.95539378  0.68356054  1
  S  S28  1  0.17383181  0.49124522  0.45893240  1
  S  S29  1  0.81730726  0.54298049  0.55477530  1
  S  S30  1  0.44000816  0.45814258  0.80913327  1
  S  S31  1  0.56258456  0.50967233  0.20054660  1
  S  S32  1  0.91799325  0.52009001  0.99719560  1
  S  S33  1  0.08765227  0.47410716  0.02541108  1
  S  S34  1  0.65734890  0.48480582  0.87957145  1
  S  S35  1  0.32193723  0.43188166  0.09462759  1
  S  S36  1  0.59557651  0.00023444  0.63904279  1
  S  S37  1  0.40649303  0.02811176  0.34670740  1
  S  S38  1  0.24359976  0.48942046  0.31921969  1
  S  S39  1  0.75372816  0.49136808  0.69674264  1
  S  S40  1  0.66959400  0.98023647  0.44306320  1
  S  S41  1  0.32995631  0.96403443  0.54312171  1
