# generated using pymatgen
data_Pr2Mn3(SbS3)4
_symmetry_space_group_name_H-M   'P 1'
_cell_length_a   20.02960800
_cell_length_b   3.90410600
_cell_length_c   14.95364829
_cell_angle_alpha   90.00000000
_cell_angle_beta   126.33350609
_cell_angle_gamma   90.00000000
_symmetry_Int_Tables_number   1
_chemical_formula_structural   Pr2Mn3(SbS3)4
_chemical_formula_sum   'Pr4 Mn6 Sb8 S24'
_cell_volume   942.00006694
_cell_formula_units_Z   2
loop_
 _symmetry_equiv_pos_site_id
 _symmetry_equiv_pos_as_xyz
  1  'x, y, z'
loop_
 _atom_site_type_symbol
 _atom_site_label
 _atom_site_symmetry_multiplicity
 _atom_site_fract_x
 _atom_site_fract_y
 _atom_site_fract_z
 _atom_site_occupancy
  Pr  Pr0  1  0.27782002  0.48577105  0.87022930  1
  Pr  Pr1  1  0.72935636  0.51966960  0.13327738  1
  Pr  Pr2  1  0.76782020  0.02156566  0.87424753  1
  Pr  Pr3  1  0.23415719  0.92889981  0.13078232  1
  Mn  Mn4  1  0.29570399  0.42742723  0.60875628  1
  Mn  Mn5  1  0.70141275  0.52591097  0.36066525  1
  Mn  Mn6  1  0.99680282  0.00119705  0.01021816  1
  Mn  Mn7  1  0.80449224  0.02512990  0.62901850  1
  Mn  Mn8  1  0.20987090  0.05695357  0.39135087  1
  Mn  Mn9  1  0.49680157  0.47416622  0.99848596  1
  Sb  Sb10  1  0.87968589  0.86662029  0.45080119  1
  Sb  Sb11  1  0.10692648  0.00191543  0.54003232  1
  Sb  Sb12  1  0.03908134  0.49918470  0.82423026  1
  Sb  Sb13  1  0.95970243  0.46279606  0.19393697  1
  Sb  Sb14  1  0.40730757  0.56240495  0.46585599  1
  Sb  Sb15  1  0.60255083  0.56662854  0.52871677  1
  Sb  Sb16  1  0.52571836  0.94506357  0.80532321  1
  Sb  Sb17  1  0.46053386  0.00453737  0.18155856  1
  S  S18  1  0.93500928  0.00815159  0.80402865  1
  S  S19  1  0.05936918  0.03940684  0.19835970  1
  S  S20  1  0.41947525  0.98858292  0.98272298  1
  S  S21  1  0.57894716  0.98954785  0.00850261  1
  S  S22  1  0.17372069  0.92772764  0.89318479  1
  S  S23  1  0.81667840  0.04338826  0.09683670  1
  S  S24  1  0.10736580  0.45430797  0.65828903  1
  S  S25  1  0.90074865  0.42990171  0.35115484  1
  S  S26  1  0.72851164  0.04484234  0.30529884  1
  S  S27  1  0.26454752  0.95495770  0.68326507  1
  S  S28  1  0.17371845  0.49103213  0.45873280  1
  S  S29  1  0.81740534  0.54338694  0.55514246  1
  S  S30  1  0.43987123  0.45885707  0.80890566  1
  S  S31  1  0.56242016  0.51048933  0.20032191  1
  S  S32  1  0.91786507  0.51843098  0.99678260  1
  S  S33  1  0.08735172  0.47288263  0.02527605  1
  S  S34  1  0.65736711  0.48497317  0.87962645  1
  S  S35  1  0.32192819  0.43232930  0.09494198  1
  S  S36  1  0.59567673  0.00061191  0.63907094  1
  S  S37  1  0.40672411  0.02779272  0.34696956  1
  S  S38  1  0.24380521  0.48959438  0.31934177  1
  S  S39  1  0.75371043  0.49198228  0.69630196  1
  S  S40  1  0.66969439  0.97996888  0.44313633  1
  S  S41  1  0.33015011  0.96468037  0.54324498  1
