# generated using pymatgen
data_Pr2Mn3(SbS3)4
_symmetry_space_group_name_H-M   'P 1'
_cell_length_a   20.02960800
_cell_length_b   3.90410600
_cell_length_c   14.95364829
_cell_angle_alpha   90.00000000
_cell_angle_beta   126.33350609
_cell_angle_gamma   90.00000000
_symmetry_Int_Tables_number   1
_chemical_formula_structural   Pr2Mn3(SbS3)4
_chemical_formula_sum   'Pr4 Mn6 Sb8 S24'
_cell_volume   942.00006694
_cell_formula_units_Z   2
loop_
 _symmetry_equiv_pos_site_id
 _symmetry_equiv_pos_as_xyz
  1  'x, y, z'
loop_
 _atom_site_type_symbol
 _atom_site_label
 _atom_site_symmetry_multiplicity
 _atom_site_fract_x
 _atom_site_fract_y
 _atom_site_fract_z
 _atom_site_occupancy
  Pr  Pr0  1  0.26581647  0.47707474  0.86474564  1
  Pr  Pr1  1  0.73540237  0.51813304  0.13566420  1
  Pr  Pr2  1  0.76505908  0.01414038  0.86517840  1
  Pr  Pr3  1  0.23822646  0.00732462  0.13815529  1
  Mn  Mn4  1  0.29274798  0.47780975  0.60041025  1
  Mn  Mn5  1  0.69088148  0.50512263  0.37945909  1
  Mn  Mn6  1  0.01051587  0.99905970  0.01710847  1
  Mn  Mn7  1  0.80396007  0.01653554  0.61382385  1
  Mn  Mn8  1  0.19758932  0.97477397  0.37896353  1
  Mn  Mn9  1  0.49370056  0.46247789  0.98936030  1
  Sb  Sb10  1  0.89020882  0.98224562  0.44999691  1
  Sb  Sb11  1  0.11269360  0.97711476  0.54859679  1
  Sb  Sb12  1  0.03933224  0.51857493  0.81948379  1
  Sb  Sb13  1  0.96575655  0.50789788  0.18660365  1
  Sb  Sb14  1  0.39615467  0.51305140  0.45456953  1
  Sb  Sb15  1  0.60586934  0.47525839  0.54754675  1
  Sb  Sb16  1  0.53466253  0.00710323  0.81085739  1
  Sb  Sb17  1  0.46010794  0.01677866  0.18077017  1
  S  S18  1  0.93351983  0.98983462  0.80051211  1
  S  S19  1  0.06658339  0.98713315  0.19323742  1
  S  S20  1  0.40824967  0.98286203  0.98337698  1
  S  S21  1  0.58599351  0.98529211  0.01403593  1
  S  S22  1  0.16909563  0.01738644  0.89655834  1
  S  S23  1  0.82486299  0.03089826  0.09569639  1
  S  S24  1  0.09123936  0.47747266  0.64378707  1
  S  S25  1  0.91000963  0.46790807  0.35590711  1
  S  S26  1  0.74055946  0.94700209  0.30238842  1
  S  S27  1  0.26347478  0.00227842  0.71196740  1
  S  S28  1  0.16316587  0.47015707  0.43721977  1
  S  S29  1  0.82847773  0.48298516  0.54824418  1
  S  S30  1  0.43177343  0.49409050  0.79522192  1
  S  S31  1  0.56074645  0.50739229  0.18365843  1
  S  S32  1  0.91258909  0.50259723  0.98788671  1
  S  S33  1  0.08689262  0.47385890  0.01918943  1
  S  S34  1  0.66602287  0.50498785  0.88815748  1
  S  S35  1  0.32730247  0.52842873  0.09227556  1
  S  S36  1  0.59654222  0.98984539  0.65876173  1
  S  S37  1  0.40655688  0.98210710  0.35045818  1
  S  S38  1  0.24339739  0.44504376  0.30851542  1
  S  S39  1  0.76775658  0.50248629  0.70542181  1
  S  S40  1  0.67111410  0.03064927  0.45610662  1
  S  S41  1  0.32184608  0.97552559  0.54413426  1
