# generated using pymatgen
data_Pr2Mn3(SbS3)4
_symmetry_space_group_name_H-M   'P 1'
_cell_length_a   20.02960800
_cell_length_b   3.90410600
_cell_length_c   14.95364829
_cell_angle_alpha   90.00000000
_cell_angle_beta   126.33350609
_cell_angle_gamma   90.00000000
_symmetry_Int_Tables_number   1
_chemical_formula_structural   Pr2Mn3(SbS3)4
_chemical_formula_sum   'Pr4 Mn6 Sb8 S24'
_cell_volume   942.00006694
_cell_formula_units_Z   2
loop_
 _symmetry_equiv_pos_site_id
 _symmetry_equiv_pos_as_xyz
  1  'x, y, z'
loop_
 _atom_site_type_symbol
 _atom_site_label
 _atom_site_symmetry_multiplicity
 _atom_site_fract_x
 _atom_site_fract_y
 _atom_site_fract_z
 _atom_site_occupancy
  Pr  Pr0  1  0.27781743  0.48596267  0.87021338  1
  Pr  Pr1  1  0.72926739  0.52001598  0.13312265  1
  Pr  Pr2  1  0.76767885  0.02177692  0.87407144  1
  Pr  Pr3  1  0.23434216  0.92853610  0.13090740  1
  Mn  Mn4  1  0.29557725  0.42721175  0.60861921  1
  Mn  Mn5  1  0.70157052  0.52570091  0.36090508  1
  Mn  Mn6  1  0.99665752  0.00142936  0.01026953  1
  Mn  Mn7  1  0.80434685  0.02537518  0.62882688  1
  Mn  Mn8  1  0.20993501  0.05604205  0.39135496  1
  Mn  Mn9  1  0.49688444  0.47365132  0.99847752  1
  Sb  Sb10  1  0.87966118  0.86602313  0.45085060  1
  Sb  Sb11  1  0.10692755  0.00131681  0.54011283  1
  Sb  Sb12  1  0.03910908  0.49891789  0.82426691  1
  Sb  Sb13  1  0.95979229  0.46260251  0.19396257  1
  Sb  Sb14  1  0.40732578  0.56193474  0.46585471  1
  Sb  Sb15  1  0.60255605  0.56653725  0.52876758  1
  Sb  Sb16  1  0.52576562  0.94473202  0.80552062  1
  Sb  Sb17  1  0.46053703  0.00550466  0.18151409  1
  S  S18  1  0.93492146  0.00782457  0.80376988  1
  S  S19  1  0.05963724  0.03948676  0.19870036  1
  S  S20  1  0.41932528  0.98993625  0.98283628  1
  S  S21  1  0.57908731  0.98837224  0.00858846  1
  S  S22  1  0.17360982  0.92695169  0.89325087  1
  S  S23  1  0.81676903  0.04317098  0.09690535  1
  S  S24  1  0.10748638  0.45393088  0.65861417  1
  S  S25  1  0.90076956  0.43023749  0.35111596  1
  S  S26  1  0.72859498  0.04478011  0.30519326  1
  S  S27  1  0.26416420  0.95480784  0.68291410  1
  S  S28  1  0.17343886  0.49079101  0.45833584  1
  S  S29  1  0.81748232  0.54396439  0.55550547  1
  S  S30  1  0.43974082  0.45960491  0.80871697  1
  S  S31  1  0.56220253  0.51096712  0.20005266  1
  S  S32  1  0.91780586  0.51678476  0.99628436  1
  S  S33  1  0.08703760  0.47154309  0.02521463  1
  S  S34  1  0.65734024  0.48532629  0.87965575  1
  S  S35  1  0.32195761  0.43287372  0.09536716  1
  S  S36  1  0.59574764  0.00090476  0.63910766  1
  S  S37  1  0.40703235  0.02701897  0.34720794  1
  S  S38  1  0.24399542  0.48998513  0.31955022  1
  S  S39  1  0.75368002  0.49271140  0.69589119  1
  S  S40  1  0.66971398  0.97922728  0.44312981  1
  S  S41  1  0.33035958  0.96537243  0.54337403  1
