# generated using pymatgen
data_Pr2Mn3(SbS3)4
_symmetry_space_group_name_H-M   'P 1'
_cell_length_a   20.02960800
_cell_length_b   3.90410600
_cell_length_c   14.95364829
_cell_angle_alpha   90.00000000
_cell_angle_beta   126.33350609
_cell_angle_gamma   90.00000000
_symmetry_Int_Tables_number   1
_chemical_formula_structural   Pr2Mn3(SbS3)4
_chemical_formula_sum   'Pr4 Mn6 Sb8 S24'
_cell_volume   942.00006694
_cell_formula_units_Z   2
loop_
 _symmetry_equiv_pos_site_id
 _symmetry_equiv_pos_as_xyz
  1  'x, y, z'
loop_
 _atom_site_type_symbol
 _atom_site_label
 _atom_site_symmetry_multiplicity
 _atom_site_fract_x
 _atom_site_fract_y
 _atom_site_fract_z
 _atom_site_occupancy
  Pr  Pr0  1  0.27777492  0.48622194  0.87010501  1
  Pr  Pr1  1  0.72919852  0.52027173  0.13298856  1
  Pr  Pr2  1  0.76751832  0.02175867  0.87387876  1
  Pr  Pr3  1  0.23449301  0.92790052  0.13096381  1
  Mn  Mn4  1  0.29542146  0.42722007  0.60840110  1
  Mn  Mn5  1  0.70172890  0.52568787  0.36122377  1
  Mn  Mn6  1  0.99657393  0.00145731  0.01029774  1
  Mn  Mn7  1  0.80429866  0.02552096  0.62872845  1
  Mn  Mn8  1  0.20996732  0.05553559  0.39138227  1
  Mn  Mn9  1  0.49703113  0.47271069  0.99852560  1
  Sb  Sb10  1  0.87959312  0.86523781  0.45087282  1
  Sb  Sb11  1  0.10700088  0.00083591  0.54026162  1
  Sb  Sb12  1  0.03914380  0.49848562  0.82433533  1
  Sb  Sb13  1  0.95990444  0.46254081  0.19398329  1
  Sb  Sb14  1  0.40738902  0.56143841  0.46589888  1
  Sb  Sb15  1  0.60254768  0.56654156  0.52882104  1
  Sb  Sb16  1  0.52586514  0.94447954  0.80577805  1
  Sb  Sb17  1  0.46057450  0.00629620  0.18150944  1
  S  S18  1  0.93478617  0.00845295  0.80338770  1
  S  S19  1  0.05987375  0.03964701  0.19890714  1
  S  S20  1  0.41921903  0.99100352  0.98286801  1
  S  S21  1  0.57925478  0.98739924  0.00877702  1
  S  S22  1  0.17347811  0.92646715  0.89330073  1
  S  S23  1  0.81687875  0.04335630  0.09695022  1
  S  S24  1  0.10754400  0.45308725  0.65881474  1
  S  S25  1  0.90087507  0.43078808  0.35107345  1
  S  S26  1  0.72875840  0.04501941  0.30505735  1
  S  S27  1  0.26380152  0.95414819  0.68262768  1
  S  S28  1  0.17302757  0.49076690  0.45776994  1
  S  S29  1  0.81761345  0.54418103  0.55583673  1
  S  S30  1  0.43954731  0.46023864  0.80850392  1
  S  S31  1  0.56202879  0.51162048  0.19977216  1
  S  S32  1  0.91768080  0.51563859  0.99564371  1
  S  S33  1  0.08669096  0.47012395  0.02508813  1
  S  S34  1  0.65734619  0.48588529  0.87965504  1
  S  S35  1  0.32202685  0.43337553  0.09589426  1
  S  S36  1  0.59586507  0.00107191  0.63920533  1
  S  S37  1  0.40721097  0.02669320  0.34746577  1
  S  S38  1  0.24417187  0.49080422  0.31982343  1
  S  S39  1  0.75365426  0.49289409  0.69564839  1
  S  S40  1  0.66965239  0.97851129  0.44298319  1
  S  S41  1  0.33051798  0.96611021  0.54359656  1
