# generated using pymatgen
data_Pr2Mn3(SbS3)4
_symmetry_space_group_name_H-M   'P 1'
_cell_length_a   20.02960800
_cell_length_b   3.90410600
_cell_length_c   14.95364829
_cell_angle_alpha   90.00000000
_cell_angle_beta   126.33350609
_cell_angle_gamma   90.00000000
_symmetry_Int_Tables_number   1
_chemical_formula_structural   Pr2Mn3(SbS3)4
_chemical_formula_sum   'Pr4 Mn6 Sb8 S24'
_cell_volume   942.00006694
_cell_formula_units_Z   2
loop_
 _symmetry_equiv_pos_site_id
 _symmetry_equiv_pos_as_xyz
  1  'x, y, z'
loop_
 _atom_site_type_symbol
 _atom_site_label
 _atom_site_symmetry_multiplicity
 _atom_site_fract_x
 _atom_site_fract_y
 _atom_site_fract_z
 _atom_site_occupancy
  Pr  Pr0  1  0.27771791  0.48649632  0.87002440  1
  Pr  Pr1  1  0.72916839  0.52034177  0.13287967  1
  Pr  Pr2  1  0.76738048  0.02175602  0.87372530  1
  Pr  Pr3  1  0.23462268  0.92739507  0.13100894  1
  Mn  Mn4  1  0.29521542  0.42736510  0.60822913  1
  Mn  Mn5  1  0.70194044  0.52552595  0.36153679  1
  Mn  Mn6  1  0.99654075  0.00135694  0.01038685  1
  Mn  Mn7  1  0.80426860  0.02584896  0.62867861  1
  Mn  Mn8  1  0.21011828  0.05520356  0.39147050  1
  Mn  Mn9  1  0.49721677  0.47257891  0.99859756  1
  Sb  Sb10  1  0.87953762  0.86443657  0.45081574  1
  Sb  Sb11  1  0.10706939  0.00015156  0.54038519  1
  Sb  Sb12  1  0.03913363  0.49819419  0.82435303  1
  Sb  Sb13  1  0.96002604  0.46272497  0.19398119  1
  Sb  Sb14  1  0.40741432  0.56096188  0.46588422  1
  Sb  Sb15  1  0.60248099  0.56652957  0.52884806  1
  Sb  Sb16  1  0.52591398  0.94460750  0.80599806  1
  Sb  Sb17  1  0.46057714  0.00684097  0.18149724  1
  S  S18  1  0.93479146  0.00831610  0.80316158  1
  S  S19  1  0.06001867  0.03995493  0.19905818  1
  S  S20  1  0.41913147  0.99236434  0.98287368  1
  S  S21  1  0.57944325  0.98677807  0.00904606  1
  S  S22  1  0.17327431  0.92540676  0.89333555  1
  S  S23  1  0.81700354  0.04291672  0.09704980  1
  S  S24  1  0.10762127  0.45254401  0.65899622  1
  S  S25  1  0.90093851  0.43135026  0.35106076  1
  S  S26  1  0.72884338  0.04558796  0.30476958  1
  S  S27  1  0.26345734  0.95356768  0.68241886  1
  S  S28  1  0.17261306  0.49087579  0.45712891  1
  S  S29  1  0.81774891  0.54457430  0.55609174  1
  S  S30  1  0.43934880  0.46056680  0.80826119  1
  S  S31  1  0.56187807  0.51200025  0.19962655  1
  S  S32  1  0.91758103  0.51518678  0.99518940  1
  S  S33  1  0.08646966  0.46875361  0.02502941  1
  S  S34  1  0.65720722  0.48713299  0.87948337  1
  S  S35  1  0.32208986  0.43366345  0.09629517  1
  S  S36  1  0.59575423  0.00069452  0.63885270  1
  S  S37  1  0.40737144  0.02630272  0.34766826  1
  S  S38  1  0.24425378  0.49115064  0.32012241  1
  S  S39  1  0.75379302  0.49351957  0.69556209  1
  S  S40  1  0.66952464  0.97767678  0.44276887  1
  S  S41  1  0.33074766  0.96645669  0.54384385  1
