# generated using pymatgen
data_Pr2Mn3(SbS3)4
_symmetry_space_group_name_H-M   'P 1'
_cell_length_a   20.02960800
_cell_length_b   3.90410600
_cell_length_c   14.95364829
_cell_angle_alpha   90.00000000
_cell_angle_beta   126.33350609
_cell_angle_gamma   90.00000000
_symmetry_Int_Tables_number   1
_chemical_formula_structural   Pr2Mn3(SbS3)4
_chemical_formula_sum   'Pr4 Mn6 Sb8 S24'
_cell_volume   942.00006694
_cell_formula_units_Z   2
loop_
 _symmetry_equiv_pos_site_id
 _symmetry_equiv_pos_as_xyz
  1  'x, y, z'
loop_
 _atom_site_type_symbol
 _atom_site_label
 _atom_site_symmetry_multiplicity
 _atom_site_fract_x
 _atom_site_fract_y
 _atom_site_fract_z
 _atom_site_occupancy
  Pr  Pr0  1  0.27763063  0.48690593  0.86988166  1
  Pr  Pr1  1  0.72914709  0.52055562  0.13277559  1
  Pr  Pr2  1  0.76723331  0.02183358  0.87354764  1
  Pr  Pr3  1  0.23474941  0.92686466  0.13105173  1
  Mn  Mn4  1  0.29503404  0.42759267  0.60797031  1
  Mn  Mn5  1  0.70212176  0.52592224  0.36186593  1
  Mn  Mn6  1  0.99645760  0.00120205  0.01045401  1
  Mn  Mn7  1  0.80430841  0.02594415  0.62875250  1
  Mn  Mn8  1  0.21032247  0.05514505  0.39156650  1
  Mn  Mn9  1  0.49742631  0.47273134  0.99877447  1
  Sb  Sb10  1  0.87952252  0.86390360  0.45075969  1
  Sb  Sb11  1  0.10716240  0.99938815  0.54047680  1
  Sb  Sb12  1  0.03920084  0.49753414  0.82440711  1
  Sb  Sb13  1  0.96008353  0.46295863  0.19399471  1
  Sb  Sb14  1  0.40736292  0.56075242  0.46581063  1
  Sb  Sb15  1  0.60240497  0.56637431  0.52886405  1
  Sb  Sb16  1  0.52597644  0.94475415  0.80622803  1
  Sb  Sb17  1  0.46059916  0.00704894  0.18147256  1
  S  S18  1  0.93479882  0.00847050  0.80312285  1
  S  S19  1  0.06020294  0.04005831  0.19940856  1
  S  S20  1  0.41900389  0.99331058  0.98292316  1
  S  S21  1  0.57948547  0.98613983  0.00918612  1
  S  S22  1  0.17295840  0.92431689  0.89315397  1
  S  S23  1  0.81713112  0.04231789  0.09714705  1
  S  S24  1  0.10770485  0.45214481  0.65914971  1
  S  S25  1  0.90103076  0.43214990  0.35105153  1
  S  S26  1  0.72908765  0.04623070  0.30467520  1
  S  S27  1  0.26315790  0.95309008  0.68215030  1
  S  S28  1  0.17214430  0.49108268  0.45651458  1
  S  S29  1  0.81792547  0.54511248  0.55645302  1
  S  S30  1  0.43927794  0.46118668  0.80807475  1
  S  S31  1  0.56179229  0.51273188  0.19958076  1
  S  S32  1  0.91756918  0.51443345  0.99483427  1
  S  S33  1  0.08614291  0.46792699  0.02481959  1
  S  S34  1  0.65707889  0.48847928  0.87933465  1
  S  S35  1  0.32227429  0.43356345  0.09680650  1
  S  S36  1  0.59556002  0.00010439  0.63848598  1
  S  S37  1  0.40750150  0.02605927  0.34771420  1
  S  S38  1  0.24436249  0.49088819  0.32043098  1
  S  S39  1  0.75400400  0.49417984  0.69558048  1
  S  S40  1  0.66962108  0.97669102  0.44263482  1
  S  S41  1  0.33098761  0.96690616  0.54415491  1
