# generated using pymatgen
data_Pr2Mn3(SbS3)4
_symmetry_space_group_name_H-M   'P 1'
_cell_length_a   20.02960800
_cell_length_b   3.90410600
_cell_length_c   14.95364829
_cell_angle_alpha   90.00000000
_cell_angle_beta   126.33350609
_cell_angle_gamma   90.00000000
_symmetry_Int_Tables_number   1
_chemical_formula_structural   Pr2Mn3(SbS3)4
_chemical_formula_sum   'Pr4 Mn6 Sb8 S24'
_cell_volume   942.00006694
_cell_formula_units_Z   2
loop_
 _symmetry_equiv_pos_site_id
 _symmetry_equiv_pos_as_xyz
  1  'x, y, z'
loop_
 _atom_site_type_symbol
 _atom_site_label
 _atom_site_symmetry_multiplicity
 _atom_site_fract_x
 _atom_site_fract_y
 _atom_site_fract_z
 _atom_site_occupancy
  Pr  Pr0  1  0.27756917  0.48745861  0.86978821  1
  Pr  Pr1  1  0.72917663  0.52077189  0.13271312  1
  Pr  Pr2  1  0.76712296  0.02169885  0.87332198  1
  Pr  Pr3  1  0.23483970  0.92678381  0.13104876  1
  Mn  Mn4  1  0.29483704  0.42841213  0.60774264  1
  Mn  Mn5  1  0.70229686  0.52646622  0.36217270  1
  Mn  Mn6  1  0.99644470  0.00090178  0.01057504  1
  Mn  Mn7  1  0.80429581  0.02624475  0.62875432  1
  Mn  Mn8  1  0.21061716  0.05534345  0.39166392  1
  Mn  Mn9  1  0.49757162  0.47279828  0.99893469  1
  Sb  Sb10  1  0.87949494  0.86360666  0.45068049  1
  Sb  Sb11  1  0.10723101  0.99866977  0.54054848  1
  Sb  Sb12  1  0.03916642  0.49673928  0.82436568  1
  Sb  Sb13  1  0.96017478  0.46329100  0.19407488  1
  Sb  Sb14  1  0.40731193  0.56051235  0.46575148  1
  Sb  Sb15  1  0.60236031  0.56623650  0.52886378  1
  Sb  Sb16  1  0.52600210  0.94454999  0.80646363  1
  Sb  Sb17  1  0.46065049  0.00709551  0.18146799  1
  S  S18  1  0.93473922  0.00853504  0.80300007  1
  S  S19  1  0.06036851  0.04000358  0.19978773  1
  S  S20  1  0.41888248  0.99421710  0.98302934  1
  S  S21  1  0.57931661  0.98543546  0.00906146  1
  S  S22  1  0.17280221  0.92312202  0.89301071  1
  S  S23  1  0.81724653  0.04224003  0.09722506  1
  S  S24  1  0.10773057  0.45250090  0.65928987  1
  S  S25  1  0.90117719  0.43230546  0.35123350  1
  S  S26  1  0.72925943  0.04674575  0.30444113  1
  S  S27  1  0.26284794  0.95227745  0.68185760  1
  S  S28  1  0.17178894  0.49176852  0.45599248  1
  S  S29  1  0.81799617  0.54583221  0.55667100  1
  S  S30  1  0.43925662  0.46181514  0.80792350  1
  S  S31  1  0.56173269  0.51308648  0.19953521  1
  S  S32  1  0.91758905  0.51335523  0.99459328  1
  S  S33  1  0.08581134  0.46744120  0.02463761  1
  S  S34  1  0.65706549  0.48974122  0.87940077  1
  S  S35  1  0.32239140  0.43335694  0.09709952  1
  S  S36  1  0.59541941  0.99934554  0.63830436  1
  S  S37  1  0.40754253  0.02594508  0.34775373  1
  S  S38  1  0.24446872  0.49102898  0.32071720  1
  S  S39  1  0.75427189  0.49498715  0.69556853  1
  S  S40  1  0.66970153  0.97554727  0.44260371  1
  S  S41  1  0.33129377  0.96666556  0.54457545  1
