# generated using pymatgen
data_Pr2Mn3(SbS3)4
_symmetry_space_group_name_H-M   'P 1'
_cell_length_a   20.02960800
_cell_length_b   3.90410600
_cell_length_c   14.95364829
_cell_angle_alpha   90.00000000
_cell_angle_beta   126.33350609
_cell_angle_gamma   90.00000000
_symmetry_Int_Tables_number   1
_chemical_formula_structural   Pr2Mn3(SbS3)4
_chemical_formula_sum   'Pr4 Mn6 Sb8 S24'
_cell_volume   942.00006694
_cell_formula_units_Z   2
loop_
 _symmetry_equiv_pos_site_id
 _symmetry_equiv_pos_as_xyz
  1  'x, y, z'
loop_
 _atom_site_type_symbol
 _atom_site_label
 _atom_site_symmetry_multiplicity
 _atom_site_fract_x
 _atom_site_fract_y
 _atom_site_fract_z
 _atom_site_occupancy
  Pr  Pr0  1  0.27750746  0.48806469  0.86971579  1
  Pr  Pr1  1  0.72918745  0.52086604  0.13265043  1
  Pr  Pr2  1  0.76695796  0.02157207  0.87303419  1
  Pr  Pr3  1  0.23480808  0.92672474  0.13089170  1
  Mn  Mn4  1  0.29463268  0.42919358  0.60750851  1
  Mn  Mn5  1  0.70241181  0.52641255  0.36237877  1
  Mn  Mn6  1  0.99646797  0.00131671  0.01076552  1
  Mn  Mn7  1  0.80440408  0.02701043  0.62888336  1
  Mn  Mn8  1  0.21094949  0.05558795  0.39198771  1
  Mn  Mn9  1  0.49777558  0.47280259  0.99921683  1
  Sb  Sb10  1  0.87940786  0.86331291  0.45056211  1
  Sb  Sb11  1  0.10729819  0.99800593  0.54061063  1
  Sb  Sb12  1  0.03910840  0.49614600  0.82428904  1
  Sb  Sb13  1  0.96026941  0.46372289  0.19410370  1
  Sb  Sb14  1  0.40724568  0.56019604  0.46567852  1
  Sb  Sb15  1  0.60232206  0.56596759  0.52884273  1
  Sb  Sb16  1  0.52600346  0.94439902  0.80669510  1
  Sb  Sb17  1  0.46070324  0.00677063  0.18150246  1
  S  S18  1  0.93462236  0.00825472  0.80277954  1
  S  S19  1  0.06044236  0.03951089  0.20010190  1
  S  S20  1  0.41868827  0.99515438  0.98304895  1
  S  S21  1  0.57921722  0.98452186  0.00895921  1
  S  S22  1  0.17276309  0.92206938  0.89304070  1
  S  S23  1  0.81737322  0.04222090  0.09739323  1
  S  S24  1  0.10771840  0.45334153  0.65941729  1
  S  S25  1  0.90125700  0.43250220  0.35138606  1
  S  S26  1  0.72942315  0.04720162  0.30434189  1
  S  S27  1  0.26247946  0.95136350  0.68164906  1
  S  S28  1  0.17154279  0.49267580  0.45555825  1
  S  S29  1  0.81801783  0.54669804  0.55689791  1
  S  S30  1  0.43922535  0.46196298  0.80781751  1
  S  S31  1  0.56159379  0.51368379  0.19935373  1
  S  S32  1  0.91752408  0.51227116  0.99418535  1
  S  S33  1  0.08550145  0.46695607  0.02441368  1
  S  S34  1  0.65715492  0.49076778  0.87953021  1
  S  S35  1  0.32256267  0.43285967  0.09743859  1
  S  S36  1  0.59520457  0.99920649  0.63821095  1
  S  S37  1  0.40754962  0.02582158  0.34790921  1
  S  S38  1  0.24443635  0.49138680  0.32072247  1
  S  S39  1  0.75448272  0.49526104  0.69548855  1
  S  S40  1  0.66983534  0.97463940  0.44271624  1
  S  S41  1  0.33164118  0.96618611  0.54514758  1
