# generated using pymatgen
data_Pr2Mn3(SbS3)4
_symmetry_space_group_name_H-M   'P 1'
_cell_length_a   20.02960800
_cell_length_b   3.90410600
_cell_length_c   14.95364829
_cell_angle_alpha   90.00000000
_cell_angle_beta   126.33350609
_cell_angle_gamma   90.00000000
_symmetry_Int_Tables_number   1
_chemical_formula_structural   Pr2Mn3(SbS3)4
_chemical_formula_sum   'Pr4 Mn6 Sb8 S24'
_cell_volume   942.00006694
_cell_formula_units_Z   2
loop_
 _symmetry_equiv_pos_site_id
 _symmetry_equiv_pos_as_xyz
  1  'x, y, z'
loop_
 _atom_site_type_symbol
 _atom_site_label
 _atom_site_symmetry_multiplicity
 _atom_site_fract_x
 _atom_site_fract_y
 _atom_site_fract_z
 _atom_site_occupancy
  Pr  Pr0  1  0.27747486  0.48854276  0.86958619  1
  Pr  Pr1  1  0.72922559  0.52093193  0.13258878  1
  Pr  Pr2  1  0.76680398  0.02150096  0.87279413  1
  Pr  Pr3  1  0.23475746  0.92659823  0.13074283  1
  Mn  Mn4  1  0.29441138  0.43018148  0.60721664  1
  Mn  Mn5  1  0.70253571  0.52614352  0.36255633  1
  Mn  Mn6  1  0.99656699  0.00139690  0.01087554  1
  Mn  Mn7  1  0.80442518  0.02764795  0.62898343  1
  Mn  Mn8  1  0.21127826  0.05543574  0.39227439  1
  Mn  Mn9  1  0.49798302  0.47262876  0.99938435  1
  Sb  Sb10  1  0.87937500  0.86299871  0.45049396  1
  Sb  Sb11  1  0.10732181  0.99737296  0.54063622  1
  Sb  Sb12  1  0.03911464  0.49564776  0.82426985  1
  Sb  Sb13  1  0.96033949  0.46424441  0.19408293  1
  Sb  Sb14  1  0.40718461  0.56003038  0.46566276  1
  Sb  Sb15  1  0.60229451  0.56576972  0.52878303  1
  Sb  Sb16  1  0.52604809  0.94425621  0.80693789  1
  Sb  Sb17  1  0.46072359  0.00669796  0.18153131  1
  S  S18  1  0.93446554  0.00808975  0.80262242  1
  S  S19  1  0.06054050  0.03913236  0.20036578  1
  S  S20  1  0.41840386  0.99624575  0.98293558  1
  S  S21  1  0.57917621  0.98338369  0.00882591  1
  S  S22  1  0.17268283  0.92068988  0.89307175  1
  S  S23  1  0.81754678  0.04199767  0.09754134  1
  S  S24  1  0.10768068  0.45426001  0.65956384  1
  S  S25  1  0.90139620  0.43241428  0.35154802  1
  S  S26  1  0.72944027  0.04780060  0.30425901  1
  S  S27  1  0.26222864  0.95055450  0.68135601  1
  S  S28  1  0.17121532  0.49390375  0.45521245  1
  S  S29  1  0.81792297  0.54749791  0.55702571  1
  S  S30  1  0.43909800  0.46251623  0.80765500  1
  S  S31  1  0.56131927  0.51409952  0.19918454  1
  S  S32  1  0.91733266  0.51139043  0.99375211  1
  S  S33  1  0.08531420  0.46640044  0.02425689  1
  S  S34  1  0.65711193  0.49114004  0.87953312  1
  S  S35  1  0.32261321  0.43186622  0.09759906  1
  S  S36  1  0.59493189  0.99902908  0.63799857  1
  S  S37  1  0.40756405  0.02563256  0.34811697  1
  S  S38  1  0.24434818  0.49165009  0.32073697  1
  S  S39  1  0.75465428  0.49510110  0.69529117  1
  S  S40  1  0.66992699  0.97395138  0.44278100  1
  S  S41  1  0.33197251  0.96657557  0.54573338  1
