# generated using pymatgen
data_Pr2Mn3(SbS3)4
_symmetry_space_group_name_H-M   'P 1'
_cell_length_a   20.02960800
_cell_length_b   3.90410600
_cell_length_c   14.95364829
_cell_angle_alpha   90.00000000
_cell_angle_beta   126.33350609
_cell_angle_gamma   90.00000000
_symmetry_Int_Tables_number   1
_chemical_formula_structural   Pr2Mn3(SbS3)4
_chemical_formula_sum   'Pr4 Mn6 Sb8 S24'
_cell_volume   942.00006694
_cell_formula_units_Z   2
loop_
 _symmetry_equiv_pos_site_id
 _symmetry_equiv_pos_as_xyz
  1  'x, y, z'
loop_
 _atom_site_type_symbol
 _atom_site_label
 _atom_site_symmetry_multiplicity
 _atom_site_fract_x
 _atom_site_fract_y
 _atom_site_fract_z
 _atom_site_occupancy
  Pr  Pr0  1  0.27744432  0.48884688  0.86942838  1
  Pr  Pr1  1  0.72927774  0.52118949  0.13262230  1
  Pr  Pr2  1  0.76662294  0.02125152  0.87253108  1
  Pr  Pr3  1  0.23469743  0.92657759  0.13062945  1
  Mn  Mn4  1  0.29416271  0.43094725  0.60690970  1
  Mn  Mn5  1  0.70261675  0.52575479  0.36272133  1
  Mn  Mn6  1  0.99657172  0.00134027  0.01091597  1
  Mn  Mn7  1  0.80446680  0.02848716  0.62917553  1
  Mn  Mn8  1  0.21155703  0.05537898  0.39255026  1
  Mn  Mn9  1  0.49812445  0.47280210  0.99945693  1
  Sb  Sb10  1  0.87935427  0.86301284  0.45052541  1
  Sb  Sb11  1  0.10736473  0.99660896  0.54073839  1
  Sb  Sb12  1  0.03913722  0.49519800  0.82426795  1
  Sb  Sb13  1  0.96037495  0.46472331  0.19404766  1
  Sb  Sb14  1  0.40715728  0.56012586  0.46569024  1
  Sb  Sb15  1  0.60226362  0.56547078  0.52877979  1
  Sb  Sb16  1  0.52609834  0.94433867  0.80722802  1
  Sb  Sb17  1  0.46067524  0.00640383  0.18149357  1
  S  S18  1  0.93440642  0.00768968  0.80246323  1
  S  S19  1  0.06063958  0.03860325  0.20075783  1
  S  S20  1  0.41818296  0.99731558  0.98290626  1
  S  S21  1  0.57908529  0.98219074  0.00882552  1
  S  S22  1  0.17252403  0.91951689  0.89309969  1
  S  S23  1  0.81779487  0.04132828  0.09771333  1
  S  S24  1  0.10757900  0.45502734  0.65973188  1
  S  S25  1  0.90155277  0.43174830  0.35156299  1
  S  S26  1  0.72945237  0.04829490  0.30434472  1
  S  S27  1  0.26202945  0.94968886  0.68111701  1
  S  S28  1  0.17093320  0.49461490  0.45479025  1
  S  S29  1  0.81793615  0.54796116  0.55720734  1
  S  S30  1  0.43883170  0.46303356  0.80741483  1
  S  S31  1  0.56102419  0.51464231  0.19901918  1
  S  S32  1  0.91704836  0.51014212  0.99322613  1
  S  S33  1  0.08508210  0.46610399  0.02414029  1
  S  S34  1  0.65702617  0.49215617  0.87951130  1
  S  S35  1  0.32273254  0.43101788  0.09792985  1
  S  S36  1  0.59465260  0.99875309  0.63775732  1
  S  S37  1  0.40761596  0.02564941  0.34825261  1
  S  S38  1  0.24434931  0.49164148  0.32088279  1
  S  S39  1  0.75485882  0.49517149  0.69524701  1
  S  S40  1  0.66988235  0.97293795  0.44286199  1
  S  S41  1  0.33232802  0.96714840  0.54633367  1
