# generated using pymatgen
data_Pr2Mn3(SbS3)4
_symmetry_space_group_name_H-M   'P 1'
_cell_length_a   20.02960800
_cell_length_b   3.90410600
_cell_length_c   14.95364829
_cell_angle_alpha   90.00000000
_cell_angle_beta   126.33350609
_cell_angle_gamma   90.00000000
_symmetry_Int_Tables_number   1
_chemical_formula_structural   Pr2Mn3(SbS3)4
_chemical_formula_sum   'Pr4 Mn6 Sb8 S24'
_cell_volume   942.00006694
_cell_formula_units_Z   2
loop_
 _symmetry_equiv_pos_site_id
 _symmetry_equiv_pos_as_xyz
  1  'x, y, z'
loop_
 _atom_site_type_symbol
 _atom_site_label
 _atom_site_symmetry_multiplicity
 _atom_site_fract_x
 _atom_site_fract_y
 _atom_site_fract_z
 _atom_site_occupancy
  Pr  Pr0  1  0.27742245  0.48911383  0.86929241  1
  Pr  Pr1  1  0.72939292  0.52140956  0.13269061  1
  Pr  Pr2  1  0.76648788  0.02099788  0.87234682  1
  Pr  Pr3  1  0.23457680  0.92640950  0.13054641  1
  Mn  Mn4  1  0.29382135  0.43139192  0.60645505  1
  Mn  Mn5  1  0.70255805  0.52546145  0.36279859  1
  Mn  Mn6  1  0.99658726  0.00126661  0.01092268  1
  Mn  Mn7  1  0.80457549  0.02927392  0.62940616  1
  Mn  Mn8  1  0.21173116  0.05515569  0.39279814  1
  Mn  Mn9  1  0.49829253  0.47284275  0.99957541  1
  Sb  Sb10  1  0.87938656  0.86310146  0.45065402  1
  Sb  Sb11  1  0.10738231  0.99573077  0.54090639  1
  Sb  Sb12  1  0.03917406  0.49472484  0.82433185  1
  Sb  Sb13  1  0.96042052  0.46512999  0.19406092  1
  Sb  Sb14  1  0.40718109  0.56015366  0.46578476  1
  Sb  Sb15  1  0.60224195  0.56524472  0.52882250  1
  Sb  Sb16  1  0.52607915  0.94436359  0.80746027  1
  Sb  Sb17  1  0.46071810  0.00626566  0.18152243  1
  S  S18  1  0.93430557  0.00717899  0.80230749  1
  S  S19  1  0.06065647  0.03833375  0.20113046  1
  S  S20  1  0.41788002  0.99824126  0.98272146  1
  S  S21  1  0.57904730  0.98120027  0.00887722  1
  S  S22  1  0.17238607  0.91860674  0.89294707  1
  S  S23  1  0.81797950  0.04115903  0.09779091  1
  S  S24  1  0.10749202  0.45616494  0.65986112  1
  S  S25  1  0.90157229  0.43091919  0.35143836  1
  S  S26  1  0.72949189  0.04822278  0.30440536  1
  S  S27  1  0.26172320  0.94922320  0.68082323  1
  S  S28  1  0.17071281  0.49511356  0.45437355  1
  S  S29  1  0.81796695  0.54862378  0.55741252  1
  S  S30  1  0.43859412  0.46351214  0.80717631  1
  S  S31  1  0.56085586  0.51487218  0.19884694  1
  S  S32  1  0.91675607  0.50836017  0.99267596  1
  S  S33  1  0.08481508  0.46577327  0.02407808  1
  S  S34  1  0.65689537  0.49313692  0.87926307  1
  S  S35  1  0.32300997  0.43009225  0.09842957  1
  S  S36  1  0.59439494  0.99811049  0.63745470  1
  S  S37  1  0.40780588  0.02579305  0.34840420  1
  S  S38  1  0.24438784  0.49193855  0.32103835  1
  S  S39  1  0.75507053  0.49489383  0.69513251  1
  S  S40  1  0.66981165  0.97225227  0.44292844  1
  S  S41  1  0.33260087  0.96776007  0.54690018  1
