# generated using pymatgen
data_Pr2Mn3(SbS3)4
_symmetry_space_group_name_H-M   'P 1'
_cell_length_a   20.02960800
_cell_length_b   3.90410600
_cell_length_c   14.95364829
_cell_angle_alpha   90.00000000
_cell_angle_beta   126.33350609
_cell_angle_gamma   90.00000000
_symmetry_Int_Tables_number   1
_chemical_formula_structural   Pr2Mn3(SbS3)4
_chemical_formula_sum   'Pr4 Mn6 Sb8 S24'
_cell_volume   942.00006694
_cell_formula_units_Z   2
loop_
 _symmetry_equiv_pos_site_id
 _symmetry_equiv_pos_as_xyz
  1  'x, y, z'
loop_
 _atom_site_type_symbol
 _atom_site_label
 _atom_site_symmetry_multiplicity
 _atom_site_fract_x
 _atom_site_fract_y
 _atom_site_fract_z
 _atom_site_occupancy
  Pr  Pr0  1  0.27741771  0.48924526  0.86923896  1
  Pr  Pr1  1  0.72951028  0.52178519  0.13269376  1
  Pr  Pr2  1  0.76639687  0.02084548  0.87214875  1
  Pr  Pr3  1  0.23443053  0.92620476  0.13045610  1
  Mn  Mn4  1  0.29353573  0.43202806  0.60601075  1
  Mn  Mn5  1  0.70249344  0.52530216  0.36286160  1
  Mn  Mn6  1  0.99665359  0.00139012  0.01095214  1
  Mn  Mn7  1  0.80470394  0.03034671  0.62961187  1
  Mn  Mn8  1  0.21188092  0.05535607  0.39296997  1
  Mn  Mn9  1  0.49840658  0.47336002  0.99966787  1
  Sb  Sb10  1  0.87940533  0.86319712  0.45070620  1
  Sb  Sb11  1  0.10738723  0.99504685  0.54104188  1
  Sb  Sb12  1  0.03921038  0.49435335  0.82431664  1
  Sb  Sb13  1  0.96050447  0.46517622  0.19410261  1
  Sb  Sb14  1  0.40722276  0.56031589  0.46589644  1
  Sb  Sb15  1  0.60219261  0.56526664  0.52884334  1
  Sb  Sb16  1  0.52614854  0.94433089  0.80776478  1
  Sb  Sb17  1  0.46074682  0.00603443  0.18151370  1
  S  S18  1  0.93414659  0.00674510  0.80204358  1
  S  S19  1  0.06072770  0.03836755  0.20155835  1
  S  S20  1  0.41765318  0.99911326  0.98265514  1
  S  S21  1  0.57888686  0.97959325  0.00879191  1
  S  S22  1  0.17230007  0.91806712  0.89298050  1
  S  S23  1  0.81832093  0.04011204  0.09793265  1
  S  S24  1  0.10746437  0.45713802  0.66004998  1
  S  S25  1  0.90161315  0.43022344  0.35128293  1
  S  S26  1  0.72962700  0.04844749  0.30439017  1
  S  S27  1  0.26151283  0.94878081  0.68054937  1
  S  S28  1  0.17044726  0.49523179  0.45409113  1
  S  S29  1  0.81802600  0.54920733  0.55768137  1
  S  S30  1  0.43839560  0.46452470  0.80697372  1
  S  S31  1  0.56059681  0.51503130  0.19862096  1
  S  S32  1  0.91656887  0.50711905  0.99232579  1
  S  S33  1  0.08457895  0.46538350  0.02399419  1
  S  S34  1  0.65680183  0.49398142  0.87897421  1
  S  S35  1  0.32321046  0.42958580  0.09883795  1
  S  S36  1  0.59417872  0.99754617  0.63713733  1
  S  S37  1  0.40803472  0.02684120  0.34866065  1
  S  S38  1  0.24442671  0.49231145  0.32119600  1
  S  S39  1  0.75528748  0.49493129  0.69520234  1
  S  S40  1  0.66969629  0.97157655  0.44293574  1
  S  S41  1  0.33277512  0.96818320  0.54749771  1
