# generated using pymatgen
data_Pr2Mn3(SbS3)4
_symmetry_space_group_name_H-M   'P 1'
_cell_length_a   20.02960800
_cell_length_b   3.90410600
_cell_length_c   14.95364829
_cell_angle_alpha   90.00000000
_cell_angle_beta   126.33350609
_cell_angle_gamma   90.00000000
_symmetry_Int_Tables_number   1
_chemical_formula_structural   Pr2Mn3(SbS3)4
_chemical_formula_sum   'Pr4 Mn6 Sb8 S24'
_cell_volume   942.00006694
_cell_formula_units_Z   2
loop_
 _symmetry_equiv_pos_site_id
 _symmetry_equiv_pos_as_xyz
  1  'x, y, z'
loop_
 _atom_site_type_symbol
 _atom_site_label
 _atom_site_symmetry_multiplicity
 _atom_site_fract_x
 _atom_site_fract_y
 _atom_site_fract_z
 _atom_site_occupancy
  Pr  Pr0  1  0.26585783  0.47727759  0.86460994  1
  Pr  Pr1  1  0.73531846  0.51801470  0.13562555  1
  Pr  Pr2  1  0.76488696  0.01437082  0.86503040  1
  Pr  Pr3  1  0.23816313  0.00720006  0.13814357  1
  Mn  Mn4  1  0.29263083  0.47741522  0.60026370  1
  Mn  Mn5  1  0.69075978  0.50492182  0.37919942  1
  Mn  Mn6  1  0.01044830  0.99778144  0.01713533  1
  Mn  Mn7  1  0.80393174  0.01736789  0.61389353  1
  Mn  Mn8  1  0.19775370  0.97502411  0.37895236  1
  Mn  Mn9  1  0.49361977  0.46311879  0.98933164  1
  Sb  Sb10  1  0.89014713  0.98174214  0.44992464  1
  Sb  Sb11  1  0.11270990  0.97729494  0.54851434  1
  Sb  Sb12  1  0.03936722  0.51846997  0.81967121  1
  Sb  Sb13  1  0.96562956  0.50779488  0.18635635  1
  Sb  Sb14  1  0.39612342  0.51313303  0.45451166  1
  Sb  Sb15  1  0.60592230  0.47484508  0.54766672  1
  Sb  Sb16  1  0.53460982  0.00681559  0.81080918  1
  Sb  Sb17  1  0.46016939  0.01678240  0.18076149  1
  S  S18  1  0.93358085  0.99047984  0.80032208  1
  S  S19  1  0.06648797  0.98684210  0.19359908  1
  S  S20  1  0.40823765  0.98249657  0.98356281  1
  S  S21  1  0.58562799  0.98490306  0.01362576  1
  S  S22  1  0.16918963  0.01724203  0.89661908  1
  S  S23  1  0.82484804  0.03261779  0.09564986  1
  S  S24  1  0.09125825  0.47590505  0.64370590  1
  S  S25  1  0.91009065  0.46775101  0.35566040  1
  S  S26  1  0.74059621  0.94705478  0.30249128  1
  S  S27  1  0.26354326  0.00220834  0.71220812  1
  S  S28  1  0.16275204  0.47140361  0.43680671  1
  S  S29  1  0.82839430  0.48215295  0.54834815  1
  S  S30  1  0.43161803  0.49471935  0.79528919  1
  S  S31  1  0.56058683  0.50732647  0.18353148  1
  S  S32  1  0.91247093  0.50212519  0.98799857  1
  S  S33  1  0.08704092  0.47253680  0.01953054  1
  S  S34  1  0.66589090  0.50579361  0.88806379  1
  S  S35  1  0.32752577  0.52890459  0.09252877  1
  S  S36  1  0.59645587  0.98954320  0.65841355  1
  S  S37  1  0.40669202  0.98299983  0.35066013  1
  S  S38  1  0.24318696  0.44561643  0.30857831  1
  S  S39  1  0.76737666  0.50300912  0.70520114  1
  S  S40  1  0.67107325  0.03056941  0.45633140  1
  S  S41  1  0.32183076  0.97680410  0.54436713  1
