# generated using pymatgen
data_Pr2Mn3(SbS3)4
_symmetry_space_group_name_H-M   'P 1'
_cell_length_a   20.02960800
_cell_length_b   3.90410600
_cell_length_c   14.95364829
_cell_angle_alpha   90.00000000
_cell_angle_beta   126.33350609
_cell_angle_gamma   90.00000000
_symmetry_Int_Tables_number   1
_chemical_formula_structural   Pr2Mn3(SbS3)4
_chemical_formula_sum   'Pr4 Mn6 Sb8 S24'
_cell_volume   942.00006694
_cell_formula_units_Z   2
loop_
 _symmetry_equiv_pos_site_id
 _symmetry_equiv_pos_as_xyz
  1  'x, y, z'
loop_
 _atom_site_type_symbol
 _atom_site_label
 _atom_site_symmetry_multiplicity
 _atom_site_fract_x
 _atom_site_fract_y
 _atom_site_fract_z
 _atom_site_occupancy
  Pr  Pr0  1  0.27733609  0.48928670  0.86920420  1
  Pr  Pr1  1  0.72959193  0.52179362  0.13268284  1
  Pr  Pr2  1  0.76631273  0.02071058  0.87200940  1
  Pr  Pr3  1  0.23430459  0.92615982  0.13045194  1
  Mn  Mn4  1  0.29323937  0.43256136  0.60552654  1
  Mn  Mn5  1  0.70253089  0.52543335  0.36305300  1
  Mn  Mn6  1  0.99665129  0.00152707  0.01089282  1
  Mn  Mn7  1  0.80485749  0.03128928  0.62984801  1
  Mn  Mn8  1  0.21204622  0.05544426  0.39303662  1
  Mn  Mn9  1  0.49841888  0.47355070  0.99960600  1
  Sb  Sb10  1  0.87941462  0.86325721  0.45070711  1
  Sb  Sb11  1  0.10741477  0.99450047  0.54128108  1
  Sb  Sb12  1  0.03924830  0.49388015  0.82430959  1
  Sb  Sb13  1  0.96055995  0.46545744  0.19405126  1
  Sb  Sb14  1  0.40729626  0.56052602  0.46601542  1
  Sb  Sb15  1  0.60207675  0.56512776  0.52882302  1
  Sb  Sb16  1  0.52625369  0.94439191  0.80806176  1
  Sb  Sb17  1  0.46079410  0.00579669  0.18152204  1
  S  S18  1  0.93406369  0.00615527  0.80184230  1
  S  S19  1  0.06083529  0.03785022  0.20197940  1
  S  S20  1  0.41744730  0.99992814  0.98271147  1
  S  S21  1  0.57871202  0.97810880  0.00854866  1
  S  S22  1  0.17230858  0.91744886  0.89301850  1
  S  S23  1  0.81863625  0.03930194  0.09815472  1
  S  S24  1  0.10735609  0.45783208  0.66025039  1
  S  S25  1  0.90156658  0.42980987  0.35094497  1
  S  S26  1  0.72967425  0.04818527  0.30436785  1
  S  S27  1  0.26127880  0.94811178  0.68020424  1
  S  S28  1  0.17023433  0.49564424  0.45392807  1
  S  S29  1  0.81798127  0.54913673  0.55785466  1
  S  S30  1  0.43831515  0.46540957  0.80684101  1
  S  S31  1  0.56051170  0.51491434  0.19851638  1
  S  S32  1  0.91640758  0.50525505  0.99202334  1
  S  S33  1  0.08426332  0.46542972  0.02374074  1
  S  S34  1  0.65671504  0.49517327  0.87857471  1
  S  S35  1  0.32340034  0.42900071  0.09906028  1
  S  S36  1  0.59389244  0.99685005  0.63666530  1
  S  S37  1  0.40816316  0.02788996  0.34901361  1
  S  S38  1  0.24434467  0.49320027  0.32125488  1
  S  S39  1  0.75549930  0.49523592  0.69537078  1
  S  S40  1  0.66962010  0.97084205  0.44299607  1
  S  S41  1  0.33290037  0.96838650  0.54809145  1
