# generated using pymatgen
data_Pr2Mn3(SbS3)4
_symmetry_space_group_name_H-M   'P 1'
_cell_length_a   20.02960800
_cell_length_b   3.90410600
_cell_length_c   14.95364829
_cell_angle_alpha   90.00000000
_cell_angle_beta   126.33350609
_cell_angle_gamma   90.00000000
_symmetry_Int_Tables_number   1
_chemical_formula_structural   Pr2Mn3(SbS3)4
_chemical_formula_sum   'Pr4 Mn6 Sb8 S24'
_cell_volume   942.00006694
_cell_formula_units_Z   2
loop_
 _symmetry_equiv_pos_site_id
 _symmetry_equiv_pos_as_xyz
  1  'x, y, z'
loop_
 _atom_site_type_symbol
 _atom_site_label
 _atom_site_symmetry_multiplicity
 _atom_site_fract_x
 _atom_site_fract_y
 _atom_site_fract_z
 _atom_site_occupancy
  Pr  Pr0  1  0.27727917  0.48942456  0.86917874  1
  Pr  Pr1  1  0.72964658  0.52158483  0.13267572  1
  Pr  Pr2  1  0.76619961  0.02039203  0.87184696  1
  Pr  Pr3  1  0.23421259  0.92636138  0.13049525  1
  Mn  Mn4  1  0.29297762  0.43300649  0.60525561  1
  Mn  Mn5  1  0.70257917  0.52563273  0.36323662  1
  Mn  Mn6  1  0.99670284  0.00162954  0.01083832  1
  Mn  Mn7  1  0.80494548  0.03211590  0.63005857  1
  Mn  Mn8  1  0.21216160  0.05489237  0.39303444  1
  Mn  Mn9  1  0.49837365  0.47379785  0.99948226  1
  Sb  Sb10  1  0.87945548  0.86342540  0.45078941  1
  Sb  Sb11  1  0.10749362  0.99407070  0.54147007  1
  Sb  Sb12  1  0.03928275  0.49318978  0.82428937  1
  Sb  Sb13  1  0.96064820  0.46587497  0.19401402  1
  Sb  Sb14  1  0.40737480  0.56068866  0.46608004  1
  Sb  Sb15  1  0.60201186  0.56510287  0.52888518  1
  Sb  Sb16  1  0.52630559  0.94430672  0.80825081  1
  Sb  Sb17  1  0.46084920  0.00535743  0.18152486  1
  S  S18  1  0.93408494  0.00461798  0.80177274  1
  S  S19  1  0.06100050  0.03751319  0.20237759  1
  S  S20  1  0.41731752  0.00031616  0.98273572  1
  S  S21  1  0.57863212  0.97716574  0.00830608  1
  S  S22  1  0.17232130  0.91690764  0.89313934  1
  S  S23  1  0.81882890  0.03873729  0.09834068  1
  S  S24  1  0.10739790  0.45843752  0.66051138  1
  S  S25  1  0.90157733  0.43001527  0.35063944  1
  S  S26  1  0.72978328  0.04794596  0.30439068  1
  S  S27  1  0.26116300  0.94688615  0.68007781  1
  S  S28  1  0.16999470  0.49599280  0.45376531  1
  S  S29  1  0.81793829  0.54915382  0.55798939  1
  S  S30  1  0.43825206  0.46578289  0.80658286  1
  S  S31  1  0.56041928  0.51474715  0.19842154  1
  S  S32  1  0.91628818  0.50351516  0.99176486  1
  S  S33  1  0.08407218  0.46544416  0.02370298  1
  S  S34  1  0.65675792  0.49612539  0.87831146  1
  S  S35  1  0.32367401  0.42869084  0.09926007  1
  S  S36  1  0.59361974  0.99651142  0.63628579  1
  S  S37  1  0.40832180  0.02811453  0.34945221  1
  S  S38  1  0.24417843  0.49340371  0.32122742  1
  S  S39  1  0.75574170  0.49532492  0.69543570  1
  S  S40  1  0.66940279  0.96965249  0.44288726  1
  S  S41  1  0.33301297  0.96832405  0.54843753  1
