# generated using pymatgen
data_Pr2Mn3(SbS3)4
_symmetry_space_group_name_H-M   'P 1'
_cell_length_a   20.02960800
_cell_length_b   3.90410600
_cell_length_c   14.95364829
_cell_angle_alpha   90.00000000
_cell_angle_beta   126.33350609
_cell_angle_gamma   90.00000000
_symmetry_Int_Tables_number   1
_chemical_formula_structural   Pr2Mn3(SbS3)4
_chemical_formula_sum   'Pr4 Mn6 Sb8 S24'
_cell_volume   942.00006694
_cell_formula_units_Z   2
loop_
 _symmetry_equiv_pos_site_id
 _symmetry_equiv_pos_as_xyz
  1  'x, y, z'
loop_
 _atom_site_type_symbol
 _atom_site_label
 _atom_site_symmetry_multiplicity
 _atom_site_fract_x
 _atom_site_fract_y
 _atom_site_fract_z
 _atom_site_occupancy
  Pr  Pr0  1  0.27719580  0.48936310  0.86915347  1
  Pr  Pr1  1  0.72977213  0.52132605  0.13271610  1
  Pr  Pr2  1  0.76609059  0.02009108  0.87164983  1
  Pr  Pr3  1  0.23420498  0.92639218  0.13058500  1
  Mn  Mn4  1  0.29271802  0.43328931  0.60498362  1
  Mn  Mn5  1  0.70262515  0.52566830  0.36333318  1
  Mn  Mn6  1  0.99665502  0.00188431  0.01063603  1
  Mn  Mn7  1  0.80495192  0.03285278  0.63027887  1
  Mn  Mn8  1  0.21222887  0.05408706  0.39312145  1
  Mn  Mn9  1  0.49834691  0.47387676  0.99935966  1
  Sb  Sb10  1  0.87941924  0.86350601  0.45076403  1
  Sb  Sb11  1  0.10753829  0.99372134  0.54164288  1
  Sb  Sb12  1  0.03926308  0.49250162  0.82419200  1
  Sb  Sb13  1  0.96073409  0.46629832  0.19390559  1
  Sb  Sb14  1  0.40745501  0.56064455  0.46616426  1
  Sb  Sb15  1  0.60195001  0.56502069  0.52896769  1
  Sb  Sb16  1  0.52631180  0.94435192  0.80837954  1
  Sb  Sb17  1  0.46093027  0.00502806  0.18159022  1
  S  S18  1  0.93412628  0.00312742  0.80177264  1
  S  S19  1  0.06109242  0.03729039  0.20271347  1
  S  S20  1  0.41715503  0.00078072  0.98272911  1
  S  S21  1  0.57864033  0.97636547  0.00810654  1
  S  S22  1  0.17222294  0.91689425  0.89299463  1
  S  S23  1  0.81900030  0.03801133  0.09852433  1
  S  S24  1  0.10740431  0.45901332  0.66086431  1
  S  S25  1  0.90163686  0.43025434  0.35034475  1
  S  S26  1  0.72990655  0.04731426  0.30434677  1
  S  S27  1  0.26106600  0.94576734  0.67997809  1
  S  S28  1  0.16981461  0.49600304  0.45361227  1
  S  S29  1  0.81793652  0.54909873  0.55811082  1
  S  S30  1  0.43819566  0.46627273  0.80633793  1
  S  S31  1  0.56020581  0.51451773  0.19829173  1
  S  S32  1  0.91601033  0.50129740  0.99147682  1
  S  S33  1  0.08403536  0.46513411  0.02368672  1
  S  S34  1  0.65676742  0.49670142  0.87811814  1
  S  S35  1  0.32391638  0.42819668  0.09953086  1
  S  S36  1  0.59349707  0.99626915  0.63602524  1
  S  S37  1  0.40835496  0.02838767  0.34966175  1
  S  S38  1  0.24408501  0.49317004  0.32128417  1
  S  S39  1  0.75593668  0.49490970  0.69543614  1
  S  S40  1  0.66918321  0.96800682  0.44287083  1
  S  S41  1  0.33316662  0.96808985  0.54897146  1
