# generated using pymatgen
data_Pr2Mn3(SbS3)4
_symmetry_space_group_name_H-M   'P 1'
_cell_length_a   20.02960800
_cell_length_b   3.90410600
_cell_length_c   14.95364829
_cell_angle_alpha   90.00000000
_cell_angle_beta   126.33350609
_cell_angle_gamma   90.00000000
_symmetry_Int_Tables_number   1
_chemical_formula_structural   Pr2Mn3(SbS3)4
_chemical_formula_sum   'Pr4 Mn6 Sb8 S24'
_cell_volume   942.00006694
_cell_formula_units_Z   2
loop_
 _symmetry_equiv_pos_site_id
 _symmetry_equiv_pos_as_xyz
  1  'x, y, z'
loop_
 _atom_site_type_symbol
 _atom_site_label
 _atom_site_symmetry_multiplicity
 _atom_site_fract_x
 _atom_site_fract_y
 _atom_site_fract_z
 _atom_site_occupancy
  Pr  Pr0  1  0.27706585  0.48925406  0.86904053  1
  Pr  Pr1  1  0.72994610  0.52096831  0.13277103  1
  Pr  Pr2  1  0.76600728  0.01989474  0.87152104  1
  Pr  Pr3  1  0.23416233  0.92656232  0.13064989  1
  Mn  Mn4  1  0.29240963  0.43387361  0.60461904  1
  Mn  Mn5  1  0.70266948  0.52576150  0.36345222  1
  Mn  Mn6  1  0.99663685  0.00267427  0.01034320  1
  Mn  Mn7  1  0.80489681  0.03311477  0.63033188  1
  Mn  Mn8  1  0.21226859  0.05305474  0.39320731  1
  Mn  Mn9  1  0.49840420  0.47389910  0.99926697  1
  Sb  Sb10  1  0.87933487  0.86368113  0.45066026  1
  Sb  Sb11  1  0.10761398  0.99311253  0.54188454  1
  Sb  Sb12  1  0.03919117  0.49177214  0.82399774  1
  Sb  Sb13  1  0.96085086  0.46643706  0.19388403  1
  Sb  Sb14  1  0.40754605  0.56045440  0.46622632  1
  Sb  Sb15  1  0.60190148  0.56518264  0.52902105  1
  Sb  Sb16  1  0.52632703  0.94463668  0.80836191  1
  Sb  Sb17  1  0.46105804  0.00468495  0.18165858  1
  S  S18  1  0.93412426  0.00154054  0.80187659  1
  S  S19  1  0.06128204  0.03696868  0.20307826  1
  S  S20  1  0.41686697  0.00102659  0.98263810  1
  S  S21  1  0.57865784  0.97543705  0.00799702  1
  S  S22  1  0.17208745  0.91660339  0.89269852  1
  S  S23  1  0.81915128  0.03739424  0.09858067  1
  S  S24  1  0.10735471  0.45964059  0.66099471  1
  S  S25  1  0.90170927  0.43085887  0.35021634  1
  S  S26  1  0.73004252  0.04666457  0.30431212  1
  S  S27  1  0.26098348  0.94404552  0.67987984  1
  S  S28  1  0.16951792  0.49666411  0.45341655  1
  S  S29  1  0.81784326  0.54888994  0.55815671  1
  S  S30  1  0.43818128  0.46659053  0.80602602  1
  S  S31  1  0.56000385  0.51420316  0.19827976  1
  S  S32  1  0.91558633  0.49993772  0.99119102  1
  S  S33  1  0.08390745  0.46530412  0.02357270  1
  S  S34  1  0.65658146  0.49727677  0.87774101  1
  S  S35  1  0.32406723  0.42738987  0.09968276  1
  S  S36  1  0.59350042  0.99580725  0.63594860  1
  S  S37  1  0.40830040  0.02857250  0.34958659  1
  S  S38  1  0.24400223  0.49266733  0.32132369  1
  S  S39  1  0.75605144  0.49447980  0.69537078  1
  S  S40  1  0.66907090  0.96635807  0.44300854  1
  S  S41  1  0.33330923  0.96767141  0.54940895  1
