# generated using pymatgen
data_Pr2Mn3(SbS3)4
_symmetry_space_group_name_H-M   'P 1'
_cell_length_a   20.02960800
_cell_length_b   3.90410600
_cell_length_c   14.95364829
_cell_angle_alpha   90.00000000
_cell_angle_beta   126.33350609
_cell_angle_gamma   90.00000000
_symmetry_Int_Tables_number   1
_chemical_formula_structural   Pr2Mn3(SbS3)4
_chemical_formula_sum   'Pr4 Mn6 Sb8 S24'
_cell_volume   942.00006694
_cell_formula_units_Z   2
loop_
 _symmetry_equiv_pos_site_id
 _symmetry_equiv_pos_as_xyz
  1  'x, y, z'
loop_
 _atom_site_type_symbol
 _atom_site_label
 _atom_site_symmetry_multiplicity
 _atom_site_fract_x
 _atom_site_fract_y
 _atom_site_fract_z
 _atom_site_occupancy
  Pr  Pr0  1  0.27693907  0.48890380  0.86890776  1
  Pr  Pr1  1  0.73010614  0.52046418  0.13284653  1
  Pr  Pr2  1  0.76591962  0.01965648  0.87143091  1
  Pr  Pr3  1  0.23409765  0.92668482  0.13073993  1
  Mn  Mn4  1  0.29225991  0.43442779  0.60441596  1
  Mn  Mn5  1  0.70273601  0.52602579  0.36358176  1
  Mn  Mn6  1  0.99667141  0.00306596  0.01018099  1
  Mn  Mn7  1  0.80485092  0.03310004  0.63036671  1
  Mn  Mn8  1  0.21221476  0.05201320  0.39315605  1
  Mn  Mn9  1  0.49849156  0.47403019  0.99928632  1
  Sb  Sb10  1  0.87925092  0.86396301  0.45052584  1
  Sb  Sb11  1  0.10770004  0.99237245  0.54207157  1
  Sb  Sb12  1  0.03912050  0.49158503  0.82382527  1
  Sb  Sb13  1  0.96091447  0.46668192  0.19378580  1
  Sb  Sb14  1  0.40752131  0.56017398  0.46626014  1
  Sb  Sb15  1  0.60184215  0.56553042  0.52905550  1
  Sb  Sb16  1  0.52635356  0.94481925  0.80830302  1
  Sb  Sb17  1  0.46114819  0.00405091  0.18165914  1
  S  S18  1  0.93420694  0.99967591  0.80208886  1
  S  S19  1  0.06154872  0.03653274  0.20342658  1
  S  S20  1  0.41662566  0.00102026  0.98252715  1
  S  S21  1  0.57857866  0.97434945  0.00785345  1
  S  S22  1  0.17194496  0.91639727  0.89240152  1
  S  S23  1  0.81913921  0.03713234  0.09847244  1
  S  S24  1  0.10728498  0.46025287  0.66099505  1
  S  S25  1  0.90184339  0.43152405  0.35006095  1
  S  S26  1  0.73014537  0.04580165  0.30421658  1
  S  S27  1  0.26092565  0.94289017  0.67968231  1
  S  S28  1  0.16914301  0.49752703  0.45314476  1
  S  S29  1  0.81762399  0.54831437  0.55803892  1
  S  S30  1  0.43823796  0.46721399  0.80585342  1
  S  S31  1  0.55984512  0.51373673  0.19819012  1
  S  S32  1  0.91522688  0.49889246  0.99085473  1
  S  S33  1  0.08359553  0.46538135  0.02343553  1
  S  S34  1  0.65645996  0.49783235  0.87747427  1
  S  S35  1  0.32418885  0.42677612  0.09968500  1
  S  S36  1  0.59347275  0.99552203  0.63585324  1
  S  S37  1  0.40812764  0.02891109  0.34937527  1
  S  S38  1  0.24398104  0.49239480  0.32146325  1
  S  S39  1  0.75621427  0.49416849  0.69530246  1
  S  S40  1  0.66891799  0.96547894  0.44326533  1
  S  S41  1  0.33333845  0.96691888  0.54982286  1
