# generated using pymatgen
data_Pr2Mn3(SbS3)4
_symmetry_space_group_name_H-M   'P 1'
_cell_length_a   20.02960800
_cell_length_b   3.90410600
_cell_length_c   14.95364829
_cell_angle_alpha   90.00000000
_cell_angle_beta   126.33350609
_cell_angle_gamma   90.00000000
_symmetry_Int_Tables_number   1
_chemical_formula_structural   Pr2Mn3(SbS3)4
_chemical_formula_sum   'Pr4 Mn6 Sb8 S24'
_cell_volume   942.00006694
_cell_formula_units_Z   2
loop_
 _symmetry_equiv_pos_site_id
 _symmetry_equiv_pos_as_xyz
  1  'x, y, z'
loop_
 _atom_site_type_symbol
 _atom_site_label
 _atom_site_symmetry_multiplicity
 _atom_site_fract_x
 _atom_site_fract_y
 _atom_site_fract_z
 _atom_site_occupancy
  Pr  Pr0  1  0.27681715  0.48836974  0.86877228  1
  Pr  Pr1  1  0.73026772  0.51989239  0.13294397  1
  Pr  Pr2  1  0.76588653  0.01933602  0.87140191  1
  Pr  Pr3  1  0.23403214  0.92712989  0.13077987  1
  Mn  Mn4  1  0.29201473  0.43487268  0.60409035  1
  Mn  Mn5  1  0.70277165  0.52614267  0.36367628  1
  Mn  Mn6  1  0.99675302  0.00346151  0.01008931  1
  Mn  Mn7  1  0.80486816  0.03327675  0.63051858  1
  Mn  Mn8  1  0.21215322  0.05105531  0.39312038  1
  Mn  Mn9  1  0.49858463  0.47416688  0.99930998  1
  Sb  Sb10  1  0.87919594  0.86428158  0.45050591  1
  Sb  Sb11  1  0.10773175  0.99153461  0.54216513  1
  Sb  Sb12  1  0.03904403  0.49171102  0.82360196  1
  Sb  Sb13  1  0.96098204  0.46706100  0.19375416  1
  Sb  Sb14  1  0.40748139  0.55996527  0.46625522  1
  Sb  Sb15  1  0.60177398  0.56589657  0.52905689  1
  Sb  Sb16  1  0.52632323  0.94494509  0.80815435  1
  Sb  Sb17  1  0.46123915  0.00344286  0.18168405  1
  S  S18  1  0.93411743  0.99873922  0.80211632  1
  S  S19  1  0.06188348  0.03626885  0.20384073  1
  S  S20  1  0.41650567  0.00132296  0.98238025  1
  S  S21  1  0.57844787  0.97328420  0.00769606  1
  S  S22  1  0.17187122  0.91661926  0.89236808  1
  S  S23  1  0.81914511  0.03727689  0.09840626  1
  S  S24  1  0.10725476  0.46073411  0.66096188  1
  S  S25  1  0.90191507  0.43232873  0.34991250  1
  S  S26  1  0.73019430  0.04497340  0.30422965  1
  S  S27  1  0.26081188  0.94214116  0.67936680  1
  S  S28  1  0.16881541  0.49788856  0.45294033  1
  S  S29  1  0.81734697  0.54772682  0.55786671  1
  S  S30  1  0.43835833  0.46806927  0.80568666  1
  S  S31  1  0.55956367  0.51342398  0.19784266  1
  S  S32  1  0.91483523  0.49819201  0.99059226  1
  S  S33  1  0.08327517  0.46535049  0.02338923  1
  S  S34  1  0.65635982  0.49852626  0.87720320  1
  S  S35  1  0.32429259  0.42640012  0.09968524  1
  S  S36  1  0.59348531  0.99520310  0.63573376  1
  S  S37  1  0.40799812  0.02930013  0.34927105  1
  S  S38  1  0.24399319  0.49188678  0.32160545  1
  S  S39  1  0.75642157  0.49428048  0.69540856  1
  S  S40  1  0.66884365  0.96538967  0.44352130  1
  S  S41  1  0.33322212  0.96634425  0.55008350  1
