# generated using pymatgen
data_Pr2Mn3(SbS3)4
_symmetry_space_group_name_H-M   'P 1'
_cell_length_a   20.02960800
_cell_length_b   3.90410600
_cell_length_c   14.95364829
_cell_angle_alpha   90.00000000
_cell_angle_beta   126.33350609
_cell_angle_gamma   90.00000000
_symmetry_Int_Tables_number   1
_chemical_formula_structural   Pr2Mn3(SbS3)4
_chemical_formula_sum   'Pr4 Mn6 Sb8 S24'
_cell_volume   942.00006694
_cell_formula_units_Z   2
loop_
 _symmetry_equiv_pos_site_id
 _symmetry_equiv_pos_as_xyz
  1  'x, y, z'
loop_
 _atom_site_type_symbol
 _atom_site_label
 _atom_site_symmetry_multiplicity
 _atom_site_fract_x
 _atom_site_fract_y
 _atom_site_fract_z
 _atom_site_occupancy
  Pr  Pr0  1  0.27671804  0.48774431  0.86869124  1
  Pr  Pr1  1  0.73039143  0.51957336  0.13299107  1
  Pr  Pr2  1  0.76585827  0.01894677  0.87135073  1
  Pr  Pr3  1  0.23393738  0.92776581  0.13079445  1
  Mn  Mn4  1  0.29186822  0.43508507  0.60392765  1
  Mn  Mn5  1  0.70279874  0.52631520  0.36385858  1
  Mn  Mn6  1  0.99694453  0.00373304  0.01006642  1
  Mn  Mn7  1  0.80495962  0.03337404  0.63060927  1
  Mn  Mn8  1  0.21197475  0.05030527  0.39292456  1
  Mn  Mn9  1  0.49867807  0.47456384  0.99931622  1
  Sb  Sb10  1  0.87912311  0.86438368  0.45051590  1
  Sb  Sb11  1  0.10778059  0.99064508  0.54230827  1
  Sb  Sb12  1  0.03894403  0.49190245  0.82337307  1
  Sb  Sb13  1  0.96100703  0.46757313  0.19366368  1
  Sb  Sb14  1  0.40743595  0.55951279  0.46620852  1
  Sb  Sb15  1  0.60178949  0.56651910  0.52911746  1
  Sb  Sb16  1  0.52633498  0.94499455  0.80803634  1
  Sb  Sb17  1  0.46130729  0.00291655  0.18167588  1
  S  S18  1  0.93383636  0.99817327  0.80189118  1
  S  S19  1  0.06213385  0.03525501  0.20411580  1
  S  S20  1  0.41637133  0.00137500  0.98218242  1
  S  S21  1  0.57833637  0.97237540  0.00764624  1
  S  S22  1  0.17163742  0.91645890  0.89227600  1
  S  S23  1  0.81915053  0.03778657  0.09830822  1
  S  S24  1  0.10725724  0.46119769  0.66097356  1
  S  S25  1  0.90193663  0.43324692  0.34962309  1
  S  S26  1  0.73022388  0.04397961  0.30411819  1
  S  S27  1  0.26071437  0.94140696  0.67914214  1
  S  S28  1  0.16856112  0.49813648  0.45270707  1
  S  S29  1  0.81715474  0.54720536  0.55781718  1
  S  S30  1  0.43838807  0.46875411  0.80548015  1
  S  S31  1  0.55941197  0.51301522  0.19767129  1
  S  S32  1  0.91448266  0.49768979  0.99037407  1
  S  S33  1  0.08302894  0.46548479  0.02323983  1
  S  S34  1  0.65618409  0.49920308  0.87678179  1
  S  S35  1  0.32442123  0.42628542  0.09967813  1
  S  S36  1  0.59341853  0.99492570  0.63561783  1
  S  S37  1  0.40783731  0.02862757  0.34920995  1
  S  S38  1  0.24394395  0.49124447  0.32181250  1
  S  S39  1  0.75656484  0.49457649  0.69532039  1
  S  S40  1  0.66882342  0.96514650  0.44371885  1
  S  S41  1  0.33308344  0.96527501  0.55037544  1
