# generated using pymatgen
data_Pr2Mn3(SbS3)4
_symmetry_space_group_name_H-M   'P 1'
_cell_length_a   20.02960800
_cell_length_b   3.90410600
_cell_length_c   14.95364829
_cell_angle_alpha   90.00000000
_cell_angle_beta   126.33350609
_cell_angle_gamma   90.00000000
_symmetry_Int_Tables_number   1
_chemical_formula_structural   Pr2Mn3(SbS3)4
_chemical_formula_sum   'Pr4 Mn6 Sb8 S24'
_cell_volume   942.00006694
_cell_formula_units_Z   2
loop_
 _symmetry_equiv_pos_site_id
 _symmetry_equiv_pos_as_xyz
  1  'x, y, z'
loop_
 _atom_site_type_symbol
 _atom_site_label
 _atom_site_symmetry_multiplicity
 _atom_site_fract_x
 _atom_site_fract_y
 _atom_site_fract_z
 _atom_site_occupancy
  Pr  Pr0  1  0.27662116  0.48710709  0.86858448  1
  Pr  Pr1  1  0.73049922  0.51931651  0.13299199  1
  Pr  Pr2  1  0.76590510  0.01852598  0.87136021  1
  Pr  Pr3  1  0.23387077  0.92851810  0.13083543  1
  Mn  Mn4  1  0.29173070  0.43526261  0.60373172  1
  Mn  Mn5  1  0.70278176  0.52611815  0.36401072  1
  Mn  Mn6  1  0.99713344  0.00418862  0.01004610  1
  Mn  Mn7  1  0.80506913  0.03310614  0.63066059  1
  Mn  Mn8  1  0.21190508  0.04948281  0.39270206  1
  Mn  Mn9  1  0.49872978  0.47496077  0.99924330  1
  Sb  Sb10  1  0.87902692  0.86473471  0.45045202  1
  Sb  Sb11  1  0.10784914  0.98982463  0.54249647  1
  Sb  Sb12  1  0.03885289  0.49200717  0.82315825  1
  Sb  Sb13  1  0.96101053  0.46789421  0.19353377  1
  Sb  Sb14  1  0.40742781  0.55926929  0.46617374  1
  Sb  Sb15  1  0.60181413  0.56714108  0.52916917  1
  Sb  Sb16  1  0.52633700  0.94476851  0.80793211  1
  Sb  Sb17  1  0.46135432  0.00252762  0.18159151  1
  S  S18  1  0.93357478  0.99760816  0.80175835  1
  S  S19  1  0.06227552  0.03433818  0.20446443  1
  S  S20  1  0.41630889  0.00124644  0.98207816  1
  S  S21  1  0.57824339  0.97206509  0.00750413  1
  S  S22  1  0.17134241  0.91668846  0.89221856  1
  S  S23  1  0.81900361  0.03854520  0.09807805  1
  S  S24  1  0.10722803  0.46108525  0.66084444  1
  S  S25  1  0.90200397  0.43391012  0.34945937  1
  S  S26  1  0.73025545  0.04290429  0.30412026  1
  S  S27  1  0.26061830  0.94085220  0.67895772  1
  S  S28  1  0.16826332  0.49847035  0.45237103  1
  S  S29  1  0.81701207  0.54657175  0.55778125  1
  S  S30  1  0.43845142  0.46966976  0.80523696  1
  S  S31  1  0.55934920  0.51287320  0.19749928  1
  S  S32  1  0.91422353  0.49736682  0.99030117  1
  S  S33  1  0.08283225  0.46610495  0.02322280  1
  S  S34  1  0.65611263  0.50003799  0.87656782  1
  S  S35  1  0.32467455  0.42633214  0.09965200  1
  S  S36  1  0.59343025  0.99530791  0.63553661  1
  S  S37  1  0.40769178  0.02776954  0.34915004  1
  S  S38  1  0.24385351  0.49105854  0.32203398  1
  S  S39  1  0.75659092  0.49451894  0.69522006  1
  S  S40  1  0.66881821  0.96457317  0.44385155  1
  S  S41  1  0.33297356  0.96462434  0.55070339  1
