# generated using pymatgen
data_Pr2Mn3(SbS3)4
_symmetry_space_group_name_H-M   'P 1'
_cell_length_a   20.02960800
_cell_length_b   3.90410600
_cell_length_c   14.95364829
_cell_angle_alpha   90.00000000
_cell_angle_beta   126.33350609
_cell_angle_gamma   90.00000000
_symmetry_Int_Tables_number   1
_chemical_formula_structural   Pr2Mn3(SbS3)4
_chemical_formula_sum   'Pr4 Mn6 Sb8 S24'
_cell_volume   942.00006694
_cell_formula_units_Z   2
loop_
 _symmetry_equiv_pos_site_id
 _symmetry_equiv_pos_as_xyz
  1  'x, y, z'
loop_
 _atom_site_type_symbol
 _atom_site_label
 _atom_site_symmetry_multiplicity
 _atom_site_fract_x
 _atom_site_fract_y
 _atom_site_fract_z
 _atom_site_occupancy
  Pr  Pr0  1  0.27649477  0.48674974  0.86841746  1
  Pr  Pr1  1  0.73059068  0.51885030  0.13301697  1
  Pr  Pr2  1  0.76593177  0.01834729  0.87132838  1
  Pr  Pr3  1  0.23382142  0.92933134  0.13085391  1
  Mn  Mn4  1  0.29163965  0.43537524  0.60356094  1
  Mn  Mn5  1  0.70272572  0.52622352  0.36412648  1
  Mn  Mn6  1  0.99743036  0.00464734  0.01010395  1
  Mn  Mn7  1  0.80509370  0.03297747  0.63064234  1
  Mn  Mn8  1  0.21182779  0.04883231  0.39231328  1
  Mn  Mn9  1  0.49884699  0.47516692  0.99917803  1
  Sb  Sb10  1  0.87889486  0.86525600  0.45037876  1
  Sb  Sb11  1  0.10786201  0.98913800  0.54264911  1
  Sb  Sb12  1  0.03874097  0.49214087  0.82290261  1
  Sb  Sb13  1  0.96100474  0.46820653  0.19338863  1
  Sb  Sb14  1  0.40743832  0.55916256  0.46616319  1
  Sb  Sb15  1  0.60184267  0.56787676  0.52922209  1
  Sb  Sb16  1  0.52637193  0.94506059  0.80791908  1
  Sb  Sb17  1  0.46134753  0.00246157  0.18148080  1
  S  S18  1  0.93335375  0.99718878  0.80174733  1
  S  S19  1  0.06242074  0.03372885  0.20483261  1
  S  S20  1  0.41622917  0.00116145  0.98201929  1
  S  S21  1  0.57811376  0.97221088  0.00743488  1
  S  S22  1  0.17124863  0.91723313  0.89233537  1
  S  S23  1  0.81894513  0.03917957  0.09796582  1
  S  S24  1  0.10719974  0.46123490  0.66083803  1
  S  S25  1  0.90216315  0.43476994  0.34943905  1
  S  S26  1  0.73037783  0.04185328  0.30426113  1
  S  S27  1  0.26060535  0.94054778  0.67881021  1
  S  S28  1  0.16801448  0.49839368  0.45211049  1
  S  S29  1  0.81684422  0.54592695  0.55771422  1
  S  S30  1  0.43859481  0.47041267  0.80498654  1
  S  S31  1  0.55933249  0.51232502  0.19728929  1
  S  S32  1  0.91411010  0.49740964  0.99020341  1
  S  S33  1  0.08253083  0.46662051  0.02313367  1
  S  S34  1  0.65605506  0.50056826  0.87637645  1
  S  S35  1  0.32508341  0.42664343  0.09994336  1
  S  S36  1  0.59350457  0.99505794  0.63551929  1
  S  S37  1  0.40760842  0.02727958  0.34920227  1
  S  S38  1  0.24393944  0.49088584  0.32239563  1
  S  S39  1  0.75658019  0.49416359  0.69512212  1
  S  S40  1  0.66879729  0.96381101  0.44400055  1
  S  S41  1  0.33280944  0.96386090  0.55094820  1
