# generated using pymatgen
data_Pr2Mn3(SbS3)4
_symmetry_space_group_name_H-M   'P 1'
_cell_length_a   20.02960800
_cell_length_b   3.90410600
_cell_length_c   14.95364829
_cell_angle_alpha   90.00000000
_cell_angle_beta   126.33350609
_cell_angle_gamma   90.00000000
_symmetry_Int_Tables_number   1
_chemical_formula_structural   Pr2Mn3(SbS3)4
_chemical_formula_sum   'Pr4 Mn6 Sb8 S24'
_cell_volume   942.00006694
_cell_formula_units_Z   2
loop_
 _symmetry_equiv_pos_site_id
 _symmetry_equiv_pos_as_xyz
  1  'x, y, z'
loop_
 _atom_site_type_symbol
 _atom_site_label
 _atom_site_symmetry_multiplicity
 _atom_site_fract_x
 _atom_site_fract_y
 _atom_site_fract_z
 _atom_site_occupancy
  Pr  Pr0  1  0.27639597  0.48617945  0.86828398  1
  Pr  Pr1  1  0.73071065  0.51832230  0.13305154  1
  Pr  Pr2  1  0.76596095  0.01825603  0.87122018  1
  Pr  Pr3  1  0.23370078  0.92994922  0.13080946  1
  Mn  Mn4  1  0.29163797  0.43520263  0.60345878  1
  Mn  Mn5  1  0.70253877  0.52628843  0.36411024  1
  Mn  Mn6  1  0.99776822  0.00508507  0.01022382  1
  Mn  Mn7  1  0.80509880  0.03334189  0.63059197  1
  Mn  Mn8  1  0.21177073  0.04843797  0.39206121  1
  Mn  Mn9  1  0.49893560  0.47528901  0.99911645  1
  Sb  Sb10  1  0.87872071  0.86544198  0.45020549  1
  Sb  Sb11  1  0.10784412  0.98839566  0.54270928  1
  Sb  Sb12  1  0.03863907  0.49219239  0.82271614  1
  Sb  Sb13  1  0.96091240  0.46859896  0.19324493  1
  Sb  Sb14  1  0.40742936  0.55906589  0.46609024  1
  Sb  Sb15  1  0.60187567  0.56853432  0.52928062  1
  Sb  Sb16  1  0.52634182  0.94537439  0.80782444  1
  Sb  Sb17  1  0.46137008  0.00206333  0.18143990  1
  S  S18  1  0.93303675  0.99743811  0.80164703  1
  S  S19  1  0.06267700  0.03276792  0.20530370  1
  S  S20  1  0.41619560  0.00064774  0.98197541  1
  S  S21  1  0.57795797  0.97235992  0.00739471  1
  S  S22  1  0.17104454  0.91770781  0.89228926  1
  S  S23  1  0.81901283  0.03997984  0.09801974  1
  S  S24  1  0.10720478  0.46118946  0.66086473  1
  S  S25  1  0.90228752  0.43573348  0.34949240  1
  S  S26  1  0.73054103  0.04123943  0.30443754  1
  S  S27  1  0.26048109  0.94045233  0.67873761  1
  S  S28  1  0.16769284  0.49826958  0.45185772  1
  S  S29  1  0.81670668  0.54523463  0.55766895  1
  S  S30  1  0.43876756  0.47113627  0.80475775  1
  S  S31  1  0.55941172  0.51196305  0.19714621  1
  S  S32  1  0.91408657  0.49772728  0.99007112  1
  S  S33  1  0.08222218  0.46773916  0.02309469  1
  S  S34  1  0.65598029  0.50088275  0.87614659  1
  S  S35  1  0.32544201  0.42692881  0.10021365  1
  S  S36  1  0.59358374  0.99446289  0.63562432  1
  S  S37  1  0.40755892  0.02650006  0.34923382  1
  S  S38  1  0.24388451  0.49046501  0.32257677  1
  S  S39  1  0.75646762  0.49400235  0.69489951  1
  S  S40  1  0.66879074  0.96261671  0.44419946  1
  S  S41  1  0.33265011  0.96310791  0.55117856  1
