# generated using pymatgen
data_Pr2Mn3(SbS3)4
_symmetry_space_group_name_H-M   'P 1'
_cell_length_a   20.02960800
_cell_length_b   3.90410600
_cell_length_c   14.95364829
_cell_angle_alpha   90.00000000
_cell_angle_beta   126.33350609
_cell_angle_gamma   90.00000000
_symmetry_Int_Tables_number   1
_chemical_formula_structural   Pr2Mn3(SbS3)4
_chemical_formula_sum   'Pr4 Mn6 Sb8 S24'
_cell_volume   942.00006694
_cell_formula_units_Z   2
loop_
 _symmetry_equiv_pos_site_id
 _symmetry_equiv_pos_as_xyz
  1  'x, y, z'
loop_
 _atom_site_type_symbol
 _atom_site_label
 _atom_site_symmetry_multiplicity
 _atom_site_fract_x
 _atom_site_fract_y
 _atom_site_fract_z
 _atom_site_occupancy
  Pr  Pr0  1  0.26584244  0.47766310  0.86451722  1
  Pr  Pr1  1  0.73526942  0.51773480  0.13555123  1
  Pr  Pr2  1  0.76469189  0.01442188  0.86490331  1
  Pr  Pr3  1  0.23806097  0.00724039  0.13809315  1
  Mn  Mn4  1  0.29249019  0.47673698  0.60007769  1
  Mn  Mn5  1  0.69060379  0.50462805  0.37884153  1
  Mn  Mn6  1  0.01038075  0.99660768  0.01715505  1
  Mn  Mn7  1  0.80398838  0.01777663  0.61402917  1
  Mn  Mn8  1  0.19790189  0.97547568  0.37907822  1
  Mn  Mn9  1  0.49351183  0.46405824  0.98930273  1
  Sb  Sb10  1  0.89009724  0.98148998  0.44987293  1
  Sb  Sb11  1  0.11271740  0.97725507  0.54845225  1
  Sb  Sb12  1  0.03940975  0.51841166  0.81988374  1
  Sb  Sb13  1  0.96554790  0.50765854  0.18612458  1
  Sb  Sb14  1  0.39603581  0.51311678  0.45436377  1
  Sb  Sb15  1  0.60595734  0.47446815  0.54777805  1
  Sb  Sb16  1  0.53456120  0.00663904  0.81075456  1
  Sb  Sb17  1  0.46027039  0.01674906  0.18080642  1
  S  S18  1  0.93374830  0.99089547  0.80043458  1
  S  S19  1  0.06637030  0.98610550  0.19403459  1
  S  S20  1  0.40818081  0.98234543  0.98359339  1
  S  S21  1  0.58525892  0.98448042  0.01327511  1
  S  S22  1  0.16932246  0.01726687  0.89664801  1
  S  S23  1  0.82487960  0.03455146  0.09577094  1
  S  S24  1  0.09153316  0.47419859  0.64393733  1
  S  S25  1  0.91015339  0.46768134  0.35536840  1
  S  S26  1  0.74058913  0.94666284  0.30244499  1
  S  S27  1  0.26369329  0.00259979  0.71252701  1
  S  S28  1  0.16234276  0.47248221  0.43638135  1
  S  S29  1  0.82816204  0.48149610  0.54834927  1
  S  S30  1  0.43150126  0.49556801  0.79543222  1
  S  S31  1  0.56047871  0.50790366  0.18329229  1
  S  S32  1  0.91231231  0.50151061  0.98803023  1
  S  S33  1  0.08718274  0.47120212  0.01983481  1
  S  S34  1  0.66571103  0.50676567  0.88791267  1
  S  S35  1  0.32769058  0.52908612  0.09274626  1
  S  S36  1  0.59630809  0.98950511  0.65804011  1
  S  S37  1  0.40671054  0.98383501  0.35069823  1
  S  S38  1  0.24302179  0.44626568  0.30865157  1
  S  S39  1  0.76700284  0.50310370  0.70490955  1
  S  S40  1  0.67100097  0.03052225  0.45658122  1
  S  S41  1  0.32175488  0.97774132  0.54467064  1
