# generated using pymatgen
data_Pr2Mn3(SbS3)4
_symmetry_space_group_name_H-M   'P 1'
_cell_length_a   20.02960800
_cell_length_b   3.90410600
_cell_length_c   14.95364829
_cell_angle_alpha   90.00000000
_cell_angle_beta   126.33350609
_cell_angle_gamma   90.00000000
_symmetry_Int_Tables_number   1
_chemical_formula_structural   Pr2Mn3(SbS3)4
_chemical_formula_sum   'Pr4 Mn6 Sb8 S24'
_cell_volume   942.00006694
_cell_formula_units_Z   2
loop_
 _symmetry_equiv_pos_site_id
 _symmetry_equiv_pos_as_xyz
  1  'x, y, z'
loop_
 _atom_site_type_symbol
 _atom_site_label
 _atom_site_symmetry_multiplicity
 _atom_site_fract_x
 _atom_site_fract_y
 _atom_site_fract_z
 _atom_site_occupancy
  Pr  Pr0  1  0.27631022  0.48584842  0.86818165  1
  Pr  Pr1  1  0.73082593  0.51785373  0.13313170  1
  Pr  Pr2  1  0.76596109  0.01838987  0.87109655  1
  Pr  Pr3  1  0.23361472  0.93042590  0.13079669  1
  Mn  Mn4  1  0.29166938  0.43495367  0.60322845  1
  Mn  Mn5  1  0.70234372  0.52648908  0.36412624  1
  Mn  Mn6  1  0.99801574  0.00540084  0.01023121  1
  Mn  Mn7  1  0.80507573  0.03374343  0.63040740  1
  Mn  Mn8  1  0.21173673  0.04810684  0.39185308  1
  Mn  Mn9  1  0.49894497  0.47546580  0.99908649  1
  Sb  Sb10  1  0.87863866  0.86557378  0.45004695  1
  Sb  Sb11  1  0.10781694  0.98743359  0.54269217  1
  Sb  Sb12  1  0.03849718  0.49203492  0.82250407  1
  Sb  Sb13  1  0.96083992  0.46884888  0.19313609  1
  Sb  Sb14  1  0.40741806  0.55916593  0.46605430  1
  Sb  Sb15  1  0.60196763  0.56900568  0.52946885  1
  Sb  Sb16  1  0.52626190  0.94583207  0.80766030  1
  Sb  Sb17  1  0.46140152  0.00176835  0.18143841  1
  S  S18  1  0.93262458  0.99790953  0.80148770  1
  S  S19  1  0.06277125  0.03173615  0.20575327  1
  S  S20  1  0.41614365  0.00027290  0.98185964  1
  S  S21  1  0.57778025  0.97235600  0.00723326  1
  S  S22  1  0.17084154  0.91856965  0.89230544  1
  S  S23  1  0.81895995  0.04090302  0.09814302  1
  S  S24  1  0.10731007  0.46127464  0.66102997  1
  S  S25  1  0.90236738  0.43656132  0.34945429  1
  S  S26  1  0.73070547  0.04053422  0.30461484  1
  S  S27  1  0.26048698  0.94004924  0.67883014  1
  S  S28  1  0.16732235  0.49834792  0.45154223  1
  S  S29  1  0.81660959  0.54446463  0.55759506  1
  S  S30  1  0.43889149  0.47152912  0.80464169  1
  S  S31  1  0.55949652  0.51177047  0.19687737  1
  S  S32  1  0.91399276  0.49784175  0.98985026  1
  S  S33  1  0.08197673  0.46872802  0.02303859  1
  S  S34  1  0.65590220  0.50120595  0.87588333  1
  S  S35  1  0.32585800  0.42769242  0.10053477  1
  S  S36  1  0.59357175  0.99373909  0.63575968  1
  S  S37  1  0.40752766  0.02564770  0.34924053  1
  S  S38  1  0.24384995  0.49028648  0.32282762  1
  S  S39  1  0.75637102  0.49380369  0.69476280  1
  S  S40  1  0.66878116  0.96161087  0.44434633  1
  S  S41  1  0.33246630  0.96222000  0.55135289  1
