# generated using pymatgen
data_Pr2Mn3(SbS3)4
_symmetry_space_group_name_H-M   'P 1'
_cell_length_a   20.02960800
_cell_length_b   3.90410600
_cell_length_c   14.95364829
_cell_angle_alpha   90.00000000
_cell_angle_beta   126.33350609
_cell_angle_gamma   90.00000000
_symmetry_Int_Tables_number   1
_chemical_formula_structural   Pr2Mn3(SbS3)4
_chemical_formula_sum   'Pr4 Mn6 Sb8 S24'
_cell_volume   942.00006694
_cell_formula_units_Z   2
loop_
 _symmetry_equiv_pos_site_id
 _symmetry_equiv_pos_as_xyz
  1  'x, y, z'
loop_
 _atom_site_type_symbol
 _atom_site_label
 _atom_site_symmetry_multiplicity
 _atom_site_fract_x
 _atom_site_fract_y
 _atom_site_fract_z
 _atom_site_occupancy
  Pr  Pr0  1  0.27626408  0.48600459  0.86810001  1
  Pr  Pr1  1  0.73092624  0.51722266  0.13317417  1
  Pr  Pr2  1  0.76604460  0.01848076  0.87101185  1
  Pr  Pr3  1  0.23352001  0.93053291  0.13077777  1
  Mn  Mn4  1  0.29175105  0.43501665  0.60308723  1
  Mn  Mn5  1  0.70213518  0.52661764  0.36405071  1
  Mn  Mn6  1  0.99821927  0.00591320  0.01018505  1
  Mn  Mn7  1  0.80506481  0.03396190  0.63022954  1
  Mn  Mn8  1  0.21163321  0.04771158  0.39153059  1
  Mn  Mn9  1  0.49901523  0.47571898  0.99903035  1
  Sb  Sb10  1  0.87856541  0.86539548  0.44992963  1
  Sb  Sb11  1  0.10777894  0.98645624  0.54271325  1
  Sb  Sb12  1  0.03838135  0.49200974  0.82238355  1
  Sb  Sb13  1  0.96080607  0.46889236  0.19306874  1
  Sb  Sb14  1  0.40744262  0.55932615  0.46594452  1
  Sb  Sb15  1  0.60200317  0.56961352  0.52961050  1
  Sb  Sb16  1  0.52616693  0.94636489  0.80740576  1
  Sb  Sb17  1  0.46140538  0.00168121  0.18140801  1
  S  S18  1  0.93229083  0.99824924  0.80133288  1
  S  S19  1  0.06289955  0.03016360  0.20614106  1
  S  S20  1  0.41616001  0.99966575  0.98183865  1
  S  S21  1  0.57763674  0.97226488  0.00694086  1
  S  S22  1  0.17070414  0.91890054  0.89222497  1
  S  S23  1  0.81882425  0.04130206  0.09814139  1
  S  S24  1  0.10735102  0.46110132  0.66106678  1
  S  S25  1  0.90249947  0.43697924  0.34946979  1
  S  S26  1  0.73096036  0.04069386  0.30470794  1
  S  S27  1  0.26040957  0.93986521  0.67897661  1
  S  S28  1  0.16703921  0.49811740  0.45129666  1
  S  S29  1  0.81654223  0.54403846  0.55760081  1
  S  S30  1  0.43891399  0.47188220  0.80449412  1
  S  S31  1  0.55952305  0.51152129  0.19654422  1
  S  S32  1  0.91383836  0.49804093  0.98962166  1
  S  S33  1  0.08174349  0.47021304  0.02305666  1
  S  S34  1  0.65597177  0.50084767  0.87573515  1
  S  S35  1  0.32618853  0.42819580  0.10076965  1
  S  S36  1  0.59352429  0.99332574  0.63586384  1
  S  S37  1  0.40755283  0.02460364  0.34914760  1
  S  S38  1  0.24385804  0.48966360  0.32320645  1
  S  S39  1  0.75625241  0.49386420  0.69457132  1
  S  S40  1  0.66875357  0.96063029  0.44445029  1
  S  S41  1  0.33243529  0.96156566  0.55161698  1
