# generated using pymatgen
data_Pr2Mn3(SbS3)4
_symmetry_space_group_name_H-M   'P 1'
_cell_length_a   20.02960800
_cell_length_b   3.90410600
_cell_length_c   14.95364829
_cell_angle_alpha   90.00000000
_cell_angle_beta   126.33350609
_cell_angle_gamma   90.00000000
_symmetry_Int_Tables_number   1
_chemical_formula_structural   Pr2Mn3(SbS3)4
_chemical_formula_sum   'Pr4 Mn6 Sb8 S24'
_cell_volume   942.00006694
_cell_formula_units_Z   2
loop_
 _symmetry_equiv_pos_site_id
 _symmetry_equiv_pos_as_xyz
  1  'x, y, z'
loop_
 _atom_site_type_symbol
 _atom_site_label
 _atom_site_symmetry_multiplicity
 _atom_site_fract_x
 _atom_site_fract_y
 _atom_site_fract_z
 _atom_site_occupancy
  Pr  Pr0  1  0.27626807  0.48591329  0.86806062  1
  Pr  Pr1  1  0.73103194  0.51655329  0.13317442  1
  Pr  Pr2  1  0.76616466  0.01835184  0.87096315  1
  Pr  Pr3  1  0.23343573  0.93064074  0.13083454  1
  Mn  Mn4  1  0.29181554  0.43477786  0.60292313  1
  Mn  Mn5  1  0.70199692  0.52682936  0.36397030  1
  Mn  Mn6  1  0.99839190  0.00660266  0.01008500  1
  Mn  Mn7  1  0.80509239  0.03472676  0.63013151  1
  Mn  Mn8  1  0.21147950  0.04729678  0.39119559  1
  Mn  Mn9  1  0.49907595  0.47617563  0.99909503  1
  Sb  Sb10  1  0.87851415  0.86491357  0.44984178  1
  Sb  Sb11  1  0.10773525  0.98552026  0.54271244  1
  Sb  Sb12  1  0.03828804  0.49203021  0.82224203  1
  Sb  Sb13  1  0.96083132  0.46898978  0.19303926  1
  Sb  Sb14  1  0.40746565  0.55944827  0.46588287  1
  Sb  Sb15  1  0.60209170  0.57018463  0.52980733  1
  Sb  Sb16  1  0.52607527  0.94691538  0.80720993  1
  Sb  Sb17  1  0.46139726  0.00161784  0.18139429  1
  S  S18  1  0.93197625  0.99867697  0.80111693  1
  S  S19  1  0.06296192  0.02875004  0.20654460  1
  S  S20  1  0.41619731  0.99937147  0.98183266  1
  S  S21  1  0.57755044  0.97230343  0.00678798  1
  S  S22  1  0.17059174  0.91894421  0.89228580  1
  S  S23  1  0.81863577  0.04196120  0.09823823  1
  S  S24  1  0.10753596  0.46096630  0.66132501  1
  S  S25  1  0.90265973  0.43750099  0.34952725  1
  S  S26  1  0.73123739  0.04088610  0.30490932  1
  S  S27  1  0.26034256  0.93978740  0.67912709  1
  S  S28  1  0.16674652  0.49791299  0.45113264  1
  S  S29  1  0.81643026  0.54338457  0.55765652  1
  S  S30  1  0.43886419  0.47266641  0.80426390  1
  S  S31  1  0.55948662  0.51143101  0.19607526  1
  S  S32  1  0.91371918  0.49809651  0.98948247  1
  S  S33  1  0.08151272  0.47158324  0.02303241  1
  S  S34  1  0.65610874  0.50075588  0.87579564  1
  S  S35  1  0.32661621  0.42855343  0.10100039  1
  S  S36  1  0.59349817  0.99289676  0.63588827  1
  S  S37  1  0.40762395  0.02368491  0.34908025  1
  S  S38  1  0.24388032  0.48926998  0.32350490  1
  S  S39  1  0.75610720  0.49366480  0.69436194  1
  S  S40  1  0.66885571  0.95948331  0.44454799  1
  S  S41  1  0.33233572  0.96085986  0.55178944  1
