# generated using pymatgen
data_Pr2Mn3(SbS3)4
_symmetry_space_group_name_H-M   'P 1'
_cell_length_a   20.02960800
_cell_length_b   3.90410600
_cell_length_c   14.95364829
_cell_angle_alpha   90.00000000
_cell_angle_beta   126.33350609
_cell_angle_gamma   90.00000000
_symmetry_Int_Tables_number   1
_chemical_formula_structural   Pr2Mn3(SbS3)4
_chemical_formula_sum   'Pr4 Mn6 Sb8 S24'
_cell_volume   942.00006694
_cell_formula_units_Z   2
loop_
 _symmetry_equiv_pos_site_id
 _symmetry_equiv_pos_as_xyz
  1  'x, y, z'
loop_
 _atom_site_type_symbol
 _atom_site_label
 _atom_site_symmetry_multiplicity
 _atom_site_fract_x
 _atom_site_fract_y
 _atom_site_fract_z
 _atom_site_occupancy
  Pr  Pr0  1  0.27628779  0.48591218  0.86810795  1
  Pr  Pr1  1  0.73108090  0.51583701  0.13312831  1
  Pr  Pr2  1  0.76633055  0.01803602  0.87092870  1
  Pr  Pr3  1  0.23334347  0.93078035  0.13089479  1
  Mn  Mn4  1  0.29180762  0.43443031  0.60266369  1
  Mn  Mn5  1  0.70189690  0.52684667  0.36388892  1
  Mn  Mn6  1  0.99861395  0.00703970  0.01011335  1
  Mn  Mn7  1  0.80507877  0.03505585  0.63000819  1
  Mn  Mn8  1  0.21128425  0.04702125  0.39085797  1
  Mn  Mn9  1  0.49914773  0.47682129  0.99915001  1
  Sb  Sb10  1  0.87847523  0.86452454  0.44973883  1
  Sb  Sb11  1  0.10772148  0.98474380  0.54273817  1
  Sb  Sb12  1  0.03818918  0.49182397  0.82208633  1
  Sb  Sb13  1  0.96082773  0.46904244  0.19295529  1
  Sb  Sb14  1  0.40739304  0.55962425  0.46571360  1
  Sb  Sb15  1  0.60218723  0.57055517  0.53000651  1
  Sb  Sb16  1  0.52598600  0.94725974  0.80698995  1
  Sb  Sb17  1  0.46141614  0.00137666  0.18133002  1
  S  S18  1  0.93177755  0.99928961  0.80094594  1
  S  S19  1  0.06292110  0.02715634  0.20685123  1
  S  S20  1  0.41620820  0.99861734  0.98189830  1
  S  S21  1  0.57743418  0.97284617  0.00661995  1
  S  S22  1  0.17048965  0.91872672  0.89234276  1
  S  S23  1  0.81855218  0.04219147  0.09838176  1
  S  S24  1  0.10781856  0.46075012  0.66171511  1
  S  S25  1  0.90274947  0.43771803  0.34951145  1
  S  S26  1  0.73151338  0.04120323  0.30502322  1
  S  S27  1  0.26025450  0.93981773  0.67917252  1
  S  S28  1  0.16644498  0.49772971  0.45080049  1
  S  S29  1  0.81644231  0.54244652  0.55782040  1
  S  S30  1  0.43877208  0.47308397  0.80396235  1
  S  S31  1  0.55941445  0.51082120  0.19555023  1
  S  S32  1  0.91368169  0.49818280  0.98931596  1
  S  S33  1  0.08138907  0.47314069  0.02320751  1
  S  S34  1  0.65631885  0.50078615  0.87587473  1
  S  S35  1  0.32702293  0.42931816  0.10111845  1
  S  S36  1  0.59346713  0.99244438  0.63585888  1
  S  S37  1  0.40768707  0.02329852  0.34920211  1
  S  S38  1  0.24398235  0.48925295  0.32381001  1
  S  S39  1  0.75601773  0.49311169  0.69417062  1
  S  S40  1  0.66894959  0.95845757  0.44458453  1
  S  S41  1  0.33214871  0.96054611  0.55177478  1
