# generated using pymatgen
data_Pr2Mn3(SbS3)4
_symmetry_space_group_name_H-M   'P 1'
_cell_length_a   20.02960800
_cell_length_b   3.90410600
_cell_length_c   14.95364829
_cell_angle_alpha   90.00000000
_cell_angle_beta   126.33350609
_cell_angle_gamma   90.00000000
_symmetry_Int_Tables_number   1
_chemical_formula_structural   Pr2Mn3(SbS3)4
_chemical_formula_sum   'Pr4 Mn6 Sb8 S24'
_cell_volume   942.00006694
_cell_formula_units_Z   2
loop_
 _symmetry_equiv_pos_site_id
 _symmetry_equiv_pos_as_xyz
  1  'x, y, z'
loop_
 _atom_site_type_symbol
 _atom_site_label
 _atom_site_symmetry_multiplicity
 _atom_site_fract_x
 _atom_site_fract_y
 _atom_site_fract_z
 _atom_site_occupancy
  Pr  Pr0  1  0.27628983  0.48588718  0.86815013  1
  Pr  Pr1  1  0.73112693  0.51538373  0.13313895  1
  Pr  Pr2  1  0.76646231  0.01757699  0.87087297  1
  Pr  Pr3  1  0.23326069  0.93113137  0.13088884  1
  Mn  Mn4  1  0.29176161  0.43412638  0.60246424  1
  Mn  Mn5  1  0.70181215  0.52685245  0.36370261  1
  Mn  Mn6  1  0.99885564  0.00732150  0.01022892  1
  Mn  Mn7  1  0.80504405  0.03553171  0.62988333  1
  Mn  Mn8  1  0.21112602  0.04675558  0.39056551  1
  Mn  Mn9  1  0.49931592  0.47778809  0.99924179  1
  Sb  Sb10  1  0.87845859  0.86437391  0.44963360  1
  Sb  Sb11  1  0.10766259  0.98412373  0.54269953  1
  Sb  Sb12  1  0.03809566  0.49154822  0.82189206  1
  Sb  Sb13  1  0.96084499  0.46905984  0.19294957  1
  Sb  Sb14  1  0.40733122  0.56003890  0.46566419  1
  Sb  Sb15  1  0.60229743  0.57102944  0.53016719  1
  Sb  Sb16  1  0.52596976  0.94758721  0.80680653  1
  Sb  Sb17  1  0.46140637  0.00120044  0.18122097  1
  S  S18  1  0.93154516  0.99960642  0.80079025  1
  S  S19  1  0.06295515  0.02525328  0.20723227  1
  S  S20  1  0.41625455  0.99830584  0.98200993  1
  S  S21  1  0.57738802  0.97322044  0.00649651  1
  S  S22  1  0.17035812  0.91852202  0.89230178  1
  S  S23  1  0.81858416  0.04251712  0.09869636  1
  S  S24  1  0.10805270  0.46054310  0.66193377  1
  S  S25  1  0.90286578  0.43802282  0.34959411  1
  S  S26  1  0.73170511  0.04113731  0.30510261  1
  S  S27  1  0.26017353  0.93986704  0.67913558  1
  S  S28  1  0.16604916  0.49731017  0.45037598  1
  S  S29  1  0.81635454  0.54163845  0.55797883  1
  S  S30  1  0.43870893  0.47317088  0.80359750  1
  S  S31  1  0.55945832  0.51002066  0.19506965  1
  S  S32  1  0.91356171  0.49823011  0.98905112  1
  S  S33  1  0.08123115  0.47443911  0.02344462  1
  S  S34  1  0.65648126  0.50059435  0.87606162  1
  S  S35  1  0.32770895  0.42999008  0.10145879  1
  S  S36  1  0.59343084  0.99218151  0.63590716  1
  S  S37  1  0.40761425  0.02252583  0.34916830  1
  S  S38  1  0.24416125  0.48963222  0.32420379  1
  S  S39  1  0.75597709  0.49225337  0.69410115  1
  S  S40  1  0.66900320  0.95807598  0.44449385  1
  S  S41  1  0.33199338  0.96075598  0.55171850  1
