# generated using pymatgen
data_Pr2Mn3(SbS3)4
_symmetry_space_group_name_H-M   'P 1'
_cell_length_a   20.02960800
_cell_length_b   3.90410600
_cell_length_c   14.95364829
_cell_angle_alpha   90.00000000
_cell_angle_beta   126.33350609
_cell_angle_gamma   90.00000000
_symmetry_Int_Tables_number   1
_chemical_formula_structural   Pr2Mn3(SbS3)4
_chemical_formula_sum   'Pr4 Mn6 Sb8 S24'
_cell_volume   942.00006694
_cell_formula_units_Z   2
loop_
 _symmetry_equiv_pos_site_id
 _symmetry_equiv_pos_as_xyz
  1  'x, y, z'
loop_
 _atom_site_type_symbol
 _atom_site_label
 _atom_site_symmetry_multiplicity
 _atom_site_fract_x
 _atom_site_fract_y
 _atom_site_fract_z
 _atom_site_occupancy
  Pr  Pr0  1  0.27630153  0.48597351  0.86825314  1
  Pr  Pr1  1  0.73114794  0.51476125  0.13316536  1
  Pr  Pr2  1  0.76657519  0.01696963  0.87087035  1
  Pr  Pr3  1  0.23313439  0.93147303  0.13087105  1
  Mn  Mn4  1  0.29176719  0.43408231  0.60233428  1
  Mn  Mn5  1  0.70169695  0.52691980  0.36353460  1
  Mn  Mn6  1  0.99907545  0.00751847  0.01035207  1
  Mn  Mn7  1  0.80497684  0.03585593  0.62975324  1
  Mn  Mn8  1  0.21102105  0.04660683  0.39028116  1
  Mn  Mn9  1  0.49949099  0.47865198  0.99930950  1
  Sb  Sb10  1  0.87849710  0.86438431  0.44966665  1
  Sb  Sb11  1  0.10762124  0.98369150  0.54274854  1
  Sb  Sb12  1  0.03802347  0.49127535  0.82163587  1
  Sb  Sb13  1  0.96080849  0.46919751  0.19290095  1
  Sb  Sb14  1  0.40726302  0.56034622  0.46561255  1
  Sb  Sb15  1  0.60241763  0.57158330  0.53033299  1
  Sb  Sb16  1  0.52597254  0.94788769  0.80670654  1
  Sb  Sb17  1  0.46144203  0.00082773  0.18112795  1
  S  S18  1  0.93126672  0.99998589  0.80065405  1
  S  S19  1  0.06300208  0.02332423  0.20769763  1
  S  S20  1  0.41622874  0.99838734  0.98206687  1
  S  S21  1  0.57734662  0.97339367  0.00633618  1
  S  S22  1  0.17019613  0.91843789  0.89220959  1
  S  S23  1  0.81870149  0.04283983  0.09914756  1
  S  S24  1  0.10835641  0.45998085  0.66232747  1
  S  S25  1  0.90297002  0.43766663  0.34966777  1
  S  S26  1  0.73194475  0.04059123  0.30522145  1
  S  S27  1  0.26014027  0.94020010  0.67917067  1
  S  S28  1  0.16565474  0.49693153  0.44986509  1
  S  S29  1  0.81635595  0.54102672  0.55827504  1
  S  S30  1  0.43861883  0.47348594  0.80321232  1
  S  S31  1  0.55954667  0.50924582  0.19464984  1
  S  S32  1  0.91325987  0.49782574  0.98885495  1
  S  S33  1  0.08111351  0.47606697  0.02364850  1
  S  S34  1  0.65658444  0.50047667  0.87630061  1
  S  S35  1  0.32828613  0.43103627  0.10169290  1
  S  S36  1  0.59337397  0.99153750  0.63598261  1
  S  S37  1  0.40751388  0.02174280  0.34928082  1
  S  S38  1  0.24432426  0.49025451  0.32446048  1
  S  S39  1  0.75591335  0.49180893  0.69392524  1
  S  S40  1  0.66907064  0.95734387  0.44447650  1
  S  S41  1  0.33180485  0.96053493  0.55152369  1
