# generated using pymatgen
data_Pr2Mn3(SbS3)4
_symmetry_space_group_name_H-M   'P 1'
_cell_length_a   20.02960800
_cell_length_b   3.90410600
_cell_length_c   14.95364829
_cell_angle_alpha   90.00000000
_cell_angle_beta   126.33350609
_cell_angle_gamma   90.00000000
_symmetry_Int_Tables_number   1
_chemical_formula_structural   Pr2Mn3(SbS3)4
_chemical_formula_sum   'Pr4 Mn6 Sb8 S24'
_cell_volume   942.00006694
_cell_formula_units_Z   2
loop_
 _symmetry_equiv_pos_site_id
 _symmetry_equiv_pos_as_xyz
  1  'x, y, z'
loop_
 _atom_site_type_symbol
 _atom_site_label
 _atom_site_symmetry_multiplicity
 _atom_site_fract_x
 _atom_site_fract_y
 _atom_site_fract_z
 _atom_site_occupancy
  Pr  Pr0  1  0.27630224  0.48580405  0.86840389  1
  Pr  Pr1  1  0.73111648  0.51418955  0.13317085  1
  Pr  Pr2  1  0.76674112  0.01655465  0.87093601  1
  Pr  Pr3  1  0.23301634  0.93152826  0.13075634  1
  Mn  Mn4  1  0.29179820  0.43382640  0.60225980  1
  Mn  Mn5  1  0.70153053  0.52715251  0.36346047  1
  Mn  Mn6  1  0.99923864  0.00772079  0.01048947  1
  Mn  Mn7  1  0.80492632  0.03635725  0.62970195  1
  Mn  Mn8  1  0.21094642  0.04687769  0.39007013  1
  Mn  Mn9  1  0.49969192  0.47914816  0.99937349  1
  Sb  Sb10  1  0.87857819  0.86469160  0.44970338  1
  Sb  Sb11  1  0.10754015  0.98321095  0.54283049  1
  Sb  Sb12  1  0.03799168  0.49136724  0.82143658  1
  Sb  Sb13  1  0.96069920  0.46927152  0.19277717  1
  Sb  Sb14  1  0.40715016  0.56041769  0.46545759  1
  Sb  Sb15  1  0.60256179  0.57228824  0.53046499  1
  Sb  Sb16  1  0.52592950  0.94830773  0.80655789  1
  Sb  Sb17  1  0.46145030  0.00076484  0.18102046  1
  S  S18  1  0.93106385  0.00060140  0.80053991  1
  S  S19  1  0.06315694  0.02114285  0.20806767  1
  S  S20  1  0.41615978  0.99843031  0.98207356  1
  S  S21  1  0.57727716  0.97360835  0.00602472  1
  S  S22  1  0.17014271  0.91797692  0.89217112  1
  S  S23  1  0.81874475  0.04294859  0.09960784  1
  S  S24  1  0.10860277  0.45919234  0.66263118  1
  S  S25  1  0.90307364  0.43731668  0.34972470  1
  S  S26  1  0.73208109  0.03998301  0.30527851  1
  S  S27  1  0.26017694  0.94058330  0.67915907  1
  S  S28  1  0.16534677  0.49675092  0.44937268  1
  S  S29  1  0.81628366  0.54044168  0.55844892  1
  S  S30  1  0.43859167  0.47404497  0.80296756  1
  S  S31  1  0.55964280  0.50827589  0.19429544  1
  S  S32  1  0.91297531  0.49773576  0.98875539  1
  S  S33  1  0.08107795  0.47764100  0.02384536  1
  S  S34  1  0.65660850  0.50053504  0.87646643  1
  S  S35  1  0.32885695  0.43192904  0.10200812  1
  S  S36  1  0.59341165  0.99106244  0.63610306  1
  S  S37  1  0.40737930  0.02098622  0.34926767  1
  S  S38  1  0.24451675  0.49154110  0.32479543  1
  S  S39  1  0.75594496  0.49123004  0.69387870  1
  S  S40  1  0.66913352  0.95700890  0.44453785  1
  S  S41  1  0.33158395  0.95993515  0.55135888  1
