# generated using pymatgen
data_Pr2Mn3(SbS3)4
_symmetry_space_group_name_H-M   'P 1'
_cell_length_a   20.02960800
_cell_length_b   3.90410600
_cell_length_c   14.95364829
_cell_angle_alpha   90.00000000
_cell_angle_beta   126.33350609
_cell_angle_gamma   90.00000000
_symmetry_Int_Tables_number   1
_chemical_formula_structural   Pr2Mn3(SbS3)4
_chemical_formula_sum   'Pr4 Mn6 Sb8 S24'
_cell_volume   942.00006694
_cell_formula_units_Z   2
loop_
 _symmetry_equiv_pos_site_id
 _symmetry_equiv_pos_as_xyz
  1  'x, y, z'
loop_
 _atom_site_type_symbol
 _atom_site_label
 _atom_site_symmetry_multiplicity
 _atom_site_fract_x
 _atom_site_fract_y
 _atom_site_fract_z
 _atom_site_occupancy
  Pr  Pr0  1  0.27627319  0.48574227  0.86854201  1
  Pr  Pr1  1  0.73105977  0.51382590  0.13316261  1
  Pr  Pr2  1  0.76693473  0.01614081  0.87108523  1
  Pr  Pr3  1  0.23285131  0.93162443  0.13057811  1
  Mn  Mn4  1  0.29181467  0.43391471  0.60230229  1
  Mn  Mn5  1  0.70136117  0.52712703  0.36337890  1
  Mn  Mn6  1  0.99942132  0.00820817  0.01062972  1
  Mn  Mn7  1  0.80486297  0.03676841  0.62963636  1
  Mn  Mn8  1  0.21080831  0.04686461  0.38978376  1
  Mn  Mn9  1  0.49973267  0.47967521  0.99942157  1
  Sb  Sb10  1  0.87864895  0.86499751  0.44970251  1
  Sb  Sb11  1  0.10748751  0.98273347  0.54284998  1
  Sb  Sb12  1  0.03800412  0.49150080  0.82130165  1
  Sb  Sb13  1  0.96058962  0.46960203  0.19263985  1
  Sb  Sb14  1  0.40708623  0.56075512  0.46533159  1
  Sb  Sb15  1  0.60268620  0.57276281  0.53060877  1
  Sb  Sb16  1  0.52583954  0.94876358  0.80643068  1
  Sb  Sb17  1  0.46146374  0.00074323  0.18092448  1
  S  S18  1  0.93097171  0.00155266  0.80046085  1
  S  S19  1  0.06334249  0.01899324  0.20847901  1
  S  S20  1  0.41613223  0.99862808  0.98224556  1
  S  S21  1  0.57716353  0.97375200  0.00581874  1
  S  S22  1  0.17013044  0.91708003  0.89227384  1
  S  S23  1  0.81874804  0.04345024  0.10012096  1
  S  S24  1  0.10881717  0.45821104  0.66297298  1
  S  S25  1  0.90326450  0.43721878  0.34990549  1
  S  S26  1  0.73217019  0.03955987  0.30520895  1
  S  S27  1  0.26009440  0.94092880  0.67910758  1
  S  S28  1  0.16500155  0.49610703  0.44888979  1
  S  S29  1  0.81612457  0.53957017  0.55868676  1
  S  S30  1  0.43841887  0.47450302  0.80251288  1
  S  S31  1  0.55965782  0.50764010  0.19400205  1
  S  S32  1  0.91266851  0.49790709  0.98862806  1
  S  S33  1  0.08124728  0.47886904  0.02424686  1
  S  S34  1  0.65661386  0.50079265  0.87666549  1
  S  S35  1  0.32936237  0.43246931  0.10235908  1
  S  S36  1  0.59360427  0.99065382  0.63652151  1
  S  S37  1  0.40726984  0.02001462  0.34919946  1
  S  S38  1  0.24479172  0.49276169  0.32529332  1
  S  S39  1  0.75615424  0.49061417  0.69396997  1
  S  S40  1  0.66935692  0.95624408  0.44477006  1
  S  S41  1  0.33122472  0.95919350  0.55108023  1
