# generated using pymatgen
data_Pr2Mn3(SbS3)4
_symmetry_space_group_name_H-M   'P 1'
_cell_length_a   20.02960800
_cell_length_b   3.90410600
_cell_length_c   14.95364829
_cell_angle_alpha   90.00000000
_cell_angle_beta   126.33350609
_cell_angle_gamma   90.00000000
_symmetry_Int_Tables_number   1
_chemical_formula_structural   Pr2Mn3(SbS3)4
_chemical_formula_sum   'Pr4 Mn6 Sb8 S24'
_cell_volume   942.00006694
_cell_formula_units_Z   2
loop_
 _symmetry_equiv_pos_site_id
 _symmetry_equiv_pos_as_xyz
  1  'x, y, z'
loop_
 _atom_site_type_symbol
 _atom_site_label
 _atom_site_symmetry_multiplicity
 _atom_site_fract_x
 _atom_site_fract_y
 _atom_site_fract_z
 _atom_site_occupancy
  Pr  Pr0  1  0.27619308  0.48564052  0.86867062  1
  Pr  Pr1  1  0.73094154  0.51346305  0.13302878  1
  Pr  Pr2  1  0.76707497  0.01555567  0.87121844  1
  Pr  Pr3  1  0.23265619  0.93167564  0.13034075  1
  Mn  Mn4  1  0.29194825  0.43399062  0.60246047  1
  Mn  Mn5  1  0.70118510  0.52706374  0.36320264  1
  Mn  Mn6  1  0.99959286  0.00866467  0.01079060  1
  Mn  Mn7  1  0.80472757  0.03760018  0.62951290  1
  Mn  Mn8  1  0.21073415  0.04701915  0.38961695  1
  Mn  Mn9  1  0.49979651  0.48019516  0.99951021  1
  Sb  Sb10  1  0.87862489  0.86554419  0.44964155  1
  Sb  Sb11  1  0.10737703  0.98258087  0.54287515  1
  Sb  Sb12  1  0.03798273  0.49141176  0.82118275  1
  Sb  Sb13  1  0.96053637  0.47002675  0.19255867  1
  Sb  Sb14  1  0.40701064  0.56109626  0.46515920  1
  Sb  Sb15  1  0.60279572  0.57326930  0.53077413  1
  Sb  Sb16  1  0.52570541  0.94928162  0.80623042  1
  Sb  Sb17  1  0.46144776  0.00100730  0.18080556  1
  S  S18  1  0.93078976  0.00259207  0.80028837  1
  S  S19  1  0.06335582  0.01689409  0.20870067  1
  S  S20  1  0.41606045  0.99892911  0.98237893  1
  S  S21  1  0.57711626  0.97360675  0.00576085  1
  S  S22  1  0.17017385  0.91644540  0.89244782  1
  S  S23  1  0.81874896  0.04378310  0.10066518  1
  S  S24  1  0.10899816  0.45805254  0.66312424  1
  S  S25  1  0.90353029  0.43727356  0.35003887  1
  S  S26  1  0.73227743  0.03898659  0.30513684  1
  S  S27  1  0.25984895  0.94116994  0.67901394  1
  S  S28  1  0.16469785  0.49517293  0.44861538  1
  S  S29  1  0.81597998  0.53846982  0.55881266  1
  S  S30  1  0.43829022  0.47476116  0.80215392  1
  S  S31  1  0.55974262  0.50743547  0.19373133  1
  S  S32  1  0.91238722  0.49809366  0.98840294  1
  S  S33  1  0.08148884  0.47994280  0.02473735  1
  S  S34  1  0.65660573  0.50056397  0.87678717  1
  S  S35  1  0.32986577  0.43270311  0.10257605  1
  S  S36  1  0.59386331  0.99035584  0.63702058  1
  S  S37  1  0.40710529  0.01905349  0.34915907  1
  S  S38  1  0.24500203  0.49401674  0.32590231  1
  S  S39  1  0.75627453  0.49037228  0.69400297  1
  S  S40  1  0.66962226  0.95592738  0.44499645  1
  S  S41  1  0.33097191  0.95831811  0.55088879  1
