# generated using pymatgen
data_Pr2Mn3(SbS3)4
_symmetry_space_group_name_H-M   'P 1'
_cell_length_a   20.02960800
_cell_length_b   3.90410600
_cell_length_c   14.95364829
_cell_angle_alpha   90.00000000
_cell_angle_beta   126.33350609
_cell_angle_gamma   90.00000000
_symmetry_Int_Tables_number   1
_chemical_formula_structural   Pr2Mn3(SbS3)4
_chemical_formula_sum   'Pr4 Mn6 Sb8 S24'
_cell_volume   942.00006694
_cell_formula_units_Z   2
loop_
 _symmetry_equiv_pos_site_id
 _symmetry_equiv_pos_as_xyz
  1  'x, y, z'
loop_
 _atom_site_type_symbol
 _atom_site_label
 _atom_site_symmetry_multiplicity
 _atom_site_fract_x
 _atom_site_fract_y
 _atom_site_fract_z
 _atom_site_occupancy
  Pr  Pr0  1  0.27611201  0.48550109  0.86877270  1
  Pr  Pr1  1  0.73085013  0.51310634  0.13289839  1
  Pr  Pr2  1  0.76726202  0.01507980  0.87142910  1
  Pr  Pr3  1  0.23246905  0.93188149  0.13007618  1
  Mn  Mn4  1  0.29208430  0.43435062  0.60257656  1
  Mn  Mn5  1  0.70104048  0.52704483  0.36311379  1
  Mn  Mn6  1  0.99963616  0.00932879  0.01074655  1
  Mn  Mn7  1  0.80455794  0.03856776  0.62936376  1
  Mn  Mn8  1  0.21063692  0.04723108  0.38934933  1
  Mn  Mn9  1  0.49983459  0.48084977  0.99970805  1
  Sb  Sb10  1  0.87857561  0.86624340  0.44961895  1
  Sb  Sb11  1  0.10729228  0.98245607  0.54291703  1
  Sb  Sb12  1  0.03795204  0.49118662  0.82109516  1
  Sb  Sb13  1  0.96049599  0.47045398  0.19246439  1
  Sb  Sb14  1  0.40694122  0.56163098  0.46500305  1
  Sb  Sb15  1  0.60293544  0.57378213  0.53098793  1
  Sb  Sb16  1  0.52560053  0.94962070  0.80611624  1
  Sb  Sb17  1  0.46143955  0.00113654  0.18073185  1
  S  S18  1  0.93053673  0.00309655  0.80002864  1
  S  S19  1  0.06347467  0.01482046  0.20904138  1
  S  S20  1  0.41595119  0.99845326  0.98247641  1
  S  S21  1  0.57709446  0.97364389  0.00568210  1
  S  S22  1  0.17015219  0.91599844  0.89247623  1
  S  S23  1  0.81874548  0.04361542  0.10118107  1
  S  S24  1  0.10909011  0.45732113  0.66310392  1
  S  S25  1  0.90381419  0.43724350  0.35024989  1
  S  S26  1  0.73243756  0.03883017  0.30501491  1
  S  S27  1  0.25957109  0.94106534  0.67882969  1
  S  S28  1  0.16444946  0.49436721  0.44851204  1
  S  S29  1  0.81578699  0.53748640  0.55890326  1
  S  S30  1  0.43825771  0.47512097  0.80193865  1
  S  S31  1  0.55986334  0.50744519  0.19346250  1
  S  S32  1  0.91209501  0.49841520  0.98819040  1
  S  S33  1  0.08165339  0.48079708  0.02497850  1
  S  S34  1  0.65652790  0.50047165  0.87689831  1
  S  S35  1  0.33037541  0.43302505  0.10281728  1
  S  S36  1  0.59407228  0.98967363  0.63749156  1
  S  S37  1  0.40696138  0.01888942  0.34910938  1
  S  S38  1  0.24519256  0.49528996  0.32647942  1
  S  S39  1  0.75653289  0.49008017  0.69419865  1
  S  S40  1  0.66987159  0.95561568  0.44533464  1
  S  S41  1  0.33081740  0.95717989  0.55069668  1
