# generated using pymatgen
data_Pr2Mn3(SbS3)4
_symmetry_space_group_name_H-M   'P 1'
_cell_length_a   20.02960800
_cell_length_b   3.90410600
_cell_length_c   14.95364829
_cell_angle_alpha   90.00000000
_cell_angle_beta   126.33350609
_cell_angle_gamma   90.00000000
_symmetry_Int_Tables_number   1
_chemical_formula_structural   Pr2Mn3(SbS3)4
_chemical_formula_sum   'Pr4 Mn6 Sb8 S24'
_cell_volume   942.00006694
_cell_formula_units_Z   2
loop_
 _symmetry_equiv_pos_site_id
 _symmetry_equiv_pos_as_xyz
  1  'x, y, z'
loop_
 _atom_site_type_symbol
 _atom_site_label
 _atom_site_symmetry_multiplicity
 _atom_site_fract_x
 _atom_site_fract_y
 _atom_site_fract_z
 _atom_site_occupancy
  Pr  Pr0  1  0.26584285  0.47810458  0.86447151  1
  Pr  Pr1  1  0.73522579  0.51740712  0.13551002  1
  Pr  Pr2  1  0.76453891  0.01456490  0.86475384  1
  Pr  Pr3  1  0.23799925  0.00709748  0.13809061  1
  Mn  Mn4  1  0.29224777  0.47629521  0.59982096  1
  Mn  Mn5  1  0.69054110  0.50438076  0.37847825  1
  Mn  Mn6  1  0.01026010  0.99553426  0.01727326  1
  Mn  Mn7  1  0.80397139  0.01821846  0.61412053  1
  Mn  Mn8  1  0.19803282  0.97619143  0.37906231  1
  Mn  Mn9  1  0.49329514  0.46432351  0.98921583  1
  Sb  Sb10  1  0.89002006  0.98126489  0.44979173  1
  Sb  Sb11  1  0.11272394  0.97718038  0.54836642  1
  Sb  Sb12  1  0.03949208  0.51847953  0.82011784  1
  Sb  Sb13  1  0.96550870  0.50738764  0.18596123  1
  Sb  Sb14  1  0.39594253  0.51294030  0.45424547  1
  Sb  Sb15  1  0.60603425  0.47407703  0.54780792  1
  Sb  Sb16  1  0.53451865  0.00650432  0.81076969  1
  Sb  Sb17  1  0.46035283  0.01673820  0.18087545  1
  S  S18  1  0.93385170  0.99160590  0.80061051  1
  S  S19  1  0.06629467  0.98588858  0.19469445  1
  S  S20  1  0.40814478  0.98206910  0.98359939  1
  S  S21  1  0.58488259  0.98380049  0.01296170  1
  S  S22  1  0.16947345  0.01750523  0.89670807  1
  S  S23  1  0.82493673  0.03614531  0.09594775  1
  S  S24  1  0.09188416  0.47297080  0.64424745  1
  S  S25  1  0.91022608  0.46789426  0.35512586  1
  S  S26  1  0.74064388  0.94618392  0.30240439  1
  S  S27  1  0.26371385  0.00279753  0.71272918  1
  S  S28  1  0.16195737  0.47370965  0.43586331  1
  S  S29  1  0.82805377  0.48125052  0.54840384  1
  S  S30  1  0.43138426  0.49606200  0.79552869  1
  S  S31  1  0.56029309  0.50802571  0.18303652  1
  S  S32  1  0.91214247  0.50006456  0.98807990  1
  S  S33  1  0.08708603  0.47007751  0.01988519  1
  S  S34  1  0.66554668  0.50721355  0.88780728  1
  S  S35  1  0.32784689  0.52950486  0.09294635  1
  S  S36  1  0.59628402  0.98922432  0.65773561  1
  S  S37  1  0.40674474  0.98376874  0.35070182  1
  S  S38  1  0.24293982  0.44750528  0.30887109  1
  S  S39  1  0.76666103  0.50334737  0.70458369  1
  S  S40  1  0.67093627  0.03091795  0.45681976  1
  S  S41  1  0.32173194  0.97818227  0.54490842  1
