# generated using pymatgen
data_Pr2Mn3(SbS3)4
_symmetry_space_group_name_H-M   'P 1'
_cell_length_a   20.02960800
_cell_length_b   3.90410600
_cell_length_c   14.95364829
_cell_angle_alpha   90.00000000
_cell_angle_beta   126.33350609
_cell_angle_gamma   90.00000000
_symmetry_Int_Tables_number   1
_chemical_formula_structural   Pr2Mn3(SbS3)4
_chemical_formula_sum   'Pr4 Mn6 Sb8 S24'
_cell_volume   942.00006694
_cell_formula_units_Z   2
loop_
 _symmetry_equiv_pos_site_id
 _symmetry_equiv_pos_as_xyz
  1  'x, y, z'
loop_
 _atom_site_type_symbol
 _atom_site_label
 _atom_site_symmetry_multiplicity
 _atom_site_fract_x
 _atom_site_fract_y
 _atom_site_fract_z
 _atom_site_occupancy
  Pr  Pr0  1  0.27601940  0.48543791  0.86883022  1
  Pr  Pr1  1  0.73079713  0.51291560  0.13278936  1
  Pr  Pr2  1  0.76746653  0.01443585  0.87167198  1
  Pr  Pr3  1  0.23232924  0.93198187  0.12988552  1
  Mn  Mn4  1  0.29206342  0.43414195  0.60251171  1
  Mn  Mn5  1  0.70092661  0.52660416  0.36304698  1
  Mn  Mn6  1  0.99966138  0.00995317  0.01064260  1
  Mn  Mn7  1  0.80433001  0.03954022  0.62925005  1
  Mn  Mn8  1  0.21049857  0.04752076  0.38908535  1
  Mn  Mn9  1  0.49981127  0.48153015  0.99987762  1
  Sb  Sb10  1  0.87849866  0.86682600  0.44966261  1
  Sb  Sb11  1  0.10714499  0.98255553  0.54281763  1
  Sb  Sb12  1  0.03789652  0.49128991  0.82101924  1
  Sb  Sb13  1  0.96040131  0.47087959  0.19225464  1
  Sb  Sb14  1  0.40684400  0.56238151  0.46485369  1
  Sb  Sb15  1  0.60300648  0.57441728  0.53111895  1
  Sb  Sb16  1  0.52549484  0.94980789  0.80590873  1
  Sb  Sb17  1  0.46146050  0.00157001  0.18070360  1
  S  S18  1  0.93055867  0.00371732  0.80013779  1
  S  S19  1  0.06357366  0.01293295  0.20938506  1
  S  S20  1  0.41588254  0.99804032  0.98259243  1
  S  S21  1  0.57691479  0.97346339  0.00548183  1
  S  S22  1  0.17018000  0.91563352  0.89258348  1
  S  S23  1  0.81895279  0.04302074  0.10184670  1
  S  S24  1  0.10914444  0.45679218  0.66308604  1
  S  S25  1  0.90402309  0.43730341  0.35045386  1
  S  S26  1  0.73260915  0.03846378  0.30488562  1
  S  S27  1  0.25938676  0.94102389  0.67875625  1
  S  S28  1  0.16426015  0.49367759  0.44837358  1
  S  S29  1  0.81570026  0.53695650  0.55904515  1
  S  S30  1  0.43809887  0.47502901  0.80170403  1
  S  S31  1  0.56003210  0.50745600  0.19332250  1
  S  S32  1  0.91182717  0.49877510  0.98803551  1
  S  S33  1  0.08186324  0.48139024  0.02536651  1
  S  S34  1  0.65649853  0.50019030  0.87698026  1
  S  S35  1  0.33075739  0.43339717  0.10294718  1
  S  S36  1  0.59432061  0.98907391  0.63798984  1
  S  S37  1  0.40679113  0.01856486  0.34923538  1
  S  S38  1  0.24539376  0.49632205  0.32693876  1
  S  S39  1  0.75680133  0.49012773  0.69435416  1
  S  S40  1  0.67010829  0.95585357  0.44574427  1
  S  S41  1  0.33051957  0.95642921  0.55052196  1
