# generated using pymatgen
data_Pr2Mn3(SbS3)4
_symmetry_space_group_name_H-M   'P 1'
_cell_length_a   20.02960800
_cell_length_b   3.90410600
_cell_length_c   14.95364829
_cell_angle_alpha   90.00000000
_cell_angle_beta   126.33350609
_cell_angle_gamma   90.00000000
_symmetry_Int_Tables_number   1
_chemical_formula_structural   Pr2Mn3(SbS3)4
_chemical_formula_sum   'Pr4 Mn6 Sb8 S24'
_cell_volume   942.00006694
_cell_formula_units_Z   2
loop_
 _symmetry_equiv_pos_site_id
 _symmetry_equiv_pos_as_xyz
  1  'x, y, z'
loop_
 _atom_site_type_symbol
 _atom_site_label
 _atom_site_symmetry_multiplicity
 _atom_site_fract_x
 _atom_site_fract_y
 _atom_site_fract_z
 _atom_site_occupancy
  Pr  Pr0  1  0.27592045  0.48548811  0.86885476  1
  Pr  Pr1  1  0.73074960  0.51244571  0.13265835  1
  Pr  Pr2  1  0.76761339  0.01370743  0.87190163  1
  Pr  Pr3  1  0.23219038  0.93197101  0.12965786  1
  Mn  Mn4  1  0.29208303  0.43372989  0.60250139  1
  Mn  Mn5  1  0.70099804  0.52634747  0.36312197  1
  Mn  Mn6  1  0.99962015  0.01082281  0.01049308  1
  Mn  Mn7  1  0.80404954  0.04018345  0.62913618  1
  Mn  Mn8  1  0.21029230  0.04803136  0.38871951  1
  Mn  Mn9  1  0.49978899  0.48217071  0.99998562  1
  Sb  Sb10  1  0.87849066  0.86750776  0.44979213  1
  Sb  Sb11  1  0.10700149  0.98263902  0.54270152  1
  Sb  Sb12  1  0.03777875  0.49141799  0.82095954  1
  Sb  Sb13  1  0.96025205  0.47144990  0.19210781  1
  Sb  Sb14  1  0.40672141  0.56303214  0.46471192  1
  Sb  Sb15  1  0.60309459  0.57485328  0.53131563  1
  Sb  Sb16  1  0.52535730  0.95003195  0.80564805  1
  Sb  Sb17  1  0.46149056  0.00188524  0.18070553  1
  S  S18  1  0.93049212  0.00417038  0.80024065  1
  S  S19  1  0.06364072  0.01144594  0.20943917  1
  S  S20  1  0.41573951  0.99754259  0.98259624  1
  S  S21  1  0.57691030  0.97355008  0.00558673  1
  S  S22  1  0.17022691  0.91527167  0.89274342  1
  S  S23  1  0.81913496  0.04224514  0.10235359  1
  S  S24  1  0.10911939  0.45698831  0.66299027  1
  S  S25  1  0.90411215  0.43719323  0.35056113  1
  S  S26  1  0.73274616  0.03831292  0.30475626  1
  S  S27  1  0.25916761  0.94082684  0.67864166  1
  S  S28  1  0.16412195  0.49329009  0.44816024  1
  S  S29  1  0.81570453  0.53637199  0.55918808  1
  S  S30  1  0.43794567  0.47541089  0.80139922  1
  S  S31  1  0.56024959  0.50720257  0.19327611  1
  S  S32  1  0.91148144  0.49883645  0.98787431  1
  S  S33  1  0.08192658  0.48184831  0.02569254  1
  S  S34  1  0.65649696  0.49963291  0.87705650  1
  S  S35  1  0.33102156  0.43324184  0.10298250  1
  S  S36  1  0.59464050  0.98864184  0.63863446  1
  S  S37  1  0.40654740  0.01840261  0.34926366  1
  S  S38  1  0.24556700  0.49762415  0.32747616  1
  S  S39  1  0.75709880  0.49012177  0.69462978  1
  S  S40  1  0.67034230  0.95602817  0.44590125  1
  S  S41  1  0.33028413  0.95574678  0.55039614  1
