# generated using pymatgen
data_Pr2Mn3(SbS3)4
_symmetry_space_group_name_H-M   'P 1'
_cell_length_a   20.02960800
_cell_length_b   3.90410600
_cell_length_c   14.95364829
_cell_angle_alpha   90.00000000
_cell_angle_beta   126.33350609
_cell_angle_gamma   90.00000000
_symmetry_Int_Tables_number   1
_chemical_formula_structural   Pr2Mn3(SbS3)4
_chemical_formula_sum   'Pr4 Mn6 Sb8 S24'
_cell_volume   942.00006694
_cell_formula_units_Z   2
loop_
 _symmetry_equiv_pos_site_id
 _symmetry_equiv_pos_as_xyz
  1  'x, y, z'
loop_
 _atom_site_type_symbol
 _atom_site_label
 _atom_site_symmetry_multiplicity
 _atom_site_fract_x
 _atom_site_fract_y
 _atom_site_fract_z
 _atom_site_occupancy
  Pr  Pr0  1  0.27579541  0.48553957  0.86886401  1
  Pr  Pr1  1  0.73070893  0.51197302  0.13255530  1
  Pr  Pr2  1  0.76774245  0.01313192  0.87210258  1
  Pr  Pr3  1  0.23208581  0.93186263  0.12946723  1
  Mn  Mn4  1  0.29212798  0.43337113  0.60240015  1
  Mn  Mn5  1  0.70104377  0.52659890  0.36321821  1
  Mn  Mn6  1  0.99951732  0.01125713  0.01033373  1
  Mn  Mn7  1  0.80390538  0.04089413  0.62909000  1
  Mn  Mn8  1  0.21003217  0.04891211  0.38828267  1
  Mn  Mn9  1  0.49986585  0.48313864  0.00011168  1
  Sb  Sb10  1  0.87849406  0.86814909  0.44988826  1
  Sb  Sb11  1  0.10687342  0.98284250  0.54261220  1
  Sb  Sb12  1  0.03756590  0.49137435  0.82085649  1
  Sb  Sb13  1  0.96012113  0.47229666  0.19198244  1
  Sb  Sb14  1  0.40662421  0.56343988  0.46458479  1
  Sb  Sb15  1  0.60315062  0.57529587  0.53139931  1
  Sb  Sb16  1  0.52523497  0.95026937  0.80535863  1
  Sb  Sb17  1  0.46146752  0.00228807  0.18069299  1
  S  S18  1  0.93027821  0.00477559  0.80028153  1
  S  S19  1  0.06378894  0.00997074  0.20945272  1
  S  S20  1  0.41552335  0.99725065  0.98259133  1
  S  S21  1  0.57688520  0.97297408  0.00572384  1
  S  S22  1  0.17032924  0.91468869  0.89288918  1
  S  S23  1  0.81932877  0.04146787  0.10280731  1
  S  S24  1  0.10920516  0.45717932  0.66297965  1
  S  S25  1  0.90419855  0.43724125  0.35071270  1
  S  S26  1  0.73291078  0.03843757  0.30455803  1
  S  S27  1  0.25907460  0.94075997  0.67860205  1
  S  S28  1  0.16398337  0.49324540  0.44790924  1
  S  S29  1  0.81571021  0.53560637  0.55931068  1
  S  S30  1  0.43778436  0.47582955  0.80103839  1
  S  S31  1  0.56034226  0.50781937  0.19312084  1
  S  S32  1  0.91116069  0.49892631  0.98774280  1
  S  S33  1  0.08191523  0.48182218  0.02582806  1
  S  S34  1  0.65665138  0.49888985  0.87729848  1
  S  S35  1  0.33120752  0.43275521  0.10289103  1
  S  S36  1  0.59494972  0.98844401  0.63929949  1
  S  S37  1  0.40638070  0.01778642  0.34924911  1
  S  S38  1  0.24569277  0.49886938  0.32793561  1
  S  S39  1  0.75754607  0.49013926  0.69497304  1
  S  S40  1  0.67055393  0.95607938  0.44609294  1
  S  S41  1  0.33010050  0.95515248  0.55027392  1
