# generated using pymatgen
data_Pr2Mn3(SbS3)4
_symmetry_space_group_name_H-M   'P 1'
_cell_length_a   20.02960800
_cell_length_b   3.90410600
_cell_length_c   14.95364829
_cell_angle_alpha   90.00000000
_cell_angle_beta   126.33350609
_cell_angle_gamma   90.00000000
_symmetry_Int_Tables_number   1
_chemical_formula_structural   Pr2Mn3(SbS3)4
_chemical_formula_sum   'Pr4 Mn6 Sb8 S24'
_cell_volume   942.00006694
_cell_formula_units_Z   2
loop_
 _symmetry_equiv_pos_site_id
 _symmetry_equiv_pos_as_xyz
  1  'x, y, z'
loop_
 _atom_site_type_symbol
 _atom_site_label
 _atom_site_symmetry_multiplicity
 _atom_site_fract_x
 _atom_site_fract_y
 _atom_site_fract_z
 _atom_site_occupancy
  Pr  Pr0  1  0.27566502  0.48547651  0.86884009  1
  Pr  Pr1  1  0.73057975  0.51147374  0.13238636  1
  Pr  Pr2  1  0.76789608  0.01257315  0.87228418  1
  Pr  Pr3  1  0.23197447  0.93186245  0.12933403  1
  Mn  Mn4  1  0.29217212  0.43302823  0.60224851  1
  Mn  Mn5  1  0.70106260  0.52641933  0.36326888  1
  Mn  Mn6  1  0.99937195  0.01174351  0.01018007  1
  Mn  Mn7  1  0.80366146  0.04201662  0.62908443  1
  Mn  Mn8  1  0.20980793  0.04992411  0.38802482  1
  Mn  Mn9  1  0.49996377  0.48393262  0.00021666  1
  Sb  Sb10  1  0.87848836  0.86866576  0.45000576  1
  Sb  Sb11  1  0.10679862  0.98296694  0.54256128  1
  Sb  Sb12  1  0.03736969  0.49111695  0.82078013  1
  Sb  Sb13  1  0.96004078  0.47291550  0.19185034  1
  Sb  Sb14  1  0.40657724  0.56370527  0.46438118  1
  Sb  Sb15  1  0.60320348  0.57557811  0.53149554  1
  Sb  Sb16  1  0.52516691  0.95068411  0.80513186  1
  Sb  Sb17  1  0.46146426  0.00254860  0.18069948  1
  S  S18  1  0.93006364  0.00521539  0.80027020  1
  S  S19  1  0.06395362  0.00860547  0.20946947  1
  S  S20  1  0.41535322  0.99667426  0.98262058  1
  S  S21  1  0.57687527  0.97248133  0.00602688  1
  S  S22  1  0.17048802  0.91446360  0.89309055  1
  S  S23  1  0.81946712  0.04036221  0.10323893  1
  S  S24  1  0.10914376  0.45783611  0.66295984  1
  S  S25  1  0.90425326  0.43731962  0.35090565  1
  S  S26  1  0.73304227  0.03876877  0.30430524  1
  S  S27  1  0.25892840  0.94107067  0.67857306  1
  S  S28  1  0.16381204  0.49324382  0.44752362  1
  S  S29  1  0.81572343  0.53488391  0.55949415  1
  S  S30  1  0.43765530  0.47631822  0.80072616  1
  S  S31  1  0.56037791  0.50790397  0.19294900  1
  S  S32  1  0.91088649  0.49910402  0.98757380  1
  S  S33  1  0.08191318  0.48170989  0.02591986  1
  S  S34  1  0.65671803  0.49860231  0.87748055  1
  S  S35  1  0.33146257  0.43249727  0.10284490  1
  S  S36  1  0.59526392  0.98833037  0.63990370  1
  S  S37  1  0.40637167  0.01716010  0.34940516  1
  S  S38  1  0.24586708  0.49994137  0.32827397  1
  S  S39  1  0.75800416  0.48954569  0.69529906  1
  S  S40  1  0.67075600  0.95564529  0.44627448  1
  S  S41  1  0.32998891  0.95483944  0.55036380  1
