# generated using pymatgen
data_Pr2Mn3(SbS3)4
_symmetry_space_group_name_H-M   'P 1'
_cell_length_a   20.02960800
_cell_length_b   3.90410600
_cell_length_c   14.95364829
_cell_angle_alpha   90.00000000
_cell_angle_beta   126.33350609
_cell_angle_gamma   90.00000000
_symmetry_Int_Tables_number   1
_chemical_formula_structural   Pr2Mn3(SbS3)4
_chemical_formula_sum   'Pr4 Mn6 Sb8 S24'
_cell_volume   942.00006694
_cell_formula_units_Z   2
loop_
 _symmetry_equiv_pos_site_id
 _symmetry_equiv_pos_as_xyz
  1  'x, y, z'
loop_
 _atom_site_type_symbol
 _atom_site_label
 _atom_site_symmetry_multiplicity
 _atom_site_fract_x
 _atom_site_fract_y
 _atom_site_fract_z
 _atom_site_occupancy
  Pr  Pr0  1  0.27554286  0.48548834  0.86877217  1
  Pr  Pr1  1  0.73048120  0.51111868  0.13223353  1
  Pr  Pr2  1  0.76802709  0.01208362  0.87240707  1
  Pr  Pr3  1  0.23185629  0.93203040  0.12921583  1
  Mn  Mn4  1  0.29232411  0.43272084  0.60227796  1
  Mn  Mn5  1  0.70116773  0.52664667  0.36344033  1
  Mn  Mn6  1  0.99926023  0.01205583  0.01006188  1
  Mn  Mn7  1  0.80346524  0.04323136  0.62904309  1
  Mn  Mn8  1  0.20954416  0.05096864  0.38775132  1
  Mn  Mn9  1  0.50006964  0.48473485  0.00033219  1
  Sb  Sb10  1  0.87845135  0.86899137  0.45010470  1
  Sb  Sb11  1  0.10673978  0.98306831  0.54253691  1
  Sb  Sb12  1  0.03726213  0.49100113  0.82080520  1
  Sb  Sb13  1  0.96001456  0.47327952  0.19182628  1
  Sb  Sb14  1  0.40656903  0.56385859  0.46429161  1
  Sb  Sb15  1  0.60321666  0.57575168  0.53153267  1
  Sb  Sb16  1  0.52508868  0.95098361  0.80487187  1
  Sb  Sb17  1  0.46144361  0.00299006  0.18072594  1
  S  S18  1  0.93003689  0.00601607  0.80036756  1
  S  S19  1  0.06405143  0.00754564  0.20951075  1
  S  S20  1  0.41516179  0.99624772  0.98266010  1
  S  S21  1  0.57689464  0.97210192  0.00631430  1
  S  S22  1  0.17070344  0.91395129  0.89338911  1
  S  S23  1  0.81959121  0.04004941  0.10367931  1
  S  S24  1  0.10903350  0.45889372  0.66283181  1
  S  S25  1  0.90431264  0.43774593  0.35112414  1
  S  S26  1  0.73314705  0.03913593  0.30410662  1
  S  S27  1  0.25890901  0.94158576  0.67866161  1
  S  S28  1  0.16360128  0.49317335  0.44711853  1
  S  S29  1  0.81570935  0.53401616  0.55963265  1
  S  S30  1  0.43761676  0.47625908  0.80047544  1
  S  S31  1  0.56037043  0.50805686  0.19282281  1
  S  S32  1  0.91064503  0.49937624  0.98737396  1
  S  S33  1  0.08185061  0.48193559  0.02590591  1
  S  S34  1  0.65673488  0.49809544  0.87775536  1
  S  S35  1  0.33162238  0.43214583  0.10289030  1
  S  S36  1  0.59547149  0.98833863  0.64049655  1
  S  S37  1  0.40629007  0.01679199  0.34948604  1
  S  S38  1  0.24594714  0.50153557  0.32852279  1
  S  S39  1  0.75832802  0.48887492  0.69560512  1
  S  S40  1  0.67103589  0.95524303  0.44641886  1
  S  S41  1  0.32995183  0.95469575  0.55033095  1
