# generated using pymatgen
data_Pr2Mn3(SbS3)4
_symmetry_space_group_name_H-M   'P 1'
_cell_length_a   20.02960800
_cell_length_b   3.90410600
_cell_length_c   14.95364829
_cell_angle_alpha   90.00000000
_cell_angle_beta   126.33350609
_cell_angle_gamma   90.00000000
_symmetry_Int_Tables_number   1
_chemical_formula_structural   Pr2Mn3(SbS3)4
_chemical_formula_sum   'Pr4 Mn6 Sb8 S24'
_cell_volume   942.00006694
_cell_formula_units_Z   2
loop_
 _symmetry_equiv_pos_site_id
 _symmetry_equiv_pos_as_xyz
  1  'x, y, z'
loop_
 _atom_site_type_symbol
 _atom_site_label
 _atom_site_symmetry_multiplicity
 _atom_site_fract_x
 _atom_site_fract_y
 _atom_site_fract_z
 _atom_site_occupancy
  Pr  Pr0  1  0.27541289  0.48571206  0.86867945  1
  Pr  Pr1  1  0.73032267  0.51092360  0.13206007  1
  Pr  Pr2  1  0.76814619  0.01171525  0.87249809  1
  Pr  Pr3  1  0.23169419  0.93222026  0.12907933  1
  Mn  Mn4  1  0.29252467  0.43251896  0.60232709  1
  Mn  Mn5  1  0.70132131  0.52686027  0.36369875  1
  Mn  Mn6  1  0.99918393  0.01226796  0.01005901  1
  Mn  Mn7  1  0.80334307  0.04455313  0.62895408  1
  Mn  Mn8  1  0.20934457  0.05185004  0.38740499  1
  Mn  Mn9  1  0.50014255  0.48563611  0.00038426  1
  Sb  Sb10  1  0.87838223  0.86924873  0.45010950  1
  Sb  Sb11  1  0.10666777  0.98352283  0.54251597  1
  Sb  Sb12  1  0.03718440  0.49087630  0.82089083  1
  Sb  Sb13  1  0.96000032  0.47363230  0.19169294  1
  Sb  Sb14  1  0.40654521  0.56377002  0.46414576  1
  Sb  Sb15  1  0.60320649  0.57605113  0.53152284  1
  Sb  Sb16  1  0.52506677  0.95106775  0.80467782  1
  Sb  Sb17  1  0.46146375  0.00323225  0.18082704  1
  S  S18  1  0.93003049  0.00707689  0.80047346  1
  S  S19  1  0.06410356  0.00669660  0.20953523  1
  S  S20  1  0.41505501  0.99557348  0.98289067  1
  S  S21  1  0.57697177  0.97232919  0.00652579  1
  S  S22  1  0.17086301  0.91351495  0.89373660  1
  S  S23  1  0.81986556  0.03959113  0.10429898  1
  S  S24  1  0.10891624  0.45976144  0.66269984  1
  S  S25  1  0.90432175  0.43894798  0.35124793  1
  S  S26  1  0.73331566  0.03930348  0.30389741  1
  S  S27  1  0.25889187  0.94215887  0.67885746  1
  S  S28  1  0.16345917  0.49353798  0.44683889  1
  S  S29  1  0.81579752  0.53298986  0.55959097  1
  S  S30  1  0.43761029  0.47620591  0.80021325  1
  S  S31  1  0.56039139  0.50884066  0.19254780  1
  S  S32  1  0.91043876  0.49990410  0.98723190  1
  S  S33  1  0.08186665  0.48210635  0.02599134  1
  S  S34  1  0.65691854  0.49761841  0.87810958  1
  S  S35  1  0.33181249  0.43160851  0.10292756  1
  S  S36  1  0.59570951  0.98823410  0.64117366  1
  S  S37  1  0.40622731  0.01652434  0.34950998  1
  S  S38  1  0.24603899  0.50279014  0.32882502  1
  S  S39  1  0.75877004  0.48779693  0.69582482  1
  S  S40  1  0.67132214  0.95440439  0.44654703  1
  S  S41  1  0.32992991  0.95485730  0.55033787  1
