# generated using pymatgen
data_Pr2Mn3(SbS3)4
_symmetry_space_group_name_H-M   'P 1'
_cell_length_a   20.02960800
_cell_length_b   3.90410600
_cell_length_c   14.95364829
_cell_angle_alpha   90.00000000
_cell_angle_beta   126.33350609
_cell_angle_gamma   90.00000000
_symmetry_Int_Tables_number   1
_chemical_formula_structural   Pr2Mn3(SbS3)4
_chemical_formula_sum   'Pr4 Mn6 Sb8 S24'
_cell_volume   942.00006694
_cell_formula_units_Z   2
loop_
 _symmetry_equiv_pos_site_id
 _symmetry_equiv_pos_as_xyz
  1  'x, y, z'
loop_
 _atom_site_type_symbol
 _atom_site_label
 _atom_site_symmetry_multiplicity
 _atom_site_fract_x
 _atom_site_fract_y
 _atom_site_fract_z
 _atom_site_occupancy
  Pr  Pr0  1  0.27532360  0.48601795  0.86859664  1
  Pr  Pr1  1  0.73017705  0.51049377  0.13187837  1
  Pr  Pr2  1  0.76828161  0.01129629  0.87251562  1
  Pr  Pr3  1  0.23153339  0.93223413  0.12892208  1
  Mn  Mn4  1  0.29269129  0.43241982  0.60234359  1
  Mn  Mn5  1  0.70144497  0.52707586  0.36389289  1
  Mn  Mn6  1  0.99912079  0.01224911  0.00996454  1
  Mn  Mn7  1  0.80336056  0.04585656  0.62894210  1
  Mn  Mn8  1  0.20913356  0.05265255  0.38708284  1
  Mn  Mn9  1  0.50023807  0.48642902  0.00052341  1
  Sb  Sb10  1  0.87832753  0.86960021  0.45013781  1
  Sb  Sb11  1  0.10663856  0.98383677  0.54240379  1
  Sb  Sb12  1  0.03711532  0.49064086  0.82101608  1
  Sb  Sb13  1  0.95997275  0.47397862  0.19154155  1
  Sb  Sb14  1  0.40645766  0.56389085  0.46394401  1
  Sb  Sb15  1  0.60322748  0.57641472  0.53150064  1
  Sb  Sb16  1  0.52499318  0.95125426  0.80443055  1
  Sb  Sb17  1  0.46146951  0.00324327  0.18097277  1
  S  S18  1  0.93012109  0.00787920  0.80061874  1
  S  S19  1  0.06418800  0.00558485  0.20958403  1
  S  S20  1  0.41502942  0.99527619  0.98314209  1
  S  S21  1  0.57719239  0.97255703  0.00684443  1
  S  S22  1  0.17088328  0.91298321  0.89403381  1
  S  S23  1  0.82000520  0.03911950  0.10458512  1
  S  S24  1  0.10878456  0.46003505  0.66256799  1
  S  S25  1  0.90421291  0.44035076  0.35126116  1
  S  S26  1  0.73334327  0.03992673  0.30371117  1
  S  S27  1  0.25902859  0.94262357  0.67910187  1
  S  S28  1  0.16336721  0.49350763  0.44657325  1
  S  S29  1  0.81590057  0.53276614  0.55937719  1
  S  S30  1  0.43760802  0.47562969  0.79993354  1
  S  S31  1  0.56041452  0.50967402  0.19222498  1
  S  S32  1  0.91030962  0.50079643  0.98716524  1
  S  S33  1  0.08195783  0.48200220  0.02613919  1
  S  S34  1  0.65713611  0.49719505  0.87843060  1
  S  S35  1  0.33196309  0.43032647  0.10292503  1
  S  S36  1  0.59603865  0.98829115  0.64186177  1
  S  S37  1  0.40619707  0.01649592  0.34948203  1
  S  S38  1  0.24614985  0.50372911  0.32912669  1
  S  S39  1  0.75904145  0.48673685  0.69598432  1
  S  S40  1  0.67156609  0.95395295  0.44656320  1
  S  S41  1  0.33003627  0.95480752  0.55042046  1
