# generated using pymatgen
data_Pr2Mn3(SbS3)4
_symmetry_space_group_name_H-M   'P 1'
_cell_length_a   20.02960800
_cell_length_b   3.90410600
_cell_length_c   14.95364829
_cell_angle_alpha   90.00000000
_cell_angle_beta   126.33350609
_cell_angle_gamma   90.00000000
_symmetry_Int_Tables_number   1
_chemical_formula_structural   Pr2Mn3(SbS3)4
_chemical_formula_sum   'Pr4 Mn6 Sb8 S24'
_cell_volume   942.00006694
_cell_formula_units_Z   2
loop_
 _symmetry_equiv_pos_site_id
 _symmetry_equiv_pos_as_xyz
  1  'x, y, z'
loop_
 _atom_site_type_symbol
 _atom_site_label
 _atom_site_symmetry_multiplicity
 _atom_site_fract_x
 _atom_site_fract_y
 _atom_site_fract_z
 _atom_site_occupancy
  Pr  Pr0  1  0.27521268  0.48671538  0.86859454  1
  Pr  Pr1  1  0.73004255  0.51011576  0.13176125  1
  Pr  Pr2  1  0.76845551  0.01109291  0.87258832  1
  Pr  Pr3  1  0.23135715  0.93222010  0.12872867  1
  Mn  Mn4  1  0.29279525  0.43219317  0.60222839  1
  Mn  Mn5  1  0.70155439  0.52723391  0.36405176  1
  Mn  Mn6  1  0.99900893  0.01250736  0.00983963  1
  Mn  Mn7  1  0.80335060  0.04684629  0.62896822  1
  Mn  Mn8  1  0.20896643  0.05323524  0.38678224  1
  Mn  Mn9  1  0.50040707  0.48711458  0.00067478  1
  Sb  Sb10  1  0.87831719  0.86998962  0.45019174  1
  Sb  Sb11  1  0.10664390  0.98414058  0.54226913  1
  Sb  Sb12  1  0.03705206  0.49083747  0.82110572  1
  Sb  Sb13  1  0.95990458  0.47427804  0.19136073  1
  Sb  Sb14  1  0.40637283  0.56386470  0.46373661  1
  Sb  Sb15  1  0.60328434  0.57693022  0.53153626  1
  Sb  Sb16  1  0.52488700  0.95159996  0.80414839  1
  Sb  Sb17  1  0.46146513  0.00315723  0.18108196  1
  S  S18  1  0.93021036  0.00838889  0.80077696  1
  S  S19  1  0.06443574  0.00442412  0.20979119  1
  S  S20  1  0.41497599  0.99461507  0.98330740  1
  S  S21  1  0.57735811  0.97296101  0.00716861  1
  S  S22  1  0.17096970  0.91262451  0.89438588  1
  S  S23  1  0.81988565  0.03802889  0.10469125  1
  S  S24  1  0.10853361  0.46007409  0.66223638  1
  S  S25  1  0.90409753  0.44162654  0.35115556  1
  S  S26  1  0.73336626  0.04054429  0.30362653  1
  S  S27  1  0.25915982  0.94274136  0.67943785  1
  S  S28  1  0.16334481  0.49307079  0.44633073  1
  S  S29  1  0.81617820  0.53232249  0.55944548  1
  S  S30  1  0.43752833  0.47569274  0.79971053  1
  S  S31  1  0.56035632  0.51048748  0.19174572  1
  S  S32  1  0.91015157  0.50148915  0.98704260  1
  S  S33  1  0.08200153  0.48186605  0.02614865  1
  S  S34  1  0.65728684  0.49672467  0.87867113  1
  S  S35  1  0.33217355  0.42971804  0.10294819  1
  S  S36  1  0.59630251  0.98836041  0.64233457  1
  S  S37  1  0.40616508  0.01653235  0.34945276  1
  S  S38  1  0.24632993  0.50501767  0.32932190  1
  S  S39  1  0.75930101  0.48557342  0.69623931  1
  S  S40  1  0.67181940  0.95333002  0.44652959  1
  S  S41  1  0.33030222  0.95523881  0.55060715  1
