# generated using pymatgen
data_Pr2Mn3(SbS3)4
_symmetry_space_group_name_H-M   'P 1'
_cell_length_a   20.02960800
_cell_length_b   3.90410600
_cell_length_c   14.95364829
_cell_angle_alpha   90.00000000
_cell_angle_beta   126.33350609
_cell_angle_gamma   90.00000000
_symmetry_Int_Tables_number   1
_chemical_formula_structural   Pr2Mn3(SbS3)4
_chemical_formula_sum   'Pr4 Mn6 Sb8 S24'
_cell_volume   942.00006694
_cell_formula_units_Z   2
loop_
 _symmetry_equiv_pos_site_id
 _symmetry_equiv_pos_as_xyz
  1  'x, y, z'
loop_
 _atom_site_type_symbol
 _atom_site_label
 _atom_site_symmetry_multiplicity
 _atom_site_fract_x
 _atom_site_fract_y
 _atom_site_fract_z
 _atom_site_occupancy
  Pr  Pr0  1  0.27505455  0.48747231  0.86844566  1
  Pr  Pr1  1  0.72998080  0.50951277  0.13171486  1
  Pr  Pr2  1  0.76863754  0.01074078  0.87260820  1
  Pr  Pr3  1  0.23116268  0.93220179  0.12857665  1
  Mn  Mn4  1  0.29291397  0.43165107  0.60211608  1
  Mn  Mn5  1  0.70169992  0.52742328  0.36435660  1
  Mn  Mn6  1  0.99885074  0.01233848  0.00965110  1
  Mn  Mn7  1  0.80332379  0.04777568  0.62909468  1
  Mn  Mn8  1  0.20890336  0.05386307  0.38653125  1
  Mn  Mn9  1  0.50055799  0.48749555  0.00088076  1
  Sb  Sb10  1  0.87830989  0.87009693  0.45020404  1
  Sb  Sb11  1  0.10668211  0.98428875  0.54229470  1
  Sb  Sb12  1  0.03700072  0.49085811  0.82123577  1
  Sb  Sb13  1  0.95993344  0.47490900  0.19126259  1
  Sb  Sb14  1  0.40624892  0.56373244  0.46354134  1
  Sb  Sb15  1  0.60333263  0.57732502  0.53158651  1
  Sb  Sb16  1  0.52480844  0.95169824  0.80388193  1
  Sb  Sb17  1  0.46143877  0.00311765  0.18120975  1
  S  S18  1  0.93036480  0.00863329  0.80092952  1
  S  S19  1  0.06473548  0.00311581  0.21009187  1
  S  S20  1  0.41502125  0.99405852  0.98363634  1
  S  S21  1  0.57754128  0.97304713  0.00757680  1
  S  S22  1  0.17100701  0.91235454  0.89472292  1
  S  S23  1  0.81980786  0.03707068  0.10483345  1
  S  S24  1  0.10833004  0.46003380  0.66186232  1
  S  S25  1  0.90388494  0.44298376  0.35104945  1
  S  S26  1  0.73343851  0.04135546  0.30352067  1
  S  S27  1  0.25926637  0.94269289  0.67973995  1
  S  S28  1  0.16333071  0.49261548  0.44621283  1
  S  S29  1  0.81640743  0.53222584  0.55957969  1
  S  S30  1  0.43728998  0.47585407  0.79955100  1
  S  S31  1  0.56030662  0.51086916  0.19126250  1
  S  S32  1  0.91008476  0.50257647  0.98700909  1
  S  S33  1  0.08207771  0.48190786  0.02620020  1
  S  S34  1  0.65738058  0.49619144  0.87887070  1
  S  S35  1  0.33227834  0.42960509  0.10277648  1
  S  S36  1  0.59676401  0.98834707  0.64297845  1
  S  S37  1  0.40622671  0.01621576  0.34957205  1
  S  S38  1  0.24662320  0.50608802  0.32951795  1
  S  S39  1  0.75954269  0.48466303  0.69646237  1
  S  S40  1  0.67205152  0.95257247  0.44659982  1
  S  S41  1  0.33051238  0.95601008  0.55083576  1
