# generated using pymatgen
data_Pr2Mn3(SbS3)4
_symmetry_space_group_name_H-M   'P 1'
_cell_length_a   20.02960800
_cell_length_b   3.90410600
_cell_length_c   14.95364829
_cell_angle_alpha   90.00000000
_cell_angle_beta   126.33350609
_cell_angle_gamma   90.00000000
_symmetry_Int_Tables_number   1
_chemical_formula_structural   Pr2Mn3(SbS3)4
_chemical_formula_sum   'Pr4 Mn6 Sb8 S24'
_cell_volume   942.00006694
_cell_formula_units_Z   2
loop_
 _symmetry_equiv_pos_site_id
 _symmetry_equiv_pos_as_xyz
  1  'x, y, z'
loop_
 _atom_site_type_symbol
 _atom_site_label
 _atom_site_symmetry_multiplicity
 _atom_site_fract_x
 _atom_site_fract_y
 _atom_site_fract_z
 _atom_site_occupancy
  Pr  Pr0  1  0.27489507  0.48811023  0.86831207  1
  Pr  Pr1  1  0.72984737  0.50894914  0.13163919  1
  Pr  Pr2  1  0.76878000  0.01039722  0.87262248  1
  Pr  Pr3  1  0.23094384  0.93214814  0.12841439  1
  Mn  Mn4  1  0.29304308  0.43110685  0.60205441  1
  Mn  Mn5  1  0.70188856  0.52808410  0.36471597  1
  Mn  Mn6  1  0.99869715  0.01239111  0.00943296  1
  Mn  Mn7  1  0.80331443  0.04865520  0.62911547  1
  Mn  Mn8  1  0.20877212  0.05443191  0.38632228  1
  Mn  Mn9  1  0.50069062  0.48822959  0.00112941  1
  Sb  Sb10  1  0.87822054  0.86991108  0.45005736  1
  Sb  Sb11  1  0.10676941  0.98439523  0.54235125  1
  Sb  Sb12  1  0.03692583  0.49104103  0.82129908  1
  Sb  Sb13  1  0.95990041  0.47548831  0.19116124  1
  Sb  Sb14  1  0.40621347  0.56395050  0.46343285  1
  Sb  Sb15  1  0.60331191  0.57763410  0.53155137  1
  Sb  Sb16  1  0.52470253  0.95199335  0.80366385  1
  Sb  Sb17  1  0.46138912  0.00307291  0.18129525  1
  S  S18  1  0.93048018  0.00899290  0.80105830  1
  S  S19  1  0.06495845  0.00183187  0.21031382  1
  S  S20  1  0.41514534  0.99364809  0.98398619  1
  S  S21  1  0.57774345  0.97329431  0.00802832  1
  S  S22  1  0.17100500  0.91220064  0.89495108  1
  S  S23  1  0.81980481  0.03592203  0.10492036  1
  S  S24  1  0.10808765  0.45930883  0.66143639  1
  S  S25  1  0.90351368  0.44447900  0.35071581  1
  S  S26  1  0.73340870  0.04221164  0.30357571  1
  S  S27  1  0.25943323  0.94272371  0.68011492  1
  S  S28  1  0.16331155  0.49226490  0.44612200  1
  S  S29  1  0.81657576  0.53251103  0.55969358  1
  S  S30  1  0.43700830  0.47617529  0.79941316  1
  S  S31  1  0.56020236  0.51134098  0.19080706  1
  S  S32  1  0.91004710  0.50324983  0.98709428  1
  S  S33  1  0.08198014  0.48188269  0.02610417  1
  S  S34  1  0.65741735  0.49546313  0.87894697  1
  S  S35  1  0.33231782  0.42930102  0.10263791  1
  S  S36  1  0.59715359  0.98826463  0.64346625  1
  S  S37  1  0.40630510  0.01608077  0.34979466  1
  S  S38  1  0.24675924  0.50739000  0.32961902  1
  S  S39  1  0.75974662  0.48381698  0.69665921  1
  S  S40  1  0.67251774  0.95213124  0.44693459  1
  S  S41  1  0.33083106  0.95687459  0.55117648  1
