# generated using pymatgen
data_Pr2Mn3(SbS3)4
_symmetry_space_group_name_H-M   'P 1'
_cell_length_a   20.02960800
_cell_length_b   3.90410600
_cell_length_c   14.95364829
_cell_angle_alpha   90.00000000
_cell_angle_beta   126.33350609
_cell_angle_gamma   90.00000000
_symmetry_Int_Tables_number   1
_chemical_formula_structural   Pr2Mn3(SbS3)4
_chemical_formula_sum   'Pr4 Mn6 Sb8 S24'
_cell_volume   942.00006694
_cell_formula_units_Z   2
loop_
 _symmetry_equiv_pos_site_id
 _symmetry_equiv_pos_as_xyz
  1  'x, y, z'
loop_
 _atom_site_type_symbol
 _atom_site_label
 _atom_site_symmetry_multiplicity
 _atom_site_fract_x
 _atom_site_fract_y
 _atom_site_fract_z
 _atom_site_occupancy
  Pr  Pr0  1  0.26579746  0.47839675  0.86435942  1
  Pr  Pr1  1  0.73522785  0.51716496  0.13554236  1
  Pr  Pr2  1  0.76441388  0.01476549  0.86461593  1
  Pr  Pr3  1  0.23785638  0.00709084  0.13799424  1
  Mn  Mn4  1  0.29196878  0.47562408  0.59959545  1
  Mn  Mn5  1  0.69054350  0.50394371  0.37821925  1
  Mn  Mn6  1  0.01014967  0.99448057  0.01721177  1
  Mn  Mn7  1  0.80410917  0.01856108  0.61435776  1
  Mn  Mn8  1  0.19804833  0.97690622  0.37891279  1
  Mn  Mn9  1  0.49314596  0.46517459  0.98908502  1
  Sb  Sb10  1  0.89000002  0.98107019  0.44982763  1
  Sb  Sb11  1  0.11271683  0.97726768  0.54828589  1
  Sb  Sb12  1  0.03956072  0.51873593  0.82036365  1
  Sb  Sb13  1  0.96550415  0.50693802  0.18584184  1
  Sb  Sb14  1  0.39584842  0.51269336  0.45405806  1
  Sb  Sb15  1  0.60605744  0.47362252  0.54781607  1
  Sb  Sb16  1  0.53450059  0.00619623  0.81081025  1
  Sb  Sb17  1  0.46043134  0.01635895  0.18097554  1
  S  S18  1  0.93410807  0.99224880  0.80080095  1
  S  S19  1  0.06625908  0.98549646  0.19530133  1
  S  S20  1  0.40805574  0.98163408  0.98352106  1
  S  S21  1  0.58437791  0.98380019  0.01264940  1
  S  S22  1  0.16959930  0.01816361  0.89672477  1
  S  S23  1  0.82496210  0.03777936  0.09599835  1
  S  S24  1  0.09235684  0.47174993  0.64457071  1
  S  S25  1  0.91029541  0.46837248  0.35507580  1
  S  S26  1  0.74081498  0.94564754  0.30249226  1
  S  S27  1  0.26381412  0.00309618  0.71290473  1
  S  S28  1  0.16165497  0.47473939  0.43543783  1
  S  S29  1  0.82788050  0.48139044  0.54824348  1
  S  S30  1  0.43138772  0.49688164  0.79567140  1
  S  S31  1  0.56022110  0.50771162  0.18306102  1
  S  S32  1  0.91202698  0.49865843  0.98819171  1
  S  S33  1  0.08699729  0.46912989  0.01999996  1
  S  S34  1  0.66541076  0.50779557  0.88783064  1
  S  S35  1  0.32811462  0.53014980  0.09325831  1
  S  S36  1  0.59616403  0.98902219  0.65729266  1
  S  S37  1  0.40682030  0.98377166  0.35066324  1
  S  S38  1  0.24269698  0.44866545  0.30906670  1
  S  S39  1  0.76637273  0.50389897  0.70436830  1
  S  S40  1  0.67086846  0.03112772  0.45705833  1
  S  S41  1  0.32166572  0.97810824  0.54503771  1
