# generated using pymatgen
data_Pr2Mn3(SbS3)4
_symmetry_space_group_name_H-M   'P 1'
_cell_length_a   20.02960800
_cell_length_b   3.90410600
_cell_length_c   14.95364829
_cell_angle_alpha   90.00000000
_cell_angle_beta   126.33350609
_cell_angle_gamma   90.00000000
_symmetry_Int_Tables_number   1
_chemical_formula_structural   Pr2Mn3(SbS3)4
_chemical_formula_sum   'Pr4 Mn6 Sb8 S24'
_cell_volume   942.00006694
_cell_formula_units_Z   2
loop_
 _symmetry_equiv_pos_site_id
 _symmetry_equiv_pos_as_xyz
  1  'x, y, z'
loop_
 _atom_site_type_symbol
 _atom_site_label
 _atom_site_symmetry_multiplicity
 _atom_site_fract_x
 _atom_site_fract_y
 _atom_site_fract_z
 _atom_site_occupancy
  Pr  Pr0  1  0.27477004  0.48887576  0.86817076  1
  Pr  Pr1  1  0.72974232  0.50828576  0.13156700  1
  Pr  Pr2  1  0.76897238  0.00987122  0.87276547  1
  Pr  Pr3  1  0.23076182  0.93192696  0.12822930  1
  Mn  Mn4  1  0.29318407  0.43055301  0.60211630  1
  Mn  Mn5  1  0.70218473  0.52858388  0.36520279  1
  Mn  Mn6  1  0.99850881  0.01218439  0.00906362  1
  Mn  Mn7  1  0.80332263  0.04963949  0.62912426  1
  Mn  Mn8  1  0.20856922  0.05529684  0.38606163  1
  Mn  Mn9  1  0.50073360  0.48876573  0.00120948  1
  Sb  Sb10  1  0.87811932  0.86975287  0.44996692  1
  Sb  Sb11  1  0.10679890  0.98490687  0.54238608  1
  Sb  Sb12  1  0.03682889  0.49105765  0.82132295  1
  Sb  Sb13  1  0.95992871  0.47587403  0.19111622  1
  Sb  Sb14  1  0.40616912  0.56399147  0.46335005  1
  Sb  Sb15  1  0.60325427  0.57798207  0.53156415  1
  Sb  Sb16  1  0.52453425  0.95211517  0.80343039  1
  Sb  Sb17  1  0.46140845  0.00291041  0.18144124  1
  S  S18  1  0.93063765  0.00843779  0.80123953  1
  S  S19  1  0.06514182  0.00085144  0.21057272  1
  S  S20  1  0.41526646  0.99246743  0.98430805  1
  S  S21  1  0.57782004  0.97333603  0.00840324  1
  S  S22  1  0.17069942  0.91226206  0.89504246  1
  S  S23  1  0.81982183  0.03471449  0.10492055  1
  S  S24  1  0.10791504  0.45842479  0.66101904  1
  S  S25  1  0.90322758  0.44575401  0.35037847  1
  S  S26  1  0.73350447  0.04376870  0.30373078  1
  S  S27  1  0.25959318  0.94283647  0.68033965  1
  S  S28  1  0.16330790  0.49190767  0.44608687  1
  S  S29  1  0.81681475  0.53272715  0.55982139  1
  S  S30  1  0.43676386  0.47660550  0.79928592  1
  S  S31  1  0.56016902  0.51203645  0.19045852  1
  S  S32  1  0.90990646  0.50384412  0.98718962  1
  S  S33  1  0.08184270  0.48134858  0.02602249  1
  S  S34  1  0.65748705  0.49519019  0.87899705  1
  S  S35  1  0.33240450  0.42918447  0.10253747  1
  S  S36  1  0.59739980  0.98839196  0.64376796  1
  S  S37  1  0.40625770  0.01563249  0.34987864  1
  S  S38  1  0.24689412  0.50841732  0.32974986  1
  S  S39  1  0.75996476  0.48297250  0.69701258  1
  S  S40  1  0.67291426  0.95153228  0.44720593  1
  S  S41  1  0.33114855  0.95784185  0.55144517  1
