# generated using pymatgen
data_Pr2Mn3(SbS3)4
_symmetry_space_group_name_H-M   'P 1'
_cell_length_a   20.02960800
_cell_length_b   3.90410600
_cell_length_c   14.95364829
_cell_angle_alpha   90.00000000
_cell_angle_beta   126.33350609
_cell_angle_gamma   90.00000000
_symmetry_Int_Tables_number   1
_chemical_formula_structural   Pr2Mn3(SbS3)4
_chemical_formula_sum   'Pr4 Mn6 Sb8 S24'
_cell_volume   942.00006694
_cell_formula_units_Z   2
loop_
 _symmetry_equiv_pos_site_id
 _symmetry_equiv_pos_as_xyz
  1  'x, y, z'
loop_
 _atom_site_type_symbol
 _atom_site_label
 _atom_site_symmetry_multiplicity
 _atom_site_fract_x
 _atom_site_fract_y
 _atom_site_fract_z
 _atom_site_occupancy
  Pr  Pr0  1  0.27467098  0.48972160  0.86812372  1
  Pr  Pr1  1  0.72959049  0.50745021  0.13147831  1
  Pr  Pr2  1  0.76912290  0.00923348  0.87289680  1
  Pr  Pr3  1  0.23057729  0.93174380  0.12801847  1
  Mn  Mn4  1  0.29329701  0.43039308  0.60219144  1
  Mn  Mn5  1  0.70247474  0.52905188  0.36566150  1
  Mn  Mn6  1  0.99835312  0.01222012  0.00862829  1
  Mn  Mn7  1  0.80339307  0.05062852  0.62914493  1
  Mn  Mn8  1  0.20835422  0.05601164  0.38583453  1
  Mn  Mn9  1  0.50077658  0.48929552  0.00131970  1
  Sb  Sb10  1  0.87808597  0.86969760  0.44990991  1
  Sb  Sb11  1  0.10681184  0.98533484  0.54242364  1
  Sb  Sb12  1  0.03670327  0.49099361  0.82135127  1
  Sb  Sb13  1  0.95998350  0.47628519  0.19118450  1
  Sb  Sb14  1  0.40614244  0.56417768  0.46334743  1
  Sb  Sb15  1  0.60313304  0.57828027  0.53154338  1
  Sb  Sb16  1  0.52428721  0.95205648  0.80310677  1
  Sb  Sb17  1  0.46149953  0.00276066  0.18167815  1
  S  S18  1  0.93090268  0.00771766  0.80143994  1
  S  S19  1  0.06530070  0.00016890  0.21086792  1
  S  S20  1  0.41534343  0.99115926  0.98459674  1
  S  S21  1  0.57801339  0.97375651  0.00881134  1
  S  S22  1  0.17041659  0.91237464  0.89523057  1
  S  S23  1  0.81984529  0.03328205  0.10494915  1
  S  S24  1  0.10775269  0.45736740  0.66059216  1
  S  S25  1  0.90296214  0.44663803  0.35010617  1
  S  S26  1  0.73350053  0.04552567  0.30388863  1
  S  S27  1  0.25968885  0.94306074  0.68041537  1
  S  S28  1  0.16335975  0.49160727  0.44604432  1
  S  S29  1  0.81704523  0.53352138  0.55993023  1
  S  S30  1  0.43662086  0.47645860  0.79915647  1
  S  S31  1  0.56021120  0.51231670  0.19016006  1
  S  S32  1  0.90988358  0.50428312  0.98735756  1
  S  S33  1  0.08153437  0.48050386  0.02571708  1
  S  S34  1  0.65747213  0.49483105  0.87897416  1
  S  S35  1  0.33244721  0.42958255  0.10233800  1
  S  S36  1  0.59768011  0.98889311  0.64409089  1
  S  S37  1  0.40630832  0.01523522  0.35004136  1
  S  S38  1  0.24702108  0.50966240  0.32972433  1
  S  S39  1  0.76026933  0.48199112  0.69737166  1
  S  S40  1  0.67347334  0.95142515  0.44750406  1
  S  S41  1  0.33152899  0.95803744  0.55163495  1
