# generated using pymatgen
data_Pr2Mn3(SbS3)4
_symmetry_space_group_name_H-M   'P 1'
_cell_length_a   20.02960800
_cell_length_b   3.90410600
_cell_length_c   14.95364829
_cell_angle_alpha   90.00000000
_cell_angle_beta   126.33350609
_cell_angle_gamma   90.00000000
_symmetry_Int_Tables_number   1
_chemical_formula_structural   Pr2Mn3(SbS3)4
_chemical_formula_sum   'Pr4 Mn6 Sb8 S24'
_cell_volume   942.00006694
_cell_formula_units_Z   2
loop_
 _symmetry_equiv_pos_site_id
 _symmetry_equiv_pos_as_xyz
  1  'x, y, z'
loop_
 _atom_site_type_symbol
 _atom_site_label
 _atom_site_symmetry_multiplicity
 _atom_site_fract_x
 _atom_site_fract_y
 _atom_site_fract_z
 _atom_site_occupancy
  Pr  Pr0  1  0.27459540  0.49044116  0.86810680  1
  Pr  Pr1  1  0.72944597  0.50656983  0.13139914  1
  Pr  Pr2  1  0.76922459  0.00857062  0.87294144  1
  Pr  Pr3  1  0.23042653  0.93140019  0.12784114  1
  Mn  Mn4  1  0.29345937  0.43010900  0.60228891  1
  Mn  Mn5  1  0.70265194  0.52936771  0.36603289  1
  Mn  Mn6  1  0.99814496  0.01197103  0.00820220  1
  Mn  Mn7  1  0.80337800  0.05120859  0.62909264  1
  Mn  Mn8  1  0.20822818  0.05657985  0.38579094  1
  Mn  Mn9  1  0.50080117  0.48982997  0.00147708  1
  Sb  Sb10  1  0.87804418  0.86967228  0.44982380  1
  Sb  Sb11  1  0.10684612  0.98561099  0.54253848  1
  Sb  Sb12  1  0.03664017  0.49080521  0.82143318  1
  Sb  Sb13  1  0.95998081  0.47686967  0.19121647  1
  Sb  Sb14  1  0.40614538  0.56411275  0.46344408  1
  Sb  Sb15  1  0.60306422  0.57862821  0.53150963  1
  Sb  Sb16  1  0.52408475  0.95214500  0.80280702  1
  Sb  Sb17  1  0.46152572  0.00252401  0.18181965  1
  S  S18  1  0.93115922  0.00658704  0.80167501  1
  S  S19  1  0.06536912  0.00062258  0.21100226  1
  S  S20  1  0.41550373  0.99032503  0.98500215  1
  S  S21  1  0.57810351  0.97434432  0.00916706  1
  S  S22  1  0.17016825  0.91248756  0.89536927  1
  S  S23  1  0.81973387  0.03175979  0.10484779  1
  S  S24  1  0.10759757  0.45669972  0.66017382  1
  S  S25  1  0.90266484  0.44785692  0.34991832  1
  S  S26  1  0.73347163  0.04741920  0.30400809  1
  S  S27  1  0.25970832  0.94396347  0.68057787  1
  S  S28  1  0.16346393  0.49097879  0.44598379  1
  S  S29  1  0.81729062  0.53415064  0.55991815  1
  S  S30  1  0.43643421  0.47612478  0.79893010  1
  S  S31  1  0.56030953  0.51219401  0.19000963  1
  S  S32  1  0.90989127  0.50467318  0.98746426  1
  S  S33  1  0.08117252  0.47976577  0.02530663  1
  S  S34  1  0.65744268  0.49427434  0.87891845  1
  S  S35  1  0.33239904  0.43009501  0.10206274  1
  S  S36  1  0.59789944  0.98946784  0.64425950  1
  S  S37  1  0.40625495  0.01526795  0.34998745  1
  S  S38  1  0.24716862  0.51103198  0.32964429  1
  S  S39  1  0.76050233  0.48078784  0.69759270  1
  S  S40  1  0.67399606  0.95169036  0.44786296  1
  S  S41  1  0.33182372  0.95815121  0.55173164  1
