# generated using pymatgen
data_Pr2Mn3(SbS3)4
_symmetry_space_group_name_H-M   'P 1'
_cell_length_a   20.02960800
_cell_length_b   3.90410600
_cell_length_c   14.95364829
_cell_angle_alpha   90.00000000
_cell_angle_beta   126.33350609
_cell_angle_gamma   90.00000000
_symmetry_Int_Tables_number   1
_chemical_formula_structural   Pr2Mn3(SbS3)4
_chemical_formula_sum   'Pr4 Mn6 Sb8 S24'
_cell_volume   942.00006694
_cell_formula_units_Z   2
loop_
 _symmetry_equiv_pos_site_id
 _symmetry_equiv_pos_as_xyz
  1  'x, y, z'
loop_
 _atom_site_type_symbol
 _atom_site_label
 _atom_site_symmetry_multiplicity
 _atom_site_fract_x
 _atom_site_fract_y
 _atom_site_fract_z
 _atom_site_occupancy
  Pr  Pr0  1  0.27449490  0.49138407  0.86806481  1
  Pr  Pr1  1  0.72927875  0.50581910  0.13132654  1
  Pr  Pr2  1  0.76935072  0.00795735  0.87297043  1
  Pr  Pr3  1  0.23032249  0.93117634  0.12767725  1
  Mn  Mn4  1  0.29365132  0.43015921  0.60231643  1
  Mn  Mn5  1  0.70285219  0.52990090  0.36643746  1
  Mn  Mn6  1  0.99793169  0.01135076  0.00783110  1
  Mn  Mn7  1  0.80338603  0.05181409  0.62915000  1
  Mn  Mn8  1  0.20812372  0.05714812  0.38578128  1
  Mn  Mn9  1  0.50087166  0.49078154  0.00167805  1
  Sb  Sb10  1  0.87800703  0.86949796  0.44978221  1
  Sb  Sb11  1  0.10680935  0.98585959  0.54261793  1
  Sb  Sb12  1  0.03653056  0.49080817  0.82149624  1
  Sb  Sb13  1  0.95998570  0.47730793  0.19130609  1
  Sb  Sb14  1  0.40613435  0.56406426  0.46353496  1
  Sb  Sb15  1  0.60296454  0.57936364  0.53148468  1
  Sb  Sb16  1  0.52393972  0.95212741  0.80257717  1
  Sb  Sb17  1  0.46150692  0.00239130  0.18194320  1
  S  S18  1  0.93140853  0.00579600  0.80192888  1
  S  S19  1  0.06553983  0.00134360  0.21107599  1
  S  S20  1  0.41563639  0.98946147  0.98546117  1
  S  S21  1  0.57812985  0.97509461  0.00934336  1
  S  S22  1  0.16994427  0.91281090  0.89549305  1
  S  S23  1  0.81961365  0.03028603  0.10471481  1
  S  S24  1  0.10753798  0.45605449  0.65971636  1
  S  S25  1  0.90249723  0.44905998  0.34968194  1
  S  S26  1  0.73340626  0.04882318  0.30406230  1
  S  S27  1  0.25967201  0.94474048  0.68055958  1
  S  S28  1  0.16359620  0.49034483  0.44597994  1
  S  S29  1  0.81746020  0.53458239  0.55992616  1
  S  S30  1  0.43621623  0.47574001  0.79873257  1
  S  S31  1  0.56037128  0.51208711  0.18976975  1
  S  S32  1  0.90996681  0.50463390  0.98751527  1
  S  S33  1  0.08082723  0.47893963  0.02484741  1
  S  S34  1  0.65745509  0.49408328  0.87866589  1
  S  S35  1  0.33227575  0.43067673  0.10158172  1
  S  S36  1  0.59807814  0.99022889  0.64443363  1
  S  S37  1  0.40625999  0.01546453  0.35001123  1
  S  S38  1  0.24710282  0.51283637  0.32931765  1
  S  S39  1  0.76074463  0.47919805  0.69774371  1
  S  S40  1  0.67441169  0.95176088  0.44820061  1
  S  S41  1  0.33208200  0.95825717  0.55178281  1
