# generated using pymatgen
data_Pr2Mn3(SbS3)4
_symmetry_space_group_name_H-M   'P 1'
_cell_length_a   20.02960800
_cell_length_b   3.90410600
_cell_length_c   14.95364829
_cell_angle_alpha   90.00000000
_cell_angle_beta   126.33350609
_cell_angle_gamma   90.00000000
_symmetry_Int_Tables_number   1
_chemical_formula_structural   Pr2Mn3(SbS3)4
_chemical_formula_sum   'Pr4 Mn6 Sb8 S24'
_cell_volume   942.00006694
_cell_formula_units_Z   2
loop_
 _symmetry_equiv_pos_site_id
 _symmetry_equiv_pos_as_xyz
  1  'x, y, z'
loop_
 _atom_site_type_symbol
 _atom_site_label
 _atom_site_symmetry_multiplicity
 _atom_site_fract_x
 _atom_site_fract_y
 _atom_site_fract_z
 _atom_site_occupancy
  Pr  Pr0  1  0.27444177  0.49210011  0.86794864  1
  Pr  Pr1  1  0.72907565  0.50492944  0.13116475  1
  Pr  Pr2  1  0.76951255  0.00743833  0.87304913  1
  Pr  Pr3  1  0.23022507  0.93096953  0.12758409  1
  Mn  Mn4  1  0.29381559  0.43029419  0.60235967  1
  Mn  Mn5  1  0.70295744  0.53050136  0.36687345  1
  Mn  Mn6  1  0.99769821  0.01058492  0.00741640  1
  Mn  Mn7  1  0.80339442  0.05235450  0.62932239  1
  Mn  Mn8  1  0.20805782  0.05759423  0.38578312  1
  Mn  Mn9  1  0.50086516  0.49180338  0.00176860  1
  Sb  Sb10  1  0.87798700  0.86932403  0.44965600  1
  Sb  Sb11  1  0.10677299  0.98623885  0.54276246  1
  Sb  Sb12  1  0.03641453  0.49063447  0.82156827  1
  Sb  Sb13  1  0.95999922  0.47767146  0.19144622  1
  Sb  Sb14  1  0.40609552  0.56387040  0.46357823  1
  Sb  Sb15  1  0.60289120  0.57997008  0.53145798  1
  Sb  Sb16  1  0.52379782  0.95201980  0.80233234  1
  Sb  Sb17  1  0.46146564  0.00230516  0.18197818  1
  S  S18  1  0.93159342  0.00490172  0.80221103  1
  S  S19  1  0.06570564  0.00201265  0.21125874  1
  S  S20  1  0.41575432  0.98908947  0.98595777  1
  S  S21  1  0.57820060  0.97538948  0.00965249  1
  S  S22  1  0.16970164  0.91286503  0.89556175  1
  S  S23  1  0.81934949  0.02831456  0.10448715  1
  S  S24  1  0.10752403  0.45504841  0.65917104  1
  S  S25  1  0.90245741  0.45014044  0.34964256  1
  S  S26  1  0.73333760  0.04974207  0.30420899  1
  S  S27  1  0.25968516  0.94561195  0.68061986  1
  S  S28  1  0.16368214  0.48994812  0.44591638  1
  S  S29  1  0.81767668  0.53461776  0.55993436  1
  S  S30  1  0.43606973  0.47550001  0.79855406  1
  S  S31  1  0.56040712  0.51213105  0.18953014  1
  S  S32  1  0.91003169  0.50481766  0.98766916  1
  S  S33  1  0.08049475  0.47770324  0.02443628  1
  S  S34  1  0.65746288  0.49401622  0.87841710  1
  S  S35  1  0.33220744  0.43183852  0.10119008  1
  S  S36  1  0.59822298  0.99084289  0.64460694  1
  S  S37  1  0.40614610  0.01518632  0.34994414  1
  S  S38  1  0.24694753  0.51437764  0.32893731  1
  S  S39  1  0.76105592  0.47790109  0.69790512  1
  S  S40  1  0.67480838  0.95148773  0.44848747  1
  S  S41  1  0.33215077  0.95795915  0.55166712  1
