# generated using pymatgen
data_Pr2Mn3(SbS3)4
_symmetry_space_group_name_H-M   'P 1'
_cell_length_a   20.02960800
_cell_length_b   3.90410600
_cell_length_c   14.95364829
_cell_angle_alpha   90.00000000
_cell_angle_beta   126.33350609
_cell_angle_gamma   90.00000000
_symmetry_Int_Tables_number   1
_chemical_formula_structural   Pr2Mn3(SbS3)4
_chemical_formula_sum   'Pr4 Mn6 Sb8 S24'
_cell_volume   942.00006694
_cell_formula_units_Z   2
loop_
 _symmetry_equiv_pos_site_id
 _symmetry_equiv_pos_as_xyz
  1  'x, y, z'
loop_
 _atom_site_type_symbol
 _atom_site_label
 _atom_site_symmetry_multiplicity
 _atom_site_fract_x
 _atom_site_fract_y
 _atom_site_fract_z
 _atom_site_occupancy
  Pr  Pr0  1  0.27437617  0.49283065  0.86781074  1
  Pr  Pr1  1  0.72880804  0.50436980  0.13100835  1
  Pr  Pr2  1  0.76966077  0.00690341  0.87306711  1
  Pr  Pr3  1  0.23014296  0.93062607  0.12747727  1
  Mn  Mn4  1  0.29402184  0.43037580  0.60243173  1
  Mn  Mn5  1  0.70305316  0.53125406  0.36721589  1
  Mn  Mn6  1  0.99746863  0.01006226  0.00696271  1
  Mn  Mn7  1  0.80355666  0.05271292  0.62964249  1
  Mn  Mn8  1  0.20799040  0.05805237  0.38572208  1
  Mn  Mn9  1  0.50081967  0.49275654  0.00177223  1
  Sb  Sb10  1  0.87797332  0.86930224  0.44953522  1
  Sb  Sb11  1  0.10673500  0.98647541  0.54287830  1
  Sb  Sb12  1  0.03628464  0.49060464  0.82160576  1
  Sb  Sb13  1  0.96000765  0.47819965  0.19152531  1
  Sb  Sb14  1  0.40605582  0.56366615  0.46363712  1
  Sb  Sb15  1  0.60285882  0.58009450  0.53151064  1
  Sb  Sb16  1  0.52370184  0.95222733  0.80220319  1
  Sb  Sb17  1  0.46139001  0.00235972  0.18205157  1
  S  S18  1  0.93175950  0.00421020  0.80229866  1
  S  S19  1  0.06587356  0.00240891  0.21153749  1
  S  S20  1  0.41592318  0.98864171  0.98634106  1
  S  S21  1  0.57822890  0.97536542  0.00978254  1
  S  S22  1  0.16937439  0.91284181  0.89559621  1
  S  S23  1  0.81908853  0.02686182  0.10421264  1
  S  S24  1  0.10740714  0.45436800  0.65866673  1
  S  S25  1  0.90241973  0.45141591  0.34945076  1
  S  S26  1  0.73326118  0.05087217  0.30422052  1
  S  S27  1  0.25975966  0.94635026  0.68067029  1
  S  S28  1  0.16381864  0.48973479  0.44582823  1
  S  S29  1  0.81780554  0.53491969  0.55972082  1
  S  S30  1  0.43594439  0.47550171  0.79842893  1
  S  S31  1  0.56037413  0.51186737  0.18918981  1
  S  S32  1  0.91013972  0.50524811  0.98796473  1
  S  S33  1  0.08020608  0.47644510  0.02403572  1
  S  S34  1  0.65744796  0.49433904  0.87831322  1
  S  S35  1  0.33222176  0.43272398  0.10088027  1
  S  S36  1  0.59833489  0.99121814  0.64463128  1
  S  S37  1  0.40601174  0.01506815  0.34963987  1
  S  S38  1  0.24680536  0.51584472  0.32823847  1
  S  S39  1  0.76130446  0.47647619  0.69802552  1
  S  S40  1  0.67509757  0.95109976  0.44868752  1
  S  S41  1  0.33233616  0.95721552  0.55175570  1
