# generated using pymatgen
data_Pr2Mn3(SbS3)4
_symmetry_space_group_name_H-M   'P 1'
_cell_length_a   20.02960800
_cell_length_b   3.90410600
_cell_length_c   14.95364829
_cell_angle_alpha   90.00000000
_cell_angle_beta   126.33350609
_cell_angle_gamma   90.00000000
_symmetry_Int_Tables_number   1
_chemical_formula_structural   Pr2Mn3(SbS3)4
_chemical_formula_sum   'Pr4 Mn6 Sb8 S24'
_cell_volume   942.00006694
_cell_formula_units_Z   2
loop_
 _symmetry_equiv_pos_site_id
 _symmetry_equiv_pos_as_xyz
  1  'x, y, z'
loop_
 _atom_site_type_symbol
 _atom_site_label
 _atom_site_symmetry_multiplicity
 _atom_site_fract_x
 _atom_site_fract_y
 _atom_site_fract_z
 _atom_site_occupancy
  Pr  Pr0  1  0.27434256  0.49336602  0.86772182  1
  Pr  Pr1  1  0.72856775  0.50396330  0.13086756  1
  Pr  Pr2  1  0.76978387  0.00632894  0.87304326  1
  Pr  Pr3  1  0.23003253  0.93029297  0.12738491  1
  Mn  Mn4  1  0.29412174  0.43082313  0.60241243  1
  Mn  Mn5  1  0.70309232  0.53176400  0.36746347  1
  Mn  Mn6  1  0.99722011  0.00924306  0.00654721  1
  Mn  Mn7  1  0.80369521  0.05303143  0.62987522  1
  Mn  Mn8  1  0.20789402  0.05804708  0.38563272  1
  Mn  Mn9  1  0.50077684  0.49369569  0.00181006  1
  Sb  Sb10  1  0.87796196  0.86968733  0.44948166  1
  Sb  Sb11  1  0.10672193  0.98647188  0.54296070  1
  Sb  Sb12  1  0.03614443  0.49096723  0.82163488  1
  Sb  Sb13  1  0.96004944  0.47849859  0.19170367  1
  Sb  Sb14  1  0.40600460  0.56329429  0.46370080  1
  Sb  Sb15  1  0.60283844  0.58016165  0.53159575  1
  Sb  Sb16  1  0.52357664  0.95209010  0.80201069  1
  Sb  Sb17  1  0.46134794  0.00241959  0.18209827  1
  S  S18  1  0.93196394  0.00355877  0.80240623  1
  S  S19  1  0.06606994  0.00268549  0.21187322  1
  S  S20  1  0.41606182  0.98786691  0.98671808  1
  S  S21  1  0.57824133  0.97529377  0.00998507  1
  S  S22  1  0.16920388  0.91238551  0.89586263  1
  S  S23  1  0.81892809  0.02545430  0.10400005  1
  S  S24  1  0.10733121  0.45437649  0.65829090  1
  S  S25  1  0.90238675  0.45311470  0.34932424  1
  S  S26  1  0.73310704  0.05165032  0.30411231  1
  S  S27  1  0.25980121  0.94655147  0.68068056  1
  S  S28  1  0.16409195  0.48950312  0.44608314  1
  S  S29  1  0.81792792  0.53508498  0.55960002  1
  S  S30  1  0.43578647  0.47508426  0.79830253  1
  S  S31  1  0.56049451  0.51153280  0.18897343  1
  S  S32  1  0.91028350  0.50554586  0.98818630  1
  S  S33  1  0.07995989  0.47510943  0.02343769  1
  S  S34  1  0.65741580  0.49483626  0.87827708  1
  S  S35  1  0.33220171  0.43336245  0.10055121  1
  S  S36  1  0.59843298  0.99071849  0.64481004  1
  S  S37  1  0.40588233  0.01519468  0.34924108  1
  S  S38  1  0.24671656  0.51683355  0.32749154  1
  S  S39  1  0.76151344  0.47475648  0.69814157  1
  S  S40  1  0.67532295  0.95037016  0.44887204  1
  S  S41  1  0.33268147  0.95667071  0.55201906  1
