# generated using pymatgen
data_Pr2Mn3(SbS3)4
_symmetry_space_group_name_H-M   'P 1'
_cell_length_a   20.02960800
_cell_length_b   3.90410600
_cell_length_c   14.95364829
_cell_angle_alpha   90.00000000
_cell_angle_beta   126.33350609
_cell_angle_gamma   90.00000000
_symmetry_Int_Tables_number   1
_chemical_formula_structural   Pr2Mn3(SbS3)4
_chemical_formula_sum   'Pr4 Mn6 Sb8 S24'
_cell_volume   942.00006694
_cell_formula_units_Z   2
loop_
 _symmetry_equiv_pos_site_id
 _symmetry_equiv_pos_as_xyz
  1  'x, y, z'
loop_
 _atom_site_type_symbol
 _atom_site_label
 _atom_site_symmetry_multiplicity
 _atom_site_fract_x
 _atom_site_fract_y
 _atom_site_fract_z
 _atom_site_occupancy
  Pr  Pr0  1  0.27433742  0.49369304  0.86761902  1
  Pr  Pr1  1  0.72841261  0.50339257  0.13076341  1
  Pr  Pr2  1  0.76995034  0.00580539  0.87306614  1
  Pr  Pr3  1  0.22997995  0.93019587  0.12736376  1
  Mn  Mn4  1  0.29416721  0.43137238  0.60221917  1
  Mn  Mn5  1  0.70311288  0.53196951  0.36767044  1
  Mn  Mn6  1  0.99700831  0.00849431  0.00608247  1
  Mn  Mn7  1  0.80377962  0.05307516  0.63006142  1
  Mn  Mn8  1  0.20777872  0.05809136  0.38554807  1
  Mn  Mn9  1  0.50064096  0.49439031  0.00177411  1
  Sb  Sb10  1  0.87796946  0.87006031  0.44940812  1
  Sb  Sb11  1  0.10679569  0.98664449  0.54308070  1
  Sb  Sb12  1  0.03591482  0.49150023  0.82153643  1
  Sb  Sb13  1  0.96010792  0.47897365  0.19188316  1
  Sb  Sb14  1  0.40590355  0.56303906  0.46369923  1
  Sb  Sb15  1  0.60282390  0.58019612  0.53168483  1
  Sb  Sb16  1  0.52349260  0.95214264  0.80187945  1
  Sb  Sb17  1  0.46131327  0.00248921  0.18212511  1
  S  S18  1  0.93216755  0.00295520  0.80246703  1
  S  S19  1  0.06616468  0.00321503  0.21194169  1
  S  S20  1  0.41609096  0.98700524  0.98693079  1
  S  S21  1  0.57833394  0.97548558  0.01027847  1
  S  S22  1  0.16893922  0.91197644  0.89592211  1
  S  S23  1  0.81881349  0.02414605  0.10376752  1
  S  S24  1  0.10728042  0.45455605  0.65790318  1
  S  S25  1  0.90232258  0.45517014  0.34915912  1
  S  S26  1  0.73291639  0.05220717  0.30390158  1
  S  S27  1  0.25991973  0.94649959  0.68080403  1
  S  S28  1  0.16434478  0.48930972  0.44636104  1
  S  S29  1  0.81797808  0.53513511  0.55948622  1
  S  S30  1  0.43569448  0.47433782  0.79823106  1
  S  S31  1  0.56053894  0.51090863  0.18864556  1
  S  S32  1  0.91050928  0.50580971  0.98838762  1
  S  S33  1  0.07973480  0.47414266  0.02279537  1
  S  S34  1  0.65745990  0.49540519  0.87818613  1
  S  S35  1  0.33213626  0.43368516  0.10027806  1
  S  S36  1  0.59849266  0.99053975  0.64492629  1
  S  S37  1  0.40581329  0.01508666  0.34893382  1
  S  S38  1  0.24658835  0.51806862  0.32677640  1
  S  S39  1  0.76160404  0.47342354  0.69818560  1
  S  S40  1  0.67555772  0.94989218  0.44906476  1
  S  S41  1  0.33288449  0.95622512  0.55224360  1
