# generated using pymatgen
data_Pr2Mn3(SbS3)4
_symmetry_space_group_name_H-M   'P 1'
_cell_length_a   20.02960800
_cell_length_b   3.90410600
_cell_length_c   14.95364829
_cell_angle_alpha   90.00000000
_cell_angle_beta   126.33350609
_cell_angle_gamma   90.00000000
_symmetry_Int_Tables_number   1
_chemical_formula_structural   Pr2Mn3(SbS3)4
_chemical_formula_sum   'Pr4 Mn6 Sb8 S24'
_cell_volume   942.00006694
_cell_formula_units_Z   2
loop_
 _symmetry_equiv_pos_site_id
 _symmetry_equiv_pos_as_xyz
  1  'x, y, z'
loop_
 _atom_site_type_symbol
 _atom_site_label
 _atom_site_symmetry_multiplicity
 _atom_site_fract_x
 _atom_site_fract_y
 _atom_site_fract_z
 _atom_site_occupancy
  Pr  Pr0  1  0.27432417  0.49381794  0.86749665  1
  Pr  Pr1  1  0.72829812  0.50250545  0.13070572  1
  Pr  Pr2  1  0.77010126  0.00541283  0.87309179  1
  Pr  Pr3  1  0.22999027  0.93021338  0.12745917  1
  Mn  Mn4  1  0.29417801  0.43193833  0.60195251  1
  Mn  Mn5  1  0.70319136  0.53185634  0.36796760  1
  Mn  Mn6  1  0.99676793  0.00781543  0.00557420  1
  Mn  Mn7  1  0.80391419  0.05310896  0.63026026  1
  Mn  Mn8  1  0.20774427  0.05788075  0.38560495  1
  Mn  Mn9  1  0.50057032  0.49506857  0.00183108  1
  Sb  Sb10  1  0.87799326  0.87029489  0.44939647  1
  Sb  Sb11  1  0.10692437  0.98657518  0.54320227  1
  Sb  Sb12  1  0.03567269  0.49199070  0.82142730  1
  Sb  Sb13  1  0.96016733  0.47930000  0.19200618  1
  Sb  Sb14  1  0.40579448  0.56289093  0.46375347  1
  Sb  Sb15  1  0.60285806  0.58014917  0.53182839  1
  Sb  Sb16  1  0.52341324  0.95177316  0.80179916  1
  Sb  Sb17  1  0.46131419  0.00263863  0.18217901  1
  S  S18  1  0.93227203  0.00244483  0.80251804  1
  S  S19  1  0.06625266  0.00329019  0.21199491  1
  S  S20  1  0.41611729  0.98635728  0.98710256  1
  S  S21  1  0.57848489  0.97536081  0.01039859  1
  S  S22  1  0.16860158  0.91160174  0.89577521  1
  S  S23  1  0.81879053  0.02273607  0.10348041  1
  S  S24  1  0.10721057  0.45461655  0.65757899  1
  S  S25  1  0.90232342  0.45653398  0.34898609  1
  S  S26  1  0.73276497  0.05284271  0.30373780  1
  S  S27  1  0.25989735  0.94634383  0.68084327  1
  S  S28  1  0.16460822  0.48880081  0.44664112  1
  S  S29  1  0.81812167  0.53563815  0.55940504  1
  S  S30  1  0.43553394  0.47380684  0.79814142  1
  S  S31  1  0.56063454  0.51003996  0.18849242  1
  S  S32  1  0.91067729  0.50598878  0.98852265  1
  S  S33  1  0.07958354  0.47308884  0.02224659  1
  S  S34  1  0.65756617  0.49606542  0.87814435  1
  S  S35  1  0.33211400  0.43396045  0.10009238  1
  S  S36  1  0.59862702  0.99117436  0.64516837  1
  S  S37  1  0.40581164  0.01517885  0.34876266  1
  S  S38  1  0.24645410  0.51914193  0.32614606  1
  S  S39  1  0.76172121  0.47218584  0.69823199  1
  S  S40  1  0.67570913  0.94979571  0.44913587  1
  S  S41  1  0.33295361  0.95640388  0.55229072  1
