# generated using pymatgen
data_Pr2Mn3(SbS3)4
_symmetry_space_group_name_H-M   'P 1'
_cell_length_a   20.02960800
_cell_length_b   3.90410600
_cell_length_c   14.95364829
_cell_angle_alpha   90.00000000
_cell_angle_beta   126.33350609
_cell_angle_gamma   90.00000000
_symmetry_Int_Tables_number   1
_chemical_formula_structural   Pr2Mn3(SbS3)4
_chemical_formula_sum   'Pr4 Mn6 Sb8 S24'
_cell_volume   942.00006694
_cell_formula_units_Z   2
loop_
 _symmetry_equiv_pos_site_id
 _symmetry_equiv_pos_as_xyz
  1  'x, y, z'
loop_
 _atom_site_type_symbol
 _atom_site_label
 _atom_site_symmetry_multiplicity
 _atom_site_fract_x
 _atom_site_fract_y
 _atom_site_fract_z
 _atom_site_occupancy
  Pr  Pr0  1  0.27429514  0.49402914  0.86732956  1
  Pr  Pr1  1  0.72819214  0.50165692  0.13069647  1
  Pr  Pr2  1  0.77024492  0.00504540  0.87307369  1
  Pr  Pr3  1  0.23003675  0.93034203  0.12763474  1
  Mn  Mn4  1  0.29423404  0.43194729  0.60182575  1
  Mn  Mn5  1  0.70324086  0.53172653  0.36811886  1
  Mn  Mn6  1  0.99659711  0.00690852  0.00515917  1
  Mn  Mn7  1  0.80402040  0.05304697  0.63041918  1
  Mn  Mn8  1  0.20775201  0.05749781  0.38578641  1
  Mn  Mn9  1  0.50048075  0.49543284  0.00182066  1
  Sb  Sb10  1  0.87799100  0.87052731  0.44939256  1
  Sb  Sb11  1  0.10704406  0.98668575  0.54329075  1
  Sb  Sb12  1  0.03544721  0.49249184  0.82137329  1
  Sb  Sb13  1  0.96020477  0.47954847  0.19215969  1
  Sb  Sb14  1  0.40567187  0.56258704  0.46374216  1
  Sb  Sb15  1  0.60290348  0.58037161  0.53194994  1
  Sb  Sb16  1  0.52336828  0.95166642  0.80169945  1
  Sb  Sb17  1  0.46129001  0.00256069  0.18218753  1
  S  S18  1  0.93244074  0.00258563  0.80259798  1
  S  S19  1  0.06629828  0.00355825  0.21204663  1
  S  S20  1  0.41622614  0.98547592  0.98728422  1
  S  S21  1  0.57863625  0.97550429  0.01059078  1
  S  S22  1  0.16825691  0.91111859  0.89568872  1
  S  S23  1  0.81872277  0.02135596  0.10319937  1
  S  S24  1  0.10729477  0.45450490  0.65734095  1
  S  S25  1  0.90236215  0.45770932  0.34887228  1
  S  S26  1  0.73263487  0.05335904  0.30365155  1
  S  S27  1  0.25996131  0.94612880  0.68103647  1
  S  S28  1  0.16489869  0.48835255  0.44698585  1
  S  S29  1  0.81818956  0.53635706  0.55927047  1
  S  S30  1  0.43542803  0.47289197  0.79793655  1
  S  S31  1  0.56067096  0.50911522  0.18840166  1
  S  S32  1  0.91071577  0.50623587  0.98845273  1
  S  S33  1  0.07945643  0.47221836  0.02177021  1
  S  S34  1  0.65757357  0.49702088  0.87786686  1
  S  S35  1  0.33220057  0.43412598  0.10012722  1
  S  S36  1  0.59879300  0.99177547  0.64542815  1
  S  S37  1  0.40566704  0.01509779  0.34850677  1
  S  S38  1  0.24633632  0.52016250  0.32562807  1
  S  S39  1  0.76178109  0.47094643  0.69832892  1
  S  S40  1  0.67578163  0.95029030  0.44915092  1
  S  S41  1  0.33293789  0.95685752  0.55229913  1
