# generated using pymatgen
data_Pr2Mn3(SbS3)4
_symmetry_space_group_name_H-M   'P 1'
_cell_length_a   20.02960800
_cell_length_b   3.90410600
_cell_length_c   14.95364829
_cell_angle_alpha   90.00000000
_cell_angle_beta   126.33350609
_cell_angle_gamma   90.00000000
_symmetry_Int_Tables_number   1
_chemical_formula_structural   Pr2Mn3(SbS3)4
_chemical_formula_sum   'Pr4 Mn6 Sb8 S24'
_cell_volume   942.00006694
_cell_formula_units_Z   2
loop_
 _symmetry_equiv_pos_site_id
 _symmetry_equiv_pos_as_xyz
  1  'x, y, z'
loop_
 _atom_site_type_symbol
 _atom_site_label
 _atom_site_symmetry_multiplicity
 _atom_site_fract_x
 _atom_site_fract_y
 _atom_site_fract_z
 _atom_site_occupancy
  Pr  Pr0  1  0.26149879  0.49843127  0.86451850  1
  Pr  Pr1  1  0.73997052  0.49950508  0.13709100  1
  Pr  Pr2  1  0.76043380  0.00556108  0.86235399  1
  Pr  Pr3  1  0.24019590  0.99205897  0.13791469  1
  Mn  Mn4  1  0.29984098  0.50594062  0.62041227  1
  Mn  Mn5  1  0.69749348  0.50080449  0.37886156  1
  Mn  Mn6  1  0.00033887  0.99694984  0.00083884  1
  Mn  Mn7  1  0.80202903  0.99512519  0.61967336  1
  Mn  Mn8  1  0.19900755  0.99536616  0.37893172  1
  Mn  Mn9  1  0.49976665  0.48841388  0.00112582  1
  Sb  Sb10  1  0.89474659  0.00381801  0.45364569  1
  Sb  Sb11  1  0.10663130  0.99505932  0.54927852  1
  Sb  Sb12  1  0.03799987  0.49519182  0.81417580  1
  Sb  Sb13  1  0.96255936  0.49673496  0.18754480  1
  Sb  Sb14  1  0.39462401  0.49331997  0.45549903  1
  Sb  Sb15  1  0.60566259  0.49656109  0.54752855  1
  Sb  Sb16  1  0.53863511  0.99763538  0.81501248  1
  Sb  Sb17  1  0.46261335  0.99985761  0.18537487  1
  S  S18  1  0.93990277  0.99784644  0.79844810  1
  S  S19  1  0.05758087  0.99359311  0.19530692  1
  S  S20  1  0.40220564  0.98450090  0.98001862  1
  S  S21  1  0.59879708  0.99810580  0.01865195  1
  S  S22  1  0.16883198  0.99015287  0.89850528  1
  S  S23  1  0.82916022  0.00515666  0.10323680  1
  S  S24  1  0.08866836  0.49381628  0.64850902  1
  S  S25  1  0.91016976  0.49470122  0.34902916  1
  S  S26  1  0.74374730  0.98716417  0.29588640  1
  S  S27  1  0.25612405  0.00995528  0.70260214  1
  S  S28  1  0.15696833  0.49155830  0.44931258  1
  S  S29  1  0.83964843  0.50255165  0.54666837  1
  S  S30  1  0.44134945  0.49556297  0.79904909  1
  S  S31  1  0.56042096  0.49448142  0.19988582  1
  S  S32  1  0.90270594  0.49126853  0.97949082  1
  S  S33  1  0.09691275  0.49087990  0.02067642  1
  S  S34  1  0.66588492  0.50857337  0.89516109  1
  S  S35  1  0.33438171  0.49973717  0.10629416  1
  S  S36  1  0.58815960  0.01360334  0.64735223  1
  S  S37  1  0.41336212  0.99420383  0.35468164  1
  S  S38  1  0.24348696  0.48610011  0.29176506  1
  S  S39  1  0.76075298  0.49923536  0.70689744  1
  S  S40  1  0.65789924  0.99471347  0.45377056  1
  S  S41  1  0.34220049  0.99299709  0.54586678  1
