# generated using pymatgen
data_Pr2Mn3(SbS3)4
_symmetry_space_group_name_H-M   'P 1'
_cell_length_a   20.02960800
_cell_length_b   3.90410600
_cell_length_c   14.95364829
_cell_angle_alpha   90.00000000
_cell_angle_beta   126.33350609
_cell_angle_gamma   90.00000000
_symmetry_Int_Tables_number   1
_chemical_formula_structural   Pr2Mn3(SbS3)4
_chemical_formula_sum   'Pr4 Mn6 Sb8 S24'
_cell_volume   942.00006694
_cell_formula_units_Z   2
loop_
 _symmetry_equiv_pos_site_id
 _symmetry_equiv_pos_as_xyz
  1  'x, y, z'
loop_
 _atom_site_type_symbol
 _atom_site_label
 _atom_site_symmetry_multiplicity
 _atom_site_fract_x
 _atom_site_fract_y
 _atom_site_fract_z
 _atom_site_occupancy
  Pr  Pr0  1  0.26576753  0.47870345  0.86424580  1
  Pr  Pr1  1  0.73526417  0.51683229  0.13560424  1
  Pr  Pr2  1  0.76426358  0.01514749  0.86445768  1
  Pr  Pr3  1  0.23768733  0.00706081  0.13786856  1
  Mn  Mn4  1  0.29172025  0.47527152  0.59943943  1
  Mn  Mn5  1  0.69056088  0.50349979  0.37798033  1
  Mn  Mn6  1  0.00997530  0.99347705  0.01711896  1
  Mn  Mn7  1  0.80421481  0.01829155  0.61450109  1
  Mn  Mn8  1  0.19801140  0.97752803  0.37879233  1
  Mn  Mn9  1  0.49299682  0.46596285  0.98892394  1
  Sb  Sb10  1  0.89000055  0.98081903  0.44983202  1
  Sb  Sb11  1  0.11269844  0.97735943  0.54823522  1
  Sb  Sb12  1  0.03964530  0.51906660  0.82064497  1
  Sb  Sb13  1  0.96550747  0.50644353  0.18573837  1
  Sb  Sb14  1  0.39576811  0.51234279  0.45386537  1
  Sb  Sb15  1  0.60604563  0.47318301  0.54775408  1
  Sb  Sb16  1  0.53448028  0.00566456  0.81077271  1
  Sb  Sb17  1  0.46052685  0.01603758  0.18111279  1
  S  S18  1  0.93453190  0.99279744  0.80128046  1
  S  S19  1  0.06633715  0.98502347  0.19584360  1
  S  S20  1  0.40800157  0.98077453  0.98339415  1
  S  S21  1  0.58386793  0.98334695  0.01229585  1
  S  S22  1  0.16979575  0.01918780  0.89686101  1
  S  S23  1  0.82494975  0.03918544  0.09589606  1
  S  S24  1  0.09283871  0.47076590  0.64494350  1
  S  S25  1  0.91036033  0.46935215  0.35486716  1
  S  S26  1  0.74094656  0.94527337  0.30257300  1
  S  S27  1  0.26385894  0.00336401  0.71293796  1
  S  S28  1  0.16119435  0.47528938  0.43482467  1
  S  S29  1  0.82777239  0.48211984  0.54821158  1
  S  S30  1  0.43157790  0.49796219  0.79596745  1
  S  S31  1  0.56026020  0.50755373  0.18320430  1
  S  S32  1  0.91187034  0.49718610  0.98829952  1
  S  S33  1  0.08694372  0.46839131  0.02001158  1
  S  S34  1  0.66527505  0.50884760  0.88782400  1
  S  S35  1  0.32848304  0.53015677  0.09354282  1
  S  S36  1  0.59605569  0.98885194  0.65682263  1
  S  S37  1  0.40684762  0.98403505  0.35065319  1
  S  S38  1  0.24256384  0.44992165  0.30932958  1
  S  S39  1  0.76603618  0.50394100  0.70400195  1
  S  S40  1  0.67076574  0.03103805  0.45710242  1
  S  S41  1  0.32156994  0.97777451  0.54534044  1
