# generated using pymatgen
data_Pr2Mn3(SbS3)4
_symmetry_space_group_name_H-M   'P 1'
_cell_length_a   20.02960800
_cell_length_b   3.90410600
_cell_length_c   14.95364829
_cell_angle_alpha   90.00000000
_cell_angle_beta   126.33350609
_cell_angle_gamma   90.00000000
_symmetry_Int_Tables_number   1
_chemical_formula_structural   Pr2Mn3(SbS3)4
_chemical_formula_sum   'Pr4 Mn6 Sb8 S24'
_cell_volume   942.00006694
_cell_formula_units_Z   2
loop_
 _symmetry_equiv_pos_site_id
 _symmetry_equiv_pos_as_xyz
  1  'x, y, z'
loop_
 _atom_site_type_symbol
 _atom_site_label
 _atom_site_symmetry_multiplicity
 _atom_site_fract_x
 _atom_site_fract_y
 _atom_site_fract_z
 _atom_site_occupancy
  Pr  Pr0  1  0.27427847  0.49439000  0.86717962  1
  Pr  Pr1  1  0.72804042  0.50109146  0.13065237  1
  Pr  Pr2  1  0.77035798  0.00490171  0.87301384  1
  Pr  Pr3  1  0.23004859  0.93055141  0.12776424  1
  Mn  Mn4  1  0.29426661  0.43230366  0.60164010  1
  Mn  Mn5  1  0.70313194  0.53147055  0.36811510  1
  Mn  Mn6  1  0.99649638  0.00631598  0.00472532  1
  Mn  Mn7  1  0.80406792  0.05290994  0.63050924  1
  Mn  Mn8  1  0.20779831  0.05718487  0.38607847  1
  Mn  Mn9  1  0.50042302  0.49539081  0.00193395  1
  Sb  Sb10  1  0.87795134  0.87105166  0.44929729  1
  Sb  Sb11  1  0.10715279  0.98671039  0.54334597  1
  Sb  Sb12  1  0.03522223  0.49285950  0.82126596  1
  Sb  Sb13  1  0.96022230  0.47999122  0.19230464  1
  Sb  Sb14  1  0.40556811  0.56236262  0.46373683  1
  Sb  Sb15  1  0.60297566  0.58050428  0.53208271  1
  Sb  Sb16  1  0.52330526  0.95146144  0.80163236  1
  Sb  Sb17  1  0.46127443  0.00229659  0.18225869  1
  S  S18  1  0.93257102  0.00272307  0.80277481  1
  S  S19  1  0.06631705  0.00366296  0.21210537  1
  S  S20  1  0.41635545  0.98434562  0.98748332  1
  S  S21  1  0.57883232  0.97542481  0.01073397  1
  S  S22  1  0.16801929  0.91062808  0.89573154  1
  S  S23  1  0.81860053  0.01966406  0.10274232  1
  S  S24  1  0.10724819  0.45457651  0.65700239  1
  S  S25  1  0.90242945  0.45856733  0.34879989  1
  S  S26  1  0.73263120  0.05399286  0.30359744  1
  S  S27  1  0.25994667  0.94597686  0.68114695  1
  S  S28  1  0.16505655  0.48780359  0.44723269  1
  S  S29  1  0.81825491  0.53696445  0.55911488  1
  S  S30  1  0.43546468  0.47206090  0.79784335  1
  S  S31  1  0.56075018  0.50776249  0.18829171  1
  S  S32  1  0.91070353  0.50646974  0.98828973  1
  S  S33  1  0.07922025  0.47076185  0.02120776  1
  S  S34  1  0.65757728  0.49741718  0.87748069  1
  S  S35  1  0.33219946  0.43456635  0.09999041  1
  S  S36  1  0.59888886  0.99272707  0.64565544  1
  S  S37  1  0.40546562  0.01511473  0.34828990  1
  S  S38  1  0.24617301  0.52085865  0.32511208  1
  S  S39  1  0.76161057  0.46971324  0.69830190  1
  S  S40  1  0.67575614  0.95058801  0.44898536  1
  S  S41  1  0.33288375  0.95656401  0.55212700  1
