# generated using pymatgen
data_Pr2Mn3(SbS3)4
_symmetry_space_group_name_H-M   'P 1'
_cell_length_a   20.02960800
_cell_length_b   3.90410600
_cell_length_c   14.95364829
_cell_angle_alpha   90.00000000
_cell_angle_beta   126.33350609
_cell_angle_gamma   90.00000000
_symmetry_Int_Tables_number   1
_chemical_formula_structural   Pr2Mn3(SbS3)4
_chemical_formula_sum   'Pr4 Mn6 Sb8 S24'
_cell_volume   942.00006694
_cell_formula_units_Z   2
loop_
 _symmetry_equiv_pos_site_id
 _symmetry_equiv_pos_as_xyz
  1  'x, y, z'
loop_
 _atom_site_type_symbol
 _atom_site_label
 _atom_site_symmetry_multiplicity
 _atom_site_fract_x
 _atom_site_fract_y
 _atom_site_fract_z
 _atom_site_occupancy
  Pr  Pr0  1  0.27427400  0.49482695  0.86708237  1
  Pr  Pr1  1  0.72787115  0.50069772  0.13054705  1
  Pr  Pr2  1  0.77044245  0.00482446  0.87296169  1
  Pr  Pr3  1  0.23005582  0.93054492  0.12787556  1
  Mn  Mn4  1  0.29436761  0.43246781  0.60160142  1
  Mn  Mn5  1  0.70313553  0.53122085  0.36827424  1
  Mn  Mn6  1  0.99638144  0.00595560  0.00426819  1
  Mn  Mn7  1  0.80406454  0.05295568  0.63061979  1
  Mn  Mn8  1  0.20790265  0.05710761  0.38644271  1
  Mn  Mn9  1  0.50031591  0.49545759  0.00188350  1
  Sb  Sb10  1  0.87793682  0.87146478  0.44920389  1
  Sb  Sb11  1  0.10723228  0.98676924  0.54340899  1
  Sb  Sb12  1  0.03505500  0.49343520  0.82115621  1
  Sb  Sb13  1  0.96024440  0.48033161  0.19245106  1
  Sb  Sb14  1  0.40546896  0.56224723  0.46366432  1
  Sb  Sb15  1  0.60300353  0.58047640  0.53219085  1
  Sb  Sb16  1  0.52318354  0.95135880  0.80154570  1
  Sb  Sb17  1  0.46121220  0.00216077  0.18236002  1
  S  S18  1  0.93267735  0.00279332  0.80305306  1
  S  S19  1  0.06639853  0.00327285  0.21225860  1
  S  S20  1  0.41635854  0.98309823  0.98759263  1
  S  S21  1  0.57887510  0.97547515  0.01068484  1
  S  S22  1  0.16765257  0.90989257  0.89579198  1
  S  S23  1  0.81849919  0.01847935  0.10240476  1
  S  S24  1  0.10719957  0.45454310  0.65670359  1
  S  S25  1  0.90246099  0.45934495  0.34874990  1
  S  S26  1  0.73272078  0.05447466  0.30365937  1
  S  S27  1  0.26002623  0.94593716  0.68131165  1
  S  S28  1  0.16510868  0.48702642  0.44725150  1
  S  S29  1  0.81838753  0.53722558  0.55913380  1
  S  S30  1  0.43545594  0.47108909  0.79777264  1
  S  S31  1  0.56082806  0.50675209  0.18819916  1
  S  S32  1  0.91074261  0.50676665  0.98826662  1
  S  S33  1  0.07899398  0.46955978  0.02080259  1
  S  S34  1  0.65754432  0.49755979  0.87706854  1
  S  S35  1  0.33216982  0.43475065  0.09988045  1
  S  S36  1  0.59911058  0.99348091  0.64616392  1
  S  S37  1  0.40528140  0.01518733  0.34813488  1
  S  S38  1  0.24599530  0.52106993  0.32474584  1
  S  S39  1  0.76137729  0.46829553  0.69814947  1
  S  S40  1  0.67558863  0.95103632  0.44874294  1
  S  S41  1  0.33285564  0.95672862  0.55196009  1
