# generated using pymatgen
data_Pr2Mn3(SbS3)4
_symmetry_space_group_name_H-M   'P 1'
_cell_length_a   20.02960800
_cell_length_b   3.90410600
_cell_length_c   14.95364829
_cell_angle_alpha   90.00000000
_cell_angle_beta   126.33350609
_cell_angle_gamma   90.00000000
_symmetry_Int_Tables_number   1
_chemical_formula_structural   Pr2Mn3(SbS3)4
_chemical_formula_sum   'Pr4 Mn6 Sb8 S24'
_cell_volume   942.00006694
_cell_formula_units_Z   2
loop_
 _symmetry_equiv_pos_site_id
 _symmetry_equiv_pos_as_xyz
  1  'x, y, z'
loop_
 _atom_site_type_symbol
 _atom_site_label
 _atom_site_symmetry_multiplicity
 _atom_site_fract_x
 _atom_site_fract_y
 _atom_site_fract_z
 _atom_site_occupancy
  Pr  Pr0  1  0.27424458  0.49520924  0.86695392  1
  Pr  Pr1  1  0.72777292  0.50056088  0.13047408  1
  Pr  Pr2  1  0.77051729  0.00483733  0.87287117  1
  Pr  Pr3  1  0.23008186  0.93070327  0.12792686  1
  Mn  Mn4  1  0.29448620  0.43222020  0.60153294  1
  Mn  Mn5  1  0.70317665  0.53090341  0.36841768  1
  Mn  Mn6  1  0.99624542  0.00614027  0.00379169  1
  Mn  Mn7  1  0.80406838  0.05306577  0.63078340  1
  Mn  Mn8  1  0.20804797  0.05725867  0.38679286  1
  Mn  Mn9  1  0.50018225  0.49606987  0.00182858  1
  Sb  Sb10  1  0.87789813  0.87194040  0.44911413  1
  Sb  Sb11  1  0.10734295  0.98700630  0.54346430  1
  Sb  Sb12  1  0.03496246  0.49378938  0.82109171  1
  Sb  Sb13  1  0.96025852  0.48075547  0.19254882  1
  Sb  Sb14  1  0.40534308  0.56220750  0.46356152  1
  Sb  Sb15  1  0.60303448  0.58037012  0.53220619  1
  Sb  Sb16  1  0.52305344  0.95130523  0.80142841  1
  Sb  Sb17  1  0.46109903  0.00209533  0.18250108  1
  S  S18  1  0.93273704  0.00272314  0.80328379  1
  S  S19  1  0.06640547  0.00283504  0.21229402  1
  S  S20  1  0.41640561  0.98172338  0.98777518  1
  S  S21  1  0.57889539  0.97544901  0.01054425  1
  S  S22  1  0.16741603  0.90888218  0.89575595  1
  S  S23  1  0.81833758  0.01779667  0.10206390  1
  S  S24  1  0.10732794  0.45457071  0.65648437  1
  S  S25  1  0.90238117  0.46042342  0.34866020  1
  S  S26  1  0.73279346  0.05465321  0.30369119  1
  S  S27  1  0.26014096  0.94624948  0.68147832  1
  S  S28  1  0.16512987  0.48607882  0.44719106  1
  S  S29  1  0.81845340  0.53744243  0.55906533  1
  S  S30  1  0.43536792  0.47070903  0.79767823  1
  S  S31  1  0.56077275  0.50563758  0.18818379  1
  S  S32  1  0.91064573  0.50717301  0.98817741  1
  S  S33  1  0.07896190  0.46839476  0.02048323  1
  S  S34  1  0.65758657  0.49741867  0.87668076  1
  S  S35  1  0.33212339  0.43471059  0.09976102  1
  S  S36  1  0.59941899  0.99441109  0.64673412  1
  S  S37  1  0.40514533  0.01495013  0.34801475  1
  S  S38  1  0.24587995  0.52137758  0.32441937  1
  S  S39  1  0.76115066  0.46652195  0.69798966  1
  S  S40  1  0.67535676  0.95154392  0.44854622  1
  S  S41  1  0.33286394  0.95728101  0.55185332  1
