# generated using pymatgen
data_Pr2Mn3(SbS3)4
_symmetry_space_group_name_H-M   'P 1'
_cell_length_a   20.02960800
_cell_length_b   3.90410600
_cell_length_c   14.95364829
_cell_angle_alpha   90.00000000
_cell_angle_beta   126.33350609
_cell_angle_gamma   90.00000000
_symmetry_Int_Tables_number   1
_chemical_formula_structural   Pr2Mn3(SbS3)4
_chemical_formula_sum   'Pr4 Mn6 Sb8 S24'
_cell_volume   942.00006694
_cell_formula_units_Z   2
loop_
 _symmetry_equiv_pos_site_id
 _symmetry_equiv_pos_as_xyz
  1  'x, y, z'
loop_
 _atom_site_type_symbol
 _atom_site_label
 _atom_site_symmetry_multiplicity
 _atom_site_fract_x
 _atom_site_fract_y
 _atom_site_fract_z
 _atom_site_occupancy
  Pr  Pr0  1  0.27421497  0.49533441  0.86679519  1
  Pr  Pr1  1  0.72765045  0.50036097  0.13043471  1
  Pr  Pr2  1  0.77060171  0.00479298  0.87280948  1
  Pr  Pr3  1  0.23008093  0.93071989  0.12798061  1
  Mn  Mn4  1  0.29460115  0.43205015  0.60157876  1
  Mn  Mn5  1  0.70317693  0.53058098  0.36845879  1
  Mn  Mn6  1  0.99606665  0.00618023  0.00328963  1
  Mn  Mn7  1  0.80401728  0.05329031  0.63087502  1
  Mn  Mn8  1  0.20825969  0.05764127  0.38711246  1
  Mn  Mn9  1  0.50009694  0.49694027  0.00179129  1
  Sb  Sb10  1  0.87789994  0.87223087  0.44906974  1
  Sb  Sb11  1  0.10743844  0.98706131  0.54353482  1
  Sb  Sb12  1  0.03484945  0.49412460  0.82099138  1
  Sb  Sb13  1  0.96030320  0.48096715  0.19271940  1
  Sb  Sb14  1  0.40526682  0.56206810  0.46354633  1
  Sb  Sb15  1  0.60311156  0.58012806  0.53227170  1
  Sb  Sb16  1  0.52286579  0.95120388  0.80130753  1
  Sb  Sb17  1  0.46104080  0.00214396  0.18259711  1
  S  S18  1  0.93283479  0.00255297  0.80367551  1
  S  S19  1  0.06656900  0.00225960  0.21238681  1
  S  S20  1  0.41635464  0.98094602  0.98782796  1
  S  S21  1  0.57898768  0.97524136  0.01050428  1
  S  S22  1  0.16728057  0.90826376  0.89593180  1
  S  S23  1  0.81821680  0.01733163  0.10188187  1
  S  S24  1  0.10761884  0.45508248  0.65640120  1
  S  S25  1  0.90229687  0.46160969  0.34849210  1
  S  S26  1  0.73302213  0.05514705  0.30387562  1
  S  S27  1  0.26021867  0.94650617  0.68166211  1
  S  S28  1  0.16516613  0.48531737  0.44707454  1
  S  S29  1  0.81846531  0.53804923  0.55905929  1
  S  S30  1  0.43523690  0.46997032  0.79769971  1
  S  S31  1  0.56079299  0.50466640  0.18834919  1
  S  S32  1  0.91048115  0.50736929  0.98805817  1
  S  S33  1  0.07891541  0.46736476  0.02017066  1
  S  S34  1  0.65761555  0.49711135  0.87628185  1
  S  S35  1  0.33205709  0.43495636  0.09961367  1
  S  S36  1  0.59972843  0.99583910  0.64742511  1
  S  S37  1  0.40504823  0.01482498  0.34793525  1
  S  S38  1  0.24588774  0.52161267  0.32436573  1
  S  S39  1  0.76088898  0.46438464  0.69776478  1
  S  S40  1  0.67518895  0.95230528  0.44836480  1
  S  S41  1  0.33285465  0.95785103  0.55178426  1
