# generated using pymatgen
data_Pr2Mn3(SbS3)4
_symmetry_space_group_name_H-M   'P 1'
_cell_length_a   20.02960800
_cell_length_b   3.90410600
_cell_length_c   14.95364829
_cell_angle_alpha   90.00000000
_cell_angle_beta   126.33350609
_cell_angle_gamma   90.00000000
_symmetry_Int_Tables_number   1
_chemical_formula_structural   Pr2Mn3(SbS3)4
_chemical_formula_sum   'Pr4 Mn6 Sb8 S24'
_cell_volume   942.00006694
_cell_formula_units_Z   2
loop_
 _symmetry_equiv_pos_site_id
 _symmetry_equiv_pos_as_xyz
  1  'x, y, z'
loop_
 _atom_site_type_symbol
 _atom_site_label
 _atom_site_symmetry_multiplicity
 _atom_site_fract_x
 _atom_site_fract_y
 _atom_site_fract_z
 _atom_site_occupancy
  Pr  Pr0  1  0.27413731  0.49564890  0.86659249  1
  Pr  Pr1  1  0.72758827  0.50017018  0.13044058  1
  Pr  Pr2  1  0.77069816  0.00472874  0.87280405  1
  Pr  Pr3  1  0.23011118  0.93052724  0.12803620  1
  Mn  Mn4  1  0.29480114  0.43220704  0.60165610  1
  Mn  Mn5  1  0.70318143  0.53039464  0.36856459  1
  Mn  Mn6  1  0.99580238  0.00597982  0.00268855  1
  Mn  Mn7  1  0.80398064  0.05343891  0.63098215  1
  Mn  Mn8  1  0.20840667  0.05806507  0.38746385  1
  Mn  Mn9  1  0.50004002  0.49758688  0.00182604  1
  Sb  Sb10  1  0.87789822  0.87236285  0.44903717  1
  Sb  Sb11  1  0.10749103  0.98717810  0.54359171  1
  Sb  Sb12  1  0.03480293  0.49456015  0.82096787  1
  Sb  Sb13  1  0.96037716  0.48093839  0.19284297  1
  Sb  Sb14  1  0.40531617  0.56191617  0.46368038  1
  Sb  Sb15  1  0.60320317  0.58002141  0.53240069  1
  Sb  Sb16  1  0.52265125  0.95130154  0.80114304  1
  Sb  Sb17  1  0.46102747  0.00198533  0.18270719  1
  S  S18  1  0.93290184  0.00219367  0.80393856  1
  S  S19  1  0.06667992  0.00167164  0.21251283  1
  S  S20  1  0.41626736  0.97955059  0.98793984  1
  S  S21  1  0.57903892  0.97477033  0.01031346  1
  S  S22  1  0.16725301  0.90791773  0.89621714  1
  S  S23  1  0.81823447  0.01711440  0.10199623  1
  S  S24  1  0.10786299  0.45562489  0.65637686  1
  S  S25  1  0.90229220  0.46286843  0.34849251  1
  S  S26  1  0.73318608  0.05563663  0.30396288  1
  S  S27  1  0.26030164  0.94687510  0.68169369  1
  S  S28  1  0.16512643  0.48464780  0.44688600  1
  S  S29  1  0.81854920  0.53824591  0.55909588  1
  S  S30  1  0.43504971  0.46955461  0.79760686  1
  S  S31  1  0.56075871  0.50353321  0.18852414  1
  S  S32  1  0.91034409  0.50732097  0.98793245  1
  S  S33  1  0.07892099  0.46628941  0.02002831  1
  S  S34  1  0.65767702  0.49670545  0.87597791  1
  S  S35  1  0.33204361  0.43518525  0.09934046  1
  S  S36  1  0.59989261  0.99738644  0.64795284  1
  S  S37  1  0.40495950  0.01446587  0.34788560  1
  S  S38  1  0.24595019  0.52204762  0.32430901  1
  S  S39  1  0.76061514  0.46216272  0.69758010  1
  S  S40  1  0.67496316  0.95304342  0.44822365  1
  S  S41  1  0.33295709  0.95847515  0.55198679  1
