# generated using pymatgen
data_Pr2Mn3(SbS3)4
_symmetry_space_group_name_H-M   'P 1'
_cell_length_a   20.02960800
_cell_length_b   3.90410600
_cell_length_c   14.95364829
_cell_angle_alpha   90.00000000
_cell_angle_beta   126.33350609
_cell_angle_gamma   90.00000000
_symmetry_Int_Tables_number   1
_chemical_formula_structural   Pr2Mn3(SbS3)4
_chemical_formula_sum   'Pr4 Mn6 Sb8 S24'
_cell_volume   942.00006694
_cell_formula_units_Z   2
loop_
 _symmetry_equiv_pos_site_id
 _symmetry_equiv_pos_as_xyz
  1  'x, y, z'
loop_
 _atom_site_type_symbol
 _atom_site_label
 _atom_site_symmetry_multiplicity
 _atom_site_fract_x
 _atom_site_fract_y
 _atom_site_fract_z
 _atom_site_occupancy
  Pr  Pr0  1  0.27408492  0.49593965  0.86643439  1
  Pr  Pr1  1  0.72755573  0.50004694  0.13043334  1
  Pr  Pr2  1  0.77077044  0.00483752  0.87280665  1
  Pr  Pr3  1  0.23011993  0.93059070  0.12802950  1
  Mn  Mn4  1  0.29505424  0.43243806  0.60173248  1
  Mn  Mn5  1  0.70317324  0.53021860  0.36867926  1
  Mn  Mn6  1  0.99554800  0.00535857  0.00218076  1
  Mn  Mn7  1  0.80394055  0.05348480  0.63102025  1
  Mn  Mn8  1  0.20856104  0.05824093  0.38779063  1
  Mn  Mn9  1  0.50002112  0.49837375  0.00195025  1
  Sb  Sb10  1  0.87790110  0.87252066  0.44901811  1
  Sb  Sb11  1  0.10757027  0.98731255  0.54362494  1
  Sb  Sb12  1  0.03470835  0.49493266  0.82094569  1
  Sb  Sb13  1  0.96043680  0.48085086  0.19291501  1
  Sb  Sb14  1  0.40535968  0.56172796  0.46382610  1
  Sb  Sb15  1  0.60327792  0.57996495  0.53246441  1
  Sb  Sb16  1  0.52241611  0.95126627  0.80098650  1
  Sb  Sb17  1  0.46106538  0.00169991  0.18285752  1
  S  S18  1  0.93299823  0.00223061  0.80408151  1
  S  S19  1  0.06687778  0.00205255  0.21277981  1
  S  S20  1  0.41622174  0.97797021  0.98801195  1
  S  S21  1  0.57909424  0.97487549  0.01021544  1
  S  S22  1  0.16726424  0.90777216  0.89655648  1
  S  S23  1  0.81822716  0.01708845  0.10218172  1
  S  S24  1  0.10813387  0.45592381  0.65631288  1
  S  S25  1  0.90228744  0.46384940  0.34847842  1
  S  S26  1  0.73335125  0.05593849  0.30404079  1
  S  S27  1  0.26037039  0.94693367  0.68168760  1
  S  S28  1  0.16512299  0.48419209  0.44679078  1
  S  S29  1  0.81864970  0.53817820  0.55916192  1
  S  S30  1  0.43493630  0.46928887  0.79751296  1
  S  S31  1  0.56075174  0.50224411  0.18862700  1
  S  S32  1  0.91027168  0.50757938  0.98790577  1
  S  S33  1  0.07888741  0.46599238  0.02000952  1
  S  S34  1  0.65781911  0.49629589  0.87586667  1
  S  S35  1  0.33218219  0.43502900  0.09929029  1
  S  S36  1  0.60008525  0.99893341  0.64843776  1
  S  S37  1  0.40495893  0.01392300  0.34794824  1
  S  S38  1  0.24597816  0.52225680  0.32427685  1
  S  S39  1  0.76032134  0.45970075  0.69735545  1
  S  S40  1  0.67476352  0.95423115  0.44822111  1
  S  S41  1  0.33294732  0.95834147  0.55202921  1
