# generated using pymatgen
data_Pr2Mn3(SbS3)4
_symmetry_space_group_name_H-M   'P 1'
_cell_length_a   20.02960800
_cell_length_b   3.90410600
_cell_length_c   14.95364829
_cell_angle_alpha   90.00000000
_cell_angle_beta   126.33350609
_cell_angle_gamma   90.00000000
_symmetry_Int_Tables_number   1
_chemical_formula_structural   Pr2Mn3(SbS3)4
_chemical_formula_sum   'Pr4 Mn6 Sb8 S24'
_cell_volume   942.00006694
_cell_formula_units_Z   2
loop_
 _symmetry_equiv_pos_site_id
 _symmetry_equiv_pos_as_xyz
  1  'x, y, z'
loop_
 _atom_site_type_symbol
 _atom_site_label
 _atom_site_symmetry_multiplicity
 _atom_site_fract_x
 _atom_site_fract_y
 _atom_site_fract_z
 _atom_site_occupancy
  Pr  Pr0  1  0.27399916  0.49618691  0.86630619  1
  Pr  Pr1  1  0.72749170  0.49995235  0.13041410  1
  Pr  Pr2  1  0.77083204  0.00498782  0.87282890  1
  Pr  Pr3  1  0.23014064  0.93053737  0.12800693  1
  Mn  Mn4  1  0.29534241  0.43272562  0.60183857  1
  Mn  Mn5  1  0.70319358  0.53006457  0.36880594  1
  Mn  Mn6  1  0.99521527  0.00467969  0.00160773  1
  Mn  Mn7  1  0.80383922  0.05346873  0.63104623  1
  Mn  Mn8  1  0.20872641  0.05822199  0.38803787  1
  Mn  Mn9  1  0.50000779  0.49893815  0.00209396  1
  Sb  Sb10  1  0.87788435  0.87269249  0.44889969  1
  Sb  Sb11  1  0.10768911  0.98745802  0.54368727  1
  Sb  Sb12  1  0.03461520  0.49538431  0.82099357  1
  Sb  Sb13  1  0.96047922  0.48060787  0.19287310  1
  Sb  Sb14  1  0.40535750  0.56190329  0.46395901  1
  Sb  Sb15  1  0.60338669  0.58003831  0.53254719  1
  Sb  Sb16  1  0.52223396  0.95127327  0.80089232  1
  Sb  Sb17  1  0.46112107  0.00124006  0.18298382  1
  S  S18  1  0.93305923  0.00232274  0.80414114  1
  S  S19  1  0.06698653  0.00267904  0.21285964  1
  S  S20  1  0.41617805  0.97652040  0.98801585  1
  S  S21  1  0.57908615  0.97536995  0.01005834  1
  S  S22  1  0.16739789  0.90707458  0.89708061  1
  S  S23  1  0.81817159  0.01750508  0.10233964  1
  S  S24  1  0.10834763  0.45706183  0.65625064  1
  S  S25  1  0.90229547  0.46463823  0.34860311  1
  S  S26  1  0.73342202  0.05611896  0.30428473  1
  S  S27  1  0.26035271  0.94712109  0.68173988  1
  S  S28  1  0.16509258  0.48410380  0.44660899  1
  S  S29  1  0.81869373  0.53865401  0.55915525  1
  S  S30  1  0.43480378  0.46927835  0.79743594  1
  S  S31  1  0.56088209  0.50165909  0.18880092  1
  S  S32  1  0.91007638  0.50764291  0.98765647  1
  S  S33  1  0.07895062  0.46538101  0.01995322  1
  S  S34  1  0.65778531  0.49534662  0.87567914  1
  S  S35  1  0.33220189  0.43463472  0.09917893  1
  S  S36  1  0.60033279  0.00075068  0.64902606  1
  S  S37  1  0.40492874  0.01322768  0.34801603  1
  S  S38  1  0.24591143  0.52224209  0.32422382  1
  S  S39  1  0.75992604  0.45779512  0.69706492  1
  S  S40  1  0.67448293  0.95578208  0.44817031  1
  S  S41  1  0.33288597  0.95863442  0.55205217  1
