# generated using pymatgen
data_Pr2Mn3(SbS3)4
_symmetry_space_group_name_H-M   'P 1'
_cell_length_a   20.02960800
_cell_length_b   3.90410600
_cell_length_c   14.95364829
_cell_angle_alpha   90.00000000
_cell_angle_beta   126.33350609
_cell_angle_gamma   90.00000000
_symmetry_Int_Tables_number   1
_chemical_formula_structural   Pr2Mn3(SbS3)4
_chemical_formula_sum   'Pr4 Mn6 Sb8 S24'
_cell_volume   942.00006694
_cell_formula_units_Z   2
loop_
 _symmetry_equiv_pos_site_id
 _symmetry_equiv_pos_as_xyz
  1  'x, y, z'
loop_
 _atom_site_type_symbol
 _atom_site_label
 _atom_site_symmetry_multiplicity
 _atom_site_fract_x
 _atom_site_fract_y
 _atom_site_fract_z
 _atom_site_occupancy
  Pr  Pr0  1  0.27394583  0.49634149  0.86621413  1
  Pr  Pr1  1  0.72742093  0.50014459  0.13040757  1
  Pr  Pr2  1  0.77085215  0.00509450  0.87280424  1
  Pr  Pr3  1  0.23019197  0.93085333  0.12800844  1
  Mn  Mn4  1  0.29562115  0.43312240  0.60186948  1
  Mn  Mn5  1  0.70312881  0.52990393  0.36894525  1
  Mn  Mn6  1  0.99489805  0.00376887  0.00105056  1
  Mn  Mn7  1  0.80384296  0.05345425  0.63117298  1
  Mn  Mn8  1  0.20884370  0.05847643  0.38825444  1
  Mn  Mn9  1  0.50014378  0.49923784  0.00233726  1
  Sb  Sb10  1  0.87784461  0.87309153  0.44886699  1
  Sb  Sb11  1  0.10785614  0.98751520  0.54381892  1
  Sb  Sb12  1  0.03453732  0.49592662  0.82107160  1
  Sb  Sb13  1  0.96049996  0.48034364  0.19278958  1
  Sb  Sb14  1  0.40540324  0.56228750  0.46407132  1
  Sb  Sb15  1  0.60347763  0.58012026  0.53267634  1
  Sb  Sb16  1  0.52205278  0.95113001  0.80079503  1
  Sb  Sb17  1  0.46118552  0.00083391  0.18314823  1
  S  S18  1  0.93309521  0.00237497  0.80413898  1
  S  S19  1  0.06706690  0.00340802  0.21288933  1
  S  S20  1  0.41614150  0.97492204  0.98784309  1
  S  S21  1  0.57907853  0.97603727  0.01008740  1
  S  S22  1  0.16752170  0.90631304  0.89760219  1
  S  S23  1  0.81821108  0.01745978  0.10248770  1
  S  S24  1  0.10840570  0.45825032  0.65623622  1
  S  S25  1  0.90231356  0.46587821  0.34879711  1
  S  S26  1  0.73338205  0.05573595  0.30445213  1
  S  S27  1  0.26035075  0.94721306  0.68164416  1
  S  S28  1  0.16507363  0.48429461  0.44649366  1
  S  S29  1  0.81877643  0.53953149  0.55903448  1
  S  S30  1  0.43468306  0.46947729  0.79744866  1
  S  S31  1  0.56105241  0.50113919  0.18893871  1
  S  S32  1  0.90983739  0.50790221  0.98741760  1
  S  S33  1  0.07899444  0.46443265  0.01987125  1
  S  S34  1  0.65768906  0.49464853  0.87550805  1
  S  S35  1  0.33212857  0.43428438  0.09907946  1
  S  S36  1  0.60061275  0.00283286  0.64969280  1
  S  S37  1  0.40495874  0.01295990  0.34808720  1
  S  S38  1  0.24585213  0.52242835  0.32422856  1
  S  S39  1  0.75968065  0.45604856  0.69689345  1
  S  S40  1  0.67413114  0.95759188  0.44792132  1
  S  S41  1  0.33284747  0.95915056  0.55199684  1
