# generated using pymatgen
data_Pr2Mn3(SbS3)4
_symmetry_space_group_name_H-M   'P 1'
_cell_length_a   20.02960800
_cell_length_b   3.90410600
_cell_length_c   14.95364829
_cell_angle_alpha   90.00000000
_cell_angle_beta   126.33350609
_cell_angle_gamma   90.00000000
_symmetry_Int_Tables_number   1
_chemical_formula_structural   Pr2Mn3(SbS3)4
_chemical_formula_sum   'Pr4 Mn6 Sb8 S24'
_cell_volume   942.00006694
_cell_formula_units_Z   2
loop_
 _symmetry_equiv_pos_site_id
 _symmetry_equiv_pos_as_xyz
  1  'x, y, z'
loop_
 _atom_site_type_symbol
 _atom_site_label
 _atom_site_symmetry_multiplicity
 _atom_site_fract_x
 _atom_site_fract_y
 _atom_site_fract_z
 _atom_site_occupancy
  Pr  Pr0  1  0.27386949  0.49661425  0.86617259  1
  Pr  Pr1  1  0.72740292  0.50019325  0.13040457  1
  Pr  Pr2  1  0.77093533  0.00519736  0.87283866  1
  Pr  Pr3  1  0.23030293  0.93127431  0.12802953  1
  Mn  Mn4  1  0.29602363  0.43352979  0.60206079  1
  Mn  Mn5  1  0.70303456  0.52986632  0.36904311  1
  Mn  Mn6  1  0.99462878  0.00297378  0.00057638  1
  Mn  Mn7  1  0.80387182  0.05350431  0.63131476  1
  Mn  Mn8  1  0.20885942  0.05841868  0.38839870  1
  Mn  Mn9  1  0.50025343  0.49940655  0.00270843  1
  Sb  Sb10  1  0.87783678  0.87343910  0.44883524  1
  Sb  Sb11  1  0.10800050  0.98769492  0.54392806  1
  Sb  Sb12  1  0.03452448  0.49671643  0.82116080  1
  Sb  Sb13  1  0.96048906  0.48012377  0.19264177  1
  Sb  Sb14  1  0.40548858  0.56297224  0.46421140  1
  Sb  Sb15  1  0.60353619  0.58002695  0.53276690  1
  Sb  Sb16  1  0.52188346  0.95090967  0.80069350  1
  Sb  Sb17  1  0.46119335  0.00047279  0.18329000  1
  S  S18  1  0.93316679  0.00220782  0.80424178  1
  S  S19  1  0.06711763  0.00416933  0.21289343  1
  S  S20  1  0.41619857  0.97371561  0.98784129  1
  S  S21  1  0.57906400  0.97624191  0.01012545  1
  S  S22  1  0.16769358  0.90616029  0.89807937  1
  S  S23  1  0.81837727  0.01762385  0.10266394  1
  S  S24  1  0.10838420  0.45907396  0.65623970  1
  S  S25  1  0.90231443  0.46706506  0.34887282  1
  S  S26  1  0.73341092  0.05520906  0.30464942  1
  S  S27  1  0.26037960  0.94734867  0.68163232  1
  S  S28  1  0.16516384  0.48425255  0.44644729  1
  S  S29  1  0.81887808  0.53998873  0.55881010  1
  S  S30  1  0.43464058  0.46937451  0.79741936  1
  S  S31  1  0.56122147  0.50036131  0.18908546  1
  S  S32  1  0.90961854  0.50768493  0.98713560  1
  S  S33  1  0.07915205  0.46333702  0.01971426  1
  S  S34  1  0.65759839  0.49394665  0.87524109  1
  S  S35  1  0.33200921  0.43358628  0.09892040  1
  S  S36  1  0.60092533  0.00416987  0.65040626  1
  S  S37  1  0.40509321  0.01274930  0.34826155  1
  S  S38  1  0.24586923  0.52256137  0.32433814  1
  S  S39  1  0.75947331  0.45474978  0.69671906  1
  S  S40  1  0.67386648  0.95923909  0.44778180  1
  S  S41  1  0.33283334  0.95942670  0.55192688  1
