# generated using pymatgen
data_Pr2Mn3(SbS3)4
_symmetry_space_group_name_H-M   'P 1'
_cell_length_a   20.02960800
_cell_length_b   3.90410600
_cell_length_c   14.95364829
_cell_angle_alpha   90.00000000
_cell_angle_beta   126.33350609
_cell_angle_gamma   90.00000000
_symmetry_Int_Tables_number   1
_chemical_formula_structural   Pr2Mn3(SbS3)4
_chemical_formula_sum   'Pr4 Mn6 Sb8 S24'
_cell_volume   942.00006694
_cell_formula_units_Z   2
loop_
 _symmetry_equiv_pos_site_id
 _symmetry_equiv_pos_as_xyz
  1  'x, y, z'
loop_
 _atom_site_type_symbol
 _atom_site_label
 _atom_site_symmetry_multiplicity
 _atom_site_fract_x
 _atom_site_fract_y
 _atom_site_fract_z
 _atom_site_occupancy
  Pr  Pr0  1  0.27376490  0.49686420  0.86614944  1
  Pr  Pr1  1  0.72736213  0.50020904  0.13031654  1
  Pr  Pr2  1  0.77102696  0.00549363  0.87290409  1
  Pr  Pr3  1  0.23044473  0.93172043  0.12806999  1
  Mn  Mn4  1  0.29647484  0.43390221  0.60231429  1
  Mn  Mn5  1  0.70295883  0.52990898  0.36921276  1
  Mn  Mn6  1  0.99444673  0.00234663  0.00011229  1
  Mn  Mn7  1  0.80384223  0.05341456  0.63135069  1
  Mn  Mn8  1  0.20887109  0.05836960  0.38847645  1
  Mn  Mn9  1  0.50036558  0.49968207  0.00300262  1
  Sb  Sb10  1  0.87790809  0.87378888  0.44898042  1
  Sb  Sb11  1  0.10813065  0.98795458  0.54403223  1
  Sb  Sb12  1  0.03449977  0.49734697  0.82116776  1
  Sb  Sb13  1  0.96053048  0.47993118  0.19255942  1
  Sb  Sb14  1  0.40559879  0.56384214  0.46441160  1
  Sb  Sb15  1  0.60364523  0.57982561  0.53293579  1
  Sb  Sb16  1  0.52178782  0.95077750  0.80067994  1
  Sb  Sb17  1  0.46125419  0.00024989  0.18353622  1
  S  S18  1  0.93315818  0.00248737  0.80420748  1
  S  S19  1  0.06722617  0.00554793  0.21298390  1
  S  S20  1  0.41620931  0.97266921  0.98792298  1
  S  S21  1  0.57904171  0.97597876  0.01025649  1
  S  S22  1  0.16781538  0.90598015  0.89848667  1
  S  S23  1  0.81839567  0.01850681  0.10254206  1
  S  S24  1  0.10838994  0.45921151  0.65640244  1
  S  S25  1  0.90224255  0.46794256  0.34881726  1
  S  S26  1  0.73334322  0.05435986  0.30477745  1
  S  S27  1  0.26041466  0.94705894  0.68157055  1
  S  S28  1  0.16534567  0.48387563  0.44645644  1
  S  S29  1  0.81900932  0.54069730  0.55856717  1
  S  S30  1  0.43450949  0.46896080  0.79743252  1
  S  S31  1  0.56137200  0.49953207  0.18920102  1
  S  S32  1  0.90948141  0.50721194  0.98689828  1
  S  S33  1  0.07936366  0.46235691  0.01970263  1
  S  S34  1  0.65740047  0.49361482  0.87498703  1
  S  S35  1  0.33197786  0.43317856  0.09879827  1
  S  S36  1  0.60112265  0.00530504  0.65097313  1
  S  S37  1  0.40518293  0.01241818  0.34829046  1
  S  S38  1  0.24581885  0.52275336  0.32430334  1
  S  S39  1  0.75925557  0.45394020  0.69655313  1
  S  S40  1  0.67374524  0.96028169  0.44776387  1
  S  S41  1  0.33270116  0.95979026  0.55195235  1
