# generated using pymatgen
data_Pr2Mn3(SbS3)4
_symmetry_space_group_name_H-M   'P 1'
_cell_length_a   20.02960800
_cell_length_b   3.90410600
_cell_length_c   14.95364829
_cell_angle_alpha   90.00000000
_cell_angle_beta   126.33350609
_cell_angle_gamma   90.00000000
_symmetry_Int_Tables_number   1
_chemical_formula_structural   Pr2Mn3(SbS3)4
_chemical_formula_sum   'Pr4 Mn6 Sb8 S24'
_cell_volume   942.00006694
_cell_formula_units_Z   2
loop_
 _symmetry_equiv_pos_site_id
 _symmetry_equiv_pos_as_xyz
  1  'x, y, z'
loop_
 _atom_site_type_symbol
 _atom_site_label
 _atom_site_symmetry_multiplicity
 _atom_site_fract_x
 _atom_site_fract_y
 _atom_site_fract_z
 _atom_site_occupancy
  Pr  Pr0  1  0.26576089  0.47895694  0.86412379  1
  Pr  Pr1  1  0.73530850  0.51658301  0.13564823  1
  Pr  Pr2  1  0.76412929  0.01550079  0.86424877  1
  Pr  Pr3  1  0.23753514  0.00716053  0.13771616  1
  Mn  Mn4  1  0.29150209  0.47509886  0.59932634  1
  Mn  Mn5  1  0.69057350  0.50282148  0.37768046  1
  Mn  Mn6  1  0.00977333  0.99246525  0.01695875  1
  Mn  Mn7  1  0.80428713  0.01792889  0.61471058  1
  Mn  Mn8  1  0.19795705  0.97791473  0.37866727  1
  Mn  Mn9  1  0.49283543  0.46650388  0.98876007  1
  Sb  Sb10  1  0.89005468  0.98078917  0.44986338  1
  Sb  Sb11  1  0.11266860  0.97754686  0.54816649  1
  Sb  Sb12  1  0.03970269  0.51894603  0.82087861  1
  Sb  Sb13  1  0.96542038  0.50600319  0.18556007  1
  Sb  Sb14  1  0.39571021  0.51179587  0.45372621  1
  Sb  Sb15  1  0.60606060  0.47259714  0.54771876  1
  Sb  Sb16  1  0.53445657  0.00479119  0.81072588  1
  Sb  Sb17  1  0.46057076  0.01557273  0.18123938  1
  S  S18  1  0.93494723  0.99317762  0.80176158  1
  S  S19  1  0.06639090  0.98506282  0.19622120  1
  S  S20  1  0.40808566  0.97993611  0.98330379  1
  S  S21  1  0.58343694  0.98281197  0.01195235  1
  S  S22  1  0.17000553  0.01974779  0.89704908  1
  S  S23  1  0.82492586  0.04063506  0.09574167  1
  S  S24  1  0.09321587  0.47048692  0.64525437  1
  S  S25  1  0.91042441  0.46974363  0.35466293  1
  S  S26  1  0.74106611  0.94514628  0.30256034  1
  S  S27  1  0.26381184  0.00363317  0.71295518  1
  S  S28  1  0.16068547  0.47596285  0.43422334  1
  S  S29  1  0.82761190  0.48267663  0.54809662  1
  S  S30  1  0.43171407  0.49900732  0.79630083  1
  S  S31  1  0.56039037  0.50732101  0.18349363  1
  S  S32  1  0.91164553  0.49546265  0.98827315  1
  S  S33  1  0.08698873  0.46817051  0.02011096  1
  S  S34  1  0.66520530  0.50954443  0.88783087  1
  S  S35  1  0.32886657  0.52911236  0.09369925  1
  S  S36  1  0.59589257  0.98871229  0.65642393  1
  S  S37  1  0.40687086  0.98413617  0.35072928  1
  S  S38  1  0.24239194  0.45105463  0.30943886  1
  S  S39  1  0.76561769  0.50383213  0.70360202  1
  S  S40  1  0.67069781  0.03015350  0.45714067  1
  S  S41  1  0.32144150  0.97740173  0.54549417  1
