# generated using pymatgen
data_Pr2Mn3(SbS3)4
_symmetry_space_group_name_H-M   'P 1'
_cell_length_a   20.02960800
_cell_length_b   3.90410600
_cell_length_c   14.95364829
_cell_angle_alpha   90.00000000
_cell_angle_beta   126.33350609
_cell_angle_gamma   90.00000000
_symmetry_Int_Tables_number   1
_chemical_formula_structural   Pr2Mn3(SbS3)4
_chemical_formula_sum   'Pr4 Mn6 Sb8 S24'
_cell_volume   942.00006694
_cell_formula_units_Z   2
loop_
 _symmetry_equiv_pos_site_id
 _symmetry_equiv_pos_as_xyz
  1  'x, y, z'
loop_
 _atom_site_type_symbol
 _atom_site_label
 _atom_site_symmetry_multiplicity
 _atom_site_fract_x
 _atom_site_fract_y
 _atom_site_fract_z
 _atom_site_occupancy
  Pr  Pr0  1  0.27369090  0.49692878  0.86609193  1
  Pr  Pr1  1  0.72731853  0.50043749  0.13016582  1
  Pr  Pr2  1  0.77105846  0.00558593  0.87293751  1
  Pr  Pr3  1  0.23059723  0.93203764  0.12808521  1
  Mn  Mn4  1  0.29695397  0.43439930  0.60257200  1
  Mn  Mn5  1  0.70292414  0.52994033  0.36943374  1
  Mn  Mn6  1  0.99428147  0.00181027  0.99962182  1
  Mn  Mn7  1  0.80385316  0.05312886  0.63137027  1
  Mn  Mn8  1  0.20894701  0.05821632  0.38861860  1
  Mn  Mn9  1  0.50036130  0.49981778  0.00317220  1
  Sb  Sb10  1  0.87797553  0.87421374  0.44907323  1
  Sb  Sb11  1  0.10824559  0.98815086  0.54415841  1
  Sb  Sb12  1  0.03439285  0.49790486  0.82111274  1
  Sb  Sb13  1  0.96059195  0.47968443  0.19246132  1
  Sb  Sb14  1  0.40565326  0.56484322  0.46447245  1
  Sb  Sb15  1  0.60376570  0.57949407  0.53316277  1
  Sb  Sb16  1  0.52166952  0.95091385  0.80074550  1
  Sb  Sb17  1  0.46131267  0.99998737  0.18380641  1
  S  S18  1  0.93310006  0.00251887  0.80418678  1
  S  S19  1  0.06718845  0.00657843  0.21290830  1
  S  S20  1  0.41619000  0.97204964  0.98806080  1
  S  S21  1  0.57907567  0.97596132  0.01030740  1
  S  S22  1  0.16797502  0.90627953  0.89884962  1
  S  S23  1  0.81850575  0.01937355  0.10236223  1
  S  S24  1  0.10836937  0.45948244  0.65636962  1
  S  S25  1  0.90222023  0.46832681  0.34888049  1
  S  S26  1  0.73323344  0.05341483  0.30492815  1
  S  S27  1  0.26046684  0.94666849  0.68150890  1
  S  S28  1  0.16543895  0.48346508  0.44626962  1
  S  S29  1  0.81916206  0.54150365  0.55840515  1
  S  S30  1  0.43435147  0.46850345  0.79753563  1
  S  S31  1  0.56155808  0.49845067  0.18929546  1
  S  S32  1  0.90929005  0.50613856  0.98661981  1
  S  S33  1  0.07955702  0.46171411  0.01978095  1
  S  S34  1  0.65720904  0.49370102  0.87468759  1
  S  S35  1  0.33193361  0.43294282  0.09872893  1
  S  S36  1  0.60133693  0.00624707  0.65146766  1
  S  S37  1  0.40525423  0.01228497  0.34836182  1
  S  S38  1  0.24578623  0.52274686  0.32423606  1
  S  S39  1  0.75901720  0.45323893  0.69648765  1
  S  S40  1  0.67360901  0.96118244  0.44787747  1
  S  S41  1  0.33269806  0.96020335  0.55218445  1
