# generated using pymatgen
data_Pr2Mn3(SbS3)4
_symmetry_space_group_name_H-M   'P 1'
_cell_length_a   20.02960800
_cell_length_b   3.90410600
_cell_length_c   14.95364829
_cell_angle_alpha   90.00000000
_cell_angle_beta   126.33350609
_cell_angle_gamma   90.00000000
_symmetry_Int_Tables_number   1
_chemical_formula_structural   Pr2Mn3(SbS3)4
_chemical_formula_sum   'Pr4 Mn6 Sb8 S24'
_cell_volume   942.00006694
_cell_formula_units_Z   2
loop_
 _symmetry_equiv_pos_site_id
 _symmetry_equiv_pos_as_xyz
  1  'x, y, z'
loop_
 _atom_site_type_symbol
 _atom_site_label
 _atom_site_symmetry_multiplicity
 _atom_site_fract_x
 _atom_site_fract_y
 _atom_site_fract_z
 _atom_site_occupancy
  Pr  Pr0  1  0.27362668  0.49688825  0.86604094  1
  Pr  Pr1  1  0.72726172  0.50065858  0.12995217  1
  Pr  Pr2  1  0.77110710  0.00570024  0.87300693  1
  Pr  Pr3  1  0.23071412  0.93249014  0.12807928  1
  Mn  Mn4  1  0.29742546  0.43479147  0.60293892  1
  Mn  Mn5  1  0.70284740  0.53021940  0.36964167  1
  Mn  Mn6  1  0.99403496  0.00143969  0.99916395  1
  Mn  Mn7  1  0.80391820  0.05279800  0.63145246  1
  Mn  Mn8  1  0.20903993  0.05847190  0.38870238  1
  Mn  Mn9  1  0.50043983  0.50008777  0.00333559  1
  Sb  Sb10  1  0.87810684  0.87441202  0.44919265  1
  Sb  Sb11  1  0.10839071  0.98815824  0.54426557  1
  Sb  Sb12  1  0.03435800  0.49839751  0.82104108  1
  Sb  Sb13  1  0.96060804  0.47957577  0.19234493  1
  Sb  Sb14  1  0.40573907  0.56594839  0.46456961  1
  Sb  Sb15  1  0.60389870  0.57885984  0.53333717  1
  Sb  Sb16  1  0.52153766  0.95122142  0.80085112  1
  Sb  Sb17  1  0.46136739  0.99973385  0.18411783  1
  S  S18  1  0.93298131  0.00249917  0.80414556  1
  S  S19  1  0.06717168  0.00746779  0.21298342  1
  S  S20  1  0.41613432  0.97165436  0.98810794  1
  S  S21  1  0.57917818  0.97577925  0.01046601  1
  S  S22  1  0.16813079  0.90660743  0.89913243  1
  S  S23  1  0.81868762  0.01997335  0.10227015  1
  S  S24  1  0.10833876  0.45955504  0.65627185  1
  S  S25  1  0.90213257  0.46885178  0.34882176  1
  S  S26  1  0.73323106  0.05273840  0.30501729  1
  S  S27  1  0.26066253  0.94618293  0.68154632  1
  S  S28  1  0.16567243  0.48320969  0.44628167  1
  S  S29  1  0.81933682  0.54202471  0.55829250  1
  S  S30  1  0.43428524  0.46790139  0.79777209  1
  S  S31  1  0.56165992  0.49756588  0.18929025  1
  S  S32  1  0.90909363  0.50541907  0.98630671  1
  S  S33  1  0.07967352  0.46166636  0.01973467  1
  S  S34  1  0.65709217  0.49435766  0.87442087  1
  S  S35  1  0.33196341  0.43293523  0.09873429  1
  S  S36  1  0.60148982  0.00695235  0.65186821  1
  S  S37  1  0.40524392  0.01198347  0.34834440  1
  S  S38  1  0.24581496  0.52257944  0.32428550  1
  S  S39  1  0.75885434  0.45253205  0.69647483  1
  S  S40  1  0.67350332  0.96195648  0.44804410  1
  S  S41  1  0.33270336  0.96050837  0.55238614  1
