# generated using pymatgen
data_Pr2Mn3(SbS3)4
_symmetry_space_group_name_H-M   'P 1'
_cell_length_a   20.02960800
_cell_length_b   3.90410600
_cell_length_c   14.95364829
_cell_angle_alpha   90.00000000
_cell_angle_beta   126.33350609
_cell_angle_gamma   90.00000000
_symmetry_Int_Tables_number   1
_chemical_formula_structural   Pr2Mn3(SbS3)4
_chemical_formula_sum   'Pr4 Mn6 Sb8 S24'
_cell_volume   942.00006694
_cell_formula_units_Z   2
loop_
 _symmetry_equiv_pos_site_id
 _symmetry_equiv_pos_as_xyz
  1  'x, y, z'
loop_
 _atom_site_type_symbol
 _atom_site_label
 _atom_site_symmetry_multiplicity
 _atom_site_fract_x
 _atom_site_fract_y
 _atom_site_fract_z
 _atom_site_occupancy
  Pr  Pr0  1  0.27357440  0.49663927  0.86600370  1
  Pr  Pr1  1  0.72720748  0.50086548  0.12971628  1
  Pr  Pr2  1  0.77115033  0.00567358  0.87303884  1
  Pr  Pr3  1  0.23086658  0.93308271  0.12815999  1
  Mn  Mn4  1  0.29779169  0.43534609  0.60325703  1
  Mn  Mn5  1  0.70272084  0.53060976  0.36981520  1
  Mn  Mn6  1  0.99382486  0.00119800  0.99881093  1
  Mn  Mn7  1  0.80398794  0.05242799  0.63147318  1
  Mn  Mn8  1  0.20909027  0.05872190  0.38882308  1
  Mn  Mn9  1  0.50055611  0.50045061  0.00347909  1
  Sb  Sb10  1  0.87818017  0.87473296  0.44928014  1
  Sb  Sb11  1  0.10850730  0.98832731  0.54429550  1
  Sb  Sb12  1  0.03429598  0.49881141  0.82099788  1
  Sb  Sb13  1  0.96064759  0.47947879  0.19235890  1
  Sb  Sb14  1  0.40578417  0.56715112  0.46467579  1
  Sb  Sb15  1  0.60393850  0.57825377  0.53346862  1
  Sb  Sb16  1  0.52141298  0.95164209  0.80096062  1
  Sb  Sb17  1  0.46142245  0.99974264  0.18445465  1
  S  S18  1  0.93305276  0.00265390  0.80427474  1
  S  S19  1  0.06718233  0.00793826  0.21312214  1
  S  S20  1  0.41604923  0.97117638  0.98810577  1
  S  S21  1  0.57922852  0.97531076  0.01049408  1
  S  S22  1  0.16834031  0.90735517  0.89936083  1
  S  S23  1  0.81874906  0.02038624  0.10208341  1
  S  S24  1  0.10831792  0.45948079  0.65619081  1
  S  S25  1  0.90207553  0.46886167  0.34889412  1
  S  S26  1  0.73315113  0.05233421  0.30517058  1
  S  S27  1  0.26078317  0.94568201  0.68148004  1
  S  S28  1  0.16586605  0.48308743  0.44640816  1
  S  S29  1  0.81939767  0.54252518  0.55796318  1
  S  S30  1  0.43420098  0.46812183  0.79801468  1
  S  S31  1  0.56186524  0.49686665  0.18930297  1
  S  S32  1  0.90898802  0.50472462  0.98606652  1
  S  S33  1  0.07979282  0.46203667  0.01962778  1
  S  S34  1  0.65698168  0.49450565  0.87431207  1
  S  S35  1  0.33198013  0.43251285  0.09882801  1
  S  S36  1  0.60154985  0.00733051  0.65204297  1
  S  S37  1  0.40512616  0.01088169  0.34830320  1
  S  S38  1  0.24585802  0.52257932  0.32432903  1
  S  S39  1  0.75863799  0.45167456  0.69637784  1
  S  S40  1  0.67337405  0.96212210  0.44812485  1
  S  S41  1  0.33271273  0.96079918  0.55246152  1
