# generated using pymatgen
data_Pr2Mn3(SbS3)4
_symmetry_space_group_name_H-M   'P 1'
_cell_length_a   20.02960800
_cell_length_b   3.90410600
_cell_length_c   14.95364829
_cell_angle_alpha   90.00000000
_cell_angle_beta   126.33350609
_cell_angle_gamma   90.00000000
_symmetry_Int_Tables_number   1
_chemical_formula_structural   Pr2Mn3(SbS3)4
_chemical_formula_sum   'Pr4 Mn6 Sb8 S24'
_cell_volume   942.00006694
_cell_formula_units_Z   2
loop_
 _symmetry_equiv_pos_site_id
 _symmetry_equiv_pos_as_xyz
  1  'x, y, z'
loop_
 _atom_site_type_symbol
 _atom_site_label
 _atom_site_symmetry_multiplicity
 _atom_site_fract_x
 _atom_site_fract_y
 _atom_site_fract_z
 _atom_site_occupancy
  Pr  Pr0  1  0.27349136  0.49632372  0.86591862  1
  Pr  Pr1  1  0.72717679  0.50100038  0.12950603  1
  Pr  Pr2  1  0.77123531  0.00565246  0.87304158  1
  Pr  Pr3  1  0.23096329  0.93356887  0.12819368  1
  Mn  Mn4  1  0.29811045  0.43588882  0.60353724  1
  Mn  Mn5  1  0.70262220  0.53107613  0.36993792  1
  Mn  Mn6  1  0.99360605  0.00101204  0.99836974  1
  Mn  Mn7  1  0.80406146  0.05206859  0.63147789  1
  Mn  Mn8  1  0.20915318  0.05896441  0.38908102  1
  Mn  Mn9  1  0.50070408  0.50080390  0.00362452  1
  Sb  Sb10  1  0.87819139  0.87490519  0.44933261  1
  Sb  Sb11  1  0.10855671  0.98838566  0.54426551  1
  Sb  Sb12  1  0.03427681  0.49933320  0.82102848  1
  Sb  Sb13  1  0.96063645  0.47967796  0.19232609  1
  Sb  Sb14  1  0.40576861  0.56822391  0.46475634  1
  Sb  Sb15  1  0.60400076  0.57769544  0.53356931  1
  Sb  Sb16  1  0.52131114  0.95201012  0.80107296  1
  Sb  Sb17  1  0.46143020  0.99969182  0.18475494  1
  S  S18  1  0.93321064  0.00256253  0.80454569  1
  S  S19  1  0.06720668  0.00848556  0.21344307  1
  S  S20  1  0.41596175  0.97067812  0.98803977  1
  S  S21  1  0.57924638  0.97492454  0.01063282  1
  S  S22  1  0.16852296  0.90862702  0.89944297  1
  S  S23  1  0.81871460  0.02084872  0.10178759  1
  S  S24  1  0.10814214  0.45966705  0.65605546  1
  S  S25  1  0.90196948  0.46898114  0.34877267  1
  S  S26  1  0.73326162  0.05150129  0.30547291  1
  S  S27  1  0.26091914  0.94508371  0.68146515  1
  S  S28  1  0.16612751  0.48301059  0.44649817  1
  S  S29  1  0.81947007  0.54332386  0.55761358  1
  S  S30  1  0.43413687  0.46840532  0.79809609  1
  S  S31  1  0.56204386  0.49618910  0.18933793  1
  S  S32  1  0.90880271  0.50398045  0.98580864  1
  S  S33  1  0.07992241  0.46196241  0.01946541  1
  S  S34  1  0.65685501  0.49478934  0.87428018  1
  S  S35  1  0.33213327  0.43180901  0.09893782  1
  S  S36  1  0.60164405  0.00766267  0.65224272  1
  S  S37  1  0.40507513  0.00973300  0.34829535  1
  S  S38  1  0.24582918  0.52270600  0.32428022  1
  S  S39  1  0.75847956  0.45123820  0.69634570  1
  S  S40  1  0.67309884  0.96198783  0.44816215  1
  S  S41  1  0.33287897  0.96079582  0.55263026  1
