# generated using pymatgen
data_Pr2Mn3(SbS3)4
_symmetry_space_group_name_H-M   'P 1'
_cell_length_a   20.02960800
_cell_length_b   3.90410600
_cell_length_c   14.95364829
_cell_angle_alpha   90.00000000
_cell_angle_beta   126.33350609
_cell_angle_gamma   90.00000000
_symmetry_Int_Tables_number   1
_chemical_formula_structural   Pr2Mn3(SbS3)4
_chemical_formula_sum   'Pr4 Mn6 Sb8 S24'
_cell_volume   942.00006694
_cell_formula_units_Z   2
loop_
 _symmetry_equiv_pos_site_id
 _symmetry_equiv_pos_as_xyz
  1  'x, y, z'
loop_
 _atom_site_type_symbol
 _atom_site_label
 _atom_site_symmetry_multiplicity
 _atom_site_fract_x
 _atom_site_fract_y
 _atom_site_fract_z
 _atom_site_occupancy
  Pr  Pr0  1  0.27339615  0.49604186  0.86585739  1
  Pr  Pr1  1  0.72712879  0.50098208  0.12923810  1
  Pr  Pr2  1  0.77127759  0.00565599  0.87299861  1
  Pr  Pr3  1  0.23109079  0.93379126  0.12828200  1
  Mn  Mn4  1  0.29847716  0.43626526  0.60388598  1
  Mn  Mn5  1  0.70253903  0.53176328  0.36998034  1
  Mn  Mn6  1  0.99352817  0.00042784  0.99796772  1
  Mn  Mn7  1  0.80404270  0.05158072  0.63142230  1
  Mn  Mn8  1  0.20914450  0.05914011  0.38924688  1
  Mn  Mn9  1  0.50086568  0.50100627  0.00380303  1
  Sb  Sb10  1  0.87820172  0.87500822  0.44943925  1
  Sb  Sb11  1  0.10857546  0.98839756  0.54425531  1
  Sb  Sb12  1  0.03424085  0.49974149  0.82108494  1
  Sb  Sb13  1  0.96058110  0.48010646  0.19221360  1
  Sb  Sb14  1  0.40582253  0.56936664  0.46480499  1
  Sb  Sb15  1  0.60403245  0.57725682  0.53359592  1
  Sb  Sb16  1  0.52125689  0.95224017  0.80118585  1
  Sb  Sb17  1  0.46140842  0.99946985  0.18497675  1
  S  S18  1  0.93319371  0.00274851  0.80462671  1
  S  S19  1  0.06717808  0.00946003  0.21367224  1
  S  S20  1  0.41596606  0.97040382  0.98828125  1
  S  S21  1  0.57934871  0.97490388  0.01094860  1
  S  S22  1  0.16874498  0.91053307  0.89946652  1
  S  S23  1  0.81866244  0.02120034  0.10152286  1
  S  S24  1  0.10795821  0.45976904  0.65579125  1
  S  S25  1  0.90200262  0.46926390  0.34891238  1
  S  S26  1  0.73324504  0.05078655  0.30570185  1
  S  S27  1  0.26104768  0.94494821  0.68143106  1
  S  S28  1  0.16624353  0.48282088  0.44659188  1
  S  S29  1  0.81961321  0.54381077  0.55737500  1
  S  S30  1  0.43394655  0.46882964  0.79805542  1
  S  S31  1  0.56223345  0.49474587  0.18937238  1
  S  S32  1  0.90871436  0.50361394  0.98555365  1
  S  S33  1  0.07995385  0.46220736  0.01917371  1
  S  S34  1  0.65676639  0.49501008  0.87422028  1
  S  S35  1  0.33223792  0.43123427  0.09907016  1
  S  S36  1  0.60172915  0.00830984  0.65242225  1
  S  S37  1  0.40505550  0.00884273  0.34846630  1
  S  S38  1  0.24575156  0.52287415  0.32424038  1
  S  S39  1  0.75832774  0.45094546  0.69650702  1
  S  S40  1  0.67286179  0.96219912  0.44809786  1
  S  S41  1  0.33301279  0.96067814  0.55277881  1
