# generated using pymatgen
data_Pr2Mn3(SbS3)4
_symmetry_space_group_name_H-M   'P 1'
_cell_length_a   20.02960800
_cell_length_b   3.90410600
_cell_length_c   14.95364829
_cell_angle_alpha   90.00000000
_cell_angle_beta   126.33350609
_cell_angle_gamma   90.00000000
_symmetry_Int_Tables_number   1
_chemical_formula_structural   Pr2Mn3(SbS3)4
_chemical_formula_sum   'Pr4 Mn6 Sb8 S24'
_cell_volume   942.00006694
_cell_formula_units_Z   2
loop_
 _symmetry_equiv_pos_site_id
 _symmetry_equiv_pos_as_xyz
  1  'x, y, z'
loop_
 _atom_site_type_symbol
 _atom_site_label
 _atom_site_symmetry_multiplicity
 _atom_site_fract_x
 _atom_site_fract_y
 _atom_site_fract_z
 _atom_site_occupancy
  Pr  Pr0  1  0.27327873  0.49576561  0.86573486  1
  Pr  Pr1  1  0.72710496  0.50090550  0.12902019  1
  Pr  Pr2  1  0.77131213  0.00593661  0.87298864  1
  Pr  Pr3  1  0.23115060  0.93411005  0.12829866  1
  Mn  Mn4  1  0.29870940  0.43643889  0.60416797  1
  Mn  Mn5  1  0.70244915  0.53247644  0.36996334  1
  Mn  Mn6  1  0.99350224  0.99997976  0.99766197  1
  Mn  Mn7  1  0.80395579  0.05148289  0.63131758  1
  Mn  Mn8  1  0.20911479  0.05918655  0.38937265  1
  Mn  Mn9  1  0.50095067  0.50165963  0.00379765  1
  Sb  Sb10  1  0.87822620  0.87507216  0.44954965  1
  Sb  Sb11  1  0.10863295  0.98838223  0.54426570  1
  Sb  Sb12  1  0.03418038  0.49960872  0.82111789  1
  Sb  Sb13  1  0.96047692  0.48023210  0.19206948  1
  Sb  Sb14  1  0.40588015  0.57047855  0.46487430  1
  Sb  Sb15  1  0.60407140  0.57700883  0.53365816  1
  Sb  Sb16  1  0.52126108  0.95248219  0.80130831  1
  Sb  Sb17  1  0.46139710  0.99922019  0.18523510  1
  S  S18  1  0.93310265  0.00294980  0.80463305  1
  S  S19  1  0.06724432  0.01027928  0.21402497  1
  S  S20  1  0.41596629  0.96943583  0.98860236  1
  S  S21  1  0.57938484  0.97489478  0.01118574  1
  S  S22  1  0.16903253  0.91224107  0.89947031  1
  S  S23  1  0.81864810  0.02204898  0.10130500  1
  S  S24  1  0.10784382  0.45987723  0.65560272  1
  S  S25  1  0.90201798  0.46909922  0.34904666  1
  S  S26  1  0.73330164  0.05011854  0.30594959  1
  S  S27  1  0.26114664  0.94514949  0.68142658  1
  S  S28  1  0.16648771  0.48268619  0.44692836  1
  S  S29  1  0.81986595  0.54360423  0.55725269  1
  S  S30  1  0.43372833  0.46922062  0.79806342  1
  S  S31  1  0.56246127  0.49358117  0.18943952  1
  S  S32  1  0.90867645  0.50346482  0.98537367  1
  S  S33  1  0.07985068  0.46307941  0.01876533  1
  S  S34  1  0.65677504  0.49561289  0.87424132  1
  S  S35  1  0.33230925  0.43096432  0.09907299  1
  S  S36  1  0.60181305  0.00811412  0.65260307  1
  S  S37  1  0.40507503  0.00797974  0.34866457  1
  S  S38  1  0.24570700  0.52291084  0.32415516  1
  S  S39  1  0.75816027  0.45030794  0.69670058  1
  S  S40  1  0.67267517  0.96236612  0.44792903  1
  S  S41  1  0.33310019  0.96006732  0.55282679  1
