# generated using pymatgen
data_Pr2Mn3(SbS3)4
_symmetry_space_group_name_H-M   'P 1'
_cell_length_a   20.02960800
_cell_length_b   3.90410600
_cell_length_c   14.95364829
_cell_angle_alpha   90.00000000
_cell_angle_beta   126.33350609
_cell_angle_gamma   90.00000000
_symmetry_Int_Tables_number   1
_chemical_formula_structural   Pr2Mn3(SbS3)4
_chemical_formula_sum   'Pr4 Mn6 Sb8 S24'
_cell_volume   942.00006694
_cell_formula_units_Z   2
loop_
 _symmetry_equiv_pos_site_id
 _symmetry_equiv_pos_as_xyz
  1  'x, y, z'
loop_
 _atom_site_type_symbol
 _atom_site_label
 _atom_site_symmetry_multiplicity
 _atom_site_fract_x
 _atom_site_fract_y
 _atom_site_fract_z
 _atom_site_occupancy
  Pr  Pr0  1  0.27318854  0.49589284  0.86565393  1
  Pr  Pr1  1  0.72709171  0.50048487  0.12881839  1
  Pr  Pr2  1  0.77132619  0.00627984  0.87301333  1
  Pr  Pr3  1  0.23121442  0.93441467  0.12831091  1
  Mn  Mn4  1  0.29897499  0.43624744  0.60438439  1
  Mn  Mn5  1  0.70247228  0.53343593  0.36992408  1
  Mn  Mn6  1  0.99343362  0.99921557  0.99740566  1
  Mn  Mn7  1  0.80380068  0.05140599  0.63122955  1
  Mn  Mn8  1  0.20912953  0.05931500  0.38967647  1
  Mn  Mn9  1  0.50090171  0.50219927  0.00362652  1
  Sb  Sb10  1  0.87828218  0.87501581  0.44972241  1
  Sb  Sb11  1  0.10863029  0.98852183  0.54419888  1
  Sb  Sb12  1  0.03416315  0.49967545  0.82114633  1
  Sb  Sb13  1  0.96040015  0.48027573  0.19191900  1
  Sb  Sb14  1  0.40592966  0.57120420  0.46487332  1
  Sb  Sb15  1  0.60413597  0.57679307  0.53375064  1
  Sb  Sb16  1  0.52123240  0.95282128  0.80137015  1
  Sb  Sb17  1  0.46134879  0.99915430  0.18546542  1
  S  S18  1  0.93303793  0.00248729  0.80473338  1
  S  S19  1  0.06729572  0.01114247  0.21438307  1
  S  S20  1  0.41599793  0.96862364  0.98897412  1
  S  S21  1  0.57942907  0.97501622  0.01139430  1
  S  S22  1  0.16932427  0.91413971  0.89937084  1
  S  S23  1  0.81854390  0.02266636  0.10103491  1
  S  S24  1  0.10762248  0.46019835  0.65526154  1
  S  S25  1  0.90198792  0.46884870  0.34904766  1
  S  S26  1  0.73320282  0.04933080  0.30600793  1
  S  S27  1  0.26115815  0.94522913  0.68130030  1
  S  S28  1  0.16671553  0.48195662  0.44738341  1
  S  S29  1  0.82016097  0.54336846  0.55730140  1
  S  S30  1  0.43351602  0.46994852  0.79802415  1
  S  S31  1  0.56272749  0.49267775  0.18944393  1
  S  S32  1  0.90857264  0.50368548  0.98511742  1
  S  S33  1  0.07981411  0.46407628  0.01861534  1
  S  S34  1  0.65687385  0.49634724  0.87435186  1
  S  S35  1  0.33233595  0.43094617  0.09914017  1
  S  S36  1  0.60194722  0.00858182  0.65281096  1
  S  S37  1  0.40513269  0.00719789  0.34888741  1
  S  S38  1  0.24570889  0.52269643  0.32424367  1
  S  S39  1  0.75807808  0.44976032  0.69703542  1
  S  S40  1  0.67244987  0.96284107  0.44773420  1
  S  S41  1  0.33325244  0.96014082  0.55290375  1
