# generated using pymatgen
data_Pr2Mn3(SbS3)4
_symmetry_space_group_name_H-M   'P 1'
_cell_length_a   20.02960800
_cell_length_b   3.90410600
_cell_length_c   14.95364829
_cell_angle_alpha   90.00000000
_cell_angle_beta   126.33350609
_cell_angle_gamma   90.00000000
_symmetry_Int_Tables_number   1
_chemical_formula_structural   Pr2Mn3(SbS3)4
_chemical_formula_sum   'Pr4 Mn6 Sb8 S24'
_cell_volume   942.00006694
_cell_formula_units_Z   2
loop_
 _symmetry_equiv_pos_site_id
 _symmetry_equiv_pos_as_xyz
  1  'x, y, z'
loop_
 _atom_site_type_symbol
 _atom_site_label
 _atom_site_symmetry_multiplicity
 _atom_site_fract_x
 _atom_site_fract_y
 _atom_site_fract_z
 _atom_site_occupancy
  Pr  Pr0  1  0.27313335  0.49576922  0.86561721  1
  Pr  Pr1  1  0.72701385  0.50017310  0.12858293  1
  Pr  Pr2  1  0.77132859  0.00651305  0.87306658  1
  Pr  Pr3  1  0.23126137  0.93493377  0.12839460  1
  Mn  Mn4  1  0.29923462  0.43636527  0.60462130  1
  Mn  Mn5  1  0.70259723  0.53433463  0.37005152  1
  Mn  Mn6  1  0.99325852  0.99859008  0.99708332  1
  Mn  Mn7  1  0.80357183  0.05127113  0.63105536  1
  Mn  Mn8  1  0.20900226  0.05883805  0.38978683  1
  Mn  Mn9  1  0.50084157  0.50277302  0.00350103  1
  Sb  Sb10  1  0.87832279  0.87480586  0.44981721  1
  Sb  Sb11  1  0.10865979  0.98886425  0.54411719  1
  Sb  Sb12  1  0.03421734  0.49981171  0.82123322  1
  Sb  Sb13  1  0.96033498  0.48033407  0.19178683  1
  Sb  Sb14  1  0.40601147  0.57183036  0.46492526  1
  Sb  Sb15  1  0.60419605  0.57665606  0.53385689  1
  Sb  Sb16  1  0.52116067  0.95306605  0.80138500  1
  Sb  Sb17  1  0.46134537  0.99909727  0.18579004  1
  S  S18  1  0.93290402  0.00189670  0.80472788  1
  S  S19  1  0.06741088  0.01157094  0.21479464  1
  S  S20  1  0.41596380  0.96770954  0.98936539  1
  S  S21  1  0.57952461  0.97543783  0.01162074  1
  S  S22  1  0.16957125  0.91643671  0.89933618  1
  S  S23  1  0.81844731  0.02335911  0.10089875  1
  S  S24  1  0.10732652  0.46067263  0.65494433  1
  S  S25  1  0.90195236  0.46888075  0.34901076  1
  S  S26  1  0.73316289  0.04925647  0.30607211  1
  S  S27  1  0.26100842  0.94557920  0.68098566  1
  S  S28  1  0.16701135  0.48154472  0.44775356  1
  S  S29  1  0.82045729  0.54292456  0.55738146  1
  S  S30  1  0.43335698  0.47073555  0.79794005  1
  S  S31  1  0.56301162  0.49196628  0.18949515  1
  S  S32  1  0.90839268  0.50366314  0.98477608  1
  S  S33  1  0.07986497  0.46481832  0.01854561  1
  S  S34  1  0.65706778  0.49761123  0.87458031  1
  S  S35  1  0.33231681  0.43054334  0.09923556  1
  S  S36  1  0.60204655  0.00908662  0.65301544  1
  S  S37  1  0.40510561  0.00680978  0.34895509  1
  S  S38  1  0.24564516  0.52212174  0.32435160  1
  S  S39  1  0.75795049  0.44922164  0.69726079  1
  S  S40  1  0.67229687  0.96297209  0.44765895  1
  S  S41  1  0.33337089  0.95998766  0.55298446  1
