# generated using pymatgen
data_Pr2Mn3(SbS3)4
_symmetry_space_group_name_H-M   'P 1'
_cell_length_a   20.02960800
_cell_length_b   3.90410600
_cell_length_c   14.95364829
_cell_angle_alpha   90.00000000
_cell_angle_beta   126.33350609
_cell_angle_gamma   90.00000000
_symmetry_Int_Tables_number   1
_chemical_formula_structural   Pr2Mn3(SbS3)4
_chemical_formula_sum   'Pr4 Mn6 Sb8 S24'
_cell_volume   942.00006694
_cell_formula_units_Z   2
loop_
 _symmetry_equiv_pos_site_id
 _symmetry_equiv_pos_as_xyz
  1  'x, y, z'
loop_
 _atom_site_type_symbol
 _atom_site_label
 _atom_site_symmetry_multiplicity
 _atom_site_fract_x
 _atom_site_fract_y
 _atom_site_fract_z
 _atom_site_occupancy
  Pr  Pr0  1  0.27311692  0.49592486  0.86566268  1
  Pr  Pr1  1  0.72694152  0.49977244  0.12842529  1
  Pr  Pr2  1  0.77134044  0.00653188  0.87314239  1
  Pr  Pr3  1  0.23125322  0.93532962  0.12835979  1
  Mn  Mn4  1  0.29939486  0.43638222  0.60464869  1
  Mn  Mn5  1  0.70262714  0.53528930  0.37016746  1
  Mn  Mn6  1  0.99309155  0.99773176  0.99679241  1
  Mn  Mn7  1  0.80331681  0.05099579  0.63081605  1
  Mn  Mn8  1  0.20876478  0.05834686  0.38981688  1
  Mn  Mn9  1  0.50079662  0.50318701  0.00337221  1
  Sb  Sb10  1  0.87841894  0.87484373  0.44996515  1
  Sb  Sb11  1  0.10868154  0.98897290  0.54403247  1
  Sb  Sb12  1  0.03427922  0.49979199  0.82126788  1
  Sb  Sb13  1  0.96032696  0.48052313  0.19173638  1
  Sb  Sb14  1  0.40611136  0.57247828  0.46510351  1
  Sb  Sb15  1  0.60429220  0.57614104  0.53399259  1
  Sb  Sb16  1  0.52105133  0.95327493  0.80135752  1
  Sb  Sb17  1  0.46131811  0.99905630  0.18604043  1
  S  S18  1  0.93279815  0.00078939  0.80468529  1
  S  S19  1  0.06755865  0.01233523  0.21523039  1
  S  S20  1  0.41594947  0.96638735  0.98985197  1
  S  S21  1  0.57961412  0.97613057  0.01191007  1
  S  S22  1  0.16987358  0.91848914  0.89920505  1
  S  S23  1  0.81833415  0.02351689  0.10063150  1
  S  S24  1  0.10710493  0.46085572  0.65467598  1
  S  S25  1  0.90192124  0.46896567  0.34883846  1
  S  S26  1  0.73310049  0.04934696  0.30603703  1
  S  S27  1  0.26095634  0.94545768  0.68093125  1
  S  S28  1  0.16728295  0.48107869  0.44810083  1
  S  S29  1  0.82065719  0.54286234  0.55748230  1
  S  S30  1  0.43325917  0.47191833  0.79797195  1
  S  S31  1  0.56307983  0.49113299  0.18943384  1
  S  S32  1  0.90823016  0.50373132  0.98442383  1
  S  S33  1  0.07995753  0.46561281  0.01854175  1
  S  S34  1  0.65722356  0.49854580  0.87480624  1
  S  S35  1  0.33237927  0.43020371  0.09938798  1
  S  S36  1  0.60196893  0.00998573  0.65316179  1
  S  S37  1  0.40512843  0.00631179  0.34898172  1
  S  S38  1  0.24560795  0.52139276  0.32456355  1
  S  S39  1  0.75800687  0.44836194  0.69754228  1
  S  S40  1  0.67203332  0.96328620  0.44729897  1
  S  S41  1  0.33340163  0.95956353  0.55300726  1
