# generated using pymatgen
data_Pr2Mn3(SbS3)4
_symmetry_space_group_name_H-M   'P 1'
_cell_length_a   20.02960800
_cell_length_b   3.90410600
_cell_length_c   14.95364829
_cell_angle_alpha   90.00000000
_cell_angle_beta   126.33350609
_cell_angle_gamma   90.00000000
_symmetry_Int_Tables_number   1
_chemical_formula_structural   Pr2Mn3(SbS3)4
_chemical_formula_sum   'Pr4 Mn6 Sb8 S24'
_cell_volume   942.00006694
_cell_formula_units_Z   2
loop_
 _symmetry_equiv_pos_site_id
 _symmetry_equiv_pos_as_xyz
  1  'x, y, z'
loop_
 _atom_site_type_symbol
 _atom_site_label
 _atom_site_symmetry_multiplicity
 _atom_site_fract_x
 _atom_site_fract_y
 _atom_site_fract_z
 _atom_site_occupancy
  Pr  Pr0  1  0.27305225  0.49591805  0.86567173  1
  Pr  Pr1  1  0.72684879  0.49956202  0.12823409  1
  Pr  Pr2  1  0.77132183  0.00661257  0.87322478  1
  Pr  Pr3  1  0.23122532  0.93605507  0.12837141  1
  Mn  Mn4  1  0.29954025  0.43669774  0.60457286  1
  Mn  Mn5  1  0.70256505  0.53611720  0.37020752  1
  Mn  Mn6  1  0.99295934  0.99694424  0.99653981  1
  Mn  Mn7  1  0.80301963  0.05094312  0.63049762  1
  Mn  Mn8  1  0.20857766  0.05782398  0.38996232  1
  Mn  Mn9  1  0.50089589  0.50337765  0.00334555  1
  Sb  Sb10  1  0.87844966  0.87476522  0.45011392  1
  Sb  Sb11  1  0.10870406  0.98906614  0.54397510  1
  Sb  Sb12  1  0.03433077  0.49960642  0.82127943  1
  Sb  Sb13  1  0.96026657  0.48079431  0.19165901  1
  Sb  Sb14  1  0.40623625  0.57285814  0.46529884  1
  Sb  Sb15  1  0.60435668  0.57583367  0.53404170  1
  Sb  Sb16  1  0.52092921  0.95347916  0.80129031  1
  Sb  Sb17  1  0.46128709  0.99915507  0.18623669  1
  S  S18  1  0.93282909  0.99970190  0.80480421  1
  S  S19  1  0.06770206  0.01307127  0.21563100  1
  S  S20  1  0.41588425  0.96532882  0.99029836  1
  S  S21  1  0.57978604  0.97661059  0.01232438  1
  S  S22  1  0.17007799  0.91999320  0.89907928  1
  S  S23  1  0.81805160  0.02353252  0.10015796  1
  S  S24  1  0.10693671  0.46126770  0.65452124  1
  S  S25  1  0.90200862  0.46915681  0.34893047  1
  S  S26  1  0.73305058  0.04934056  0.30599815  1
  S  S27  1  0.26080940  0.94566292  0.68096135  1
  S  S28  1  0.16755081  0.48111895  0.44832150  1
  S  S29  1  0.82085793  0.54339431  0.55747129  1
  S  S30  1  0.43320987  0.47268875  0.79806494  1
  S  S31  1  0.56310702  0.49039956  0.18946805  1
  S  S32  1  0.90808689  0.50428310  0.98401741  1
  S  S33  1  0.08001380  0.46668497  0.01847213  1
  S  S34  1  0.65740851  0.49913589  0.87499491  1
  S  S35  1  0.33246110  0.42961261  0.09945798  1
  S  S36  1  0.60198672  0.01068798  0.65343163  1
  S  S37  1  0.40523407  0.00607759  0.34924678  1
  S  S38  1  0.24555018  0.52013681  0.32468308  1
  S  S39  1  0.75806456  0.44767521  0.69782331  1
  S  S40  1  0.67199447  0.96382793  0.44712907  1
  S  S41  1  0.33346673  0.95832045  0.55320657  1
