# generated using pymatgen
data_Pr2Mn3(SbS3)4
_symmetry_space_group_name_H-M   'P 1'
_cell_length_a   20.02960800
_cell_length_b   3.90410600
_cell_length_c   14.95364829
_cell_angle_alpha   90.00000000
_cell_angle_beta   126.33350609
_cell_angle_gamma   90.00000000
_symmetry_Int_Tables_number   1
_chemical_formula_structural   Pr2Mn3(SbS3)4
_chemical_formula_sum   'Pr4 Mn6 Sb8 S24'
_cell_volume   942.00006694
_cell_formula_units_Z   2
loop_
 _symmetry_equiv_pos_site_id
 _symmetry_equiv_pos_as_xyz
  1  'x, y, z'
loop_
 _atom_site_type_symbol
 _atom_site_label
 _atom_site_symmetry_multiplicity
 _atom_site_fract_x
 _atom_site_fract_y
 _atom_site_fract_z
 _atom_site_occupancy
  Pr  Pr0  1  0.26577529  0.47896574  0.86400682  1
  Pr  Pr1  1  0.73535939  0.51607454  0.13565419  1
  Pr  Pr2  1  0.76397599  0.01573934  0.86402591  1
  Pr  Pr3  1  0.23736106  0.00684531  0.13760756  1
  Mn  Mn4  1  0.29124531  0.47486396  0.59916094  1
  Mn  Mn5  1  0.69052752  0.50187512  0.37724470  1
  Mn  Mn6  1  0.00965525  0.99182519  0.01686382  1
  Mn  Mn7  1  0.80417567  0.01760039  0.61471700  1
  Mn  Mn8  1  0.19795450  0.97809402  0.37856690  1
  Mn  Mn9  1  0.49275601  0.46690304  0.98871512  1
  Sb  Sb10  1  0.89009613  0.98076260  0.44987086  1
  Sb  Sb11  1  0.11263274  0.97733532  0.54807454  1
  Sb  Sb12  1  0.03976865  0.51855525  0.82111816  1
  Sb  Sb13  1  0.96536012  0.50536699  0.18541386  1
  Sb  Sb14  1  0.39566482  0.51108248  0.45353624  1
  Sb  Sb15  1  0.60607813  0.47231023  0.54767701  1
  Sb  Sb16  1  0.53442011  0.00378538  0.81070699  1
  Sb  Sb17  1  0.46059835  0.01549801  0.18141509  1
  S  S18  1  0.93537735  0.99308575  0.80235667  1
  S  S19  1  0.06654021  0.98517206  0.19661209  1
  S  S20  1  0.40824914  0.97909756  0.98329948  1
  S  S21  1  0.58300983  0.98289348  0.01162616  1
  S  S22  1  0.17030828  0.02005148  0.89735843  1
  S  S23  1  0.82493984  0.04176640  0.09568524  1
  S  S24  1  0.09368425  0.47036889  0.64560426  1
  S  S25  1  0.91062567  0.47030249  0.35465003  1
  S  S26  1  0.74119494  0.94572231  0.30248967  1
  S  S27  1  0.26381163  0.00356139  0.71304540  1
  S  S28  1  0.16033853  0.47664167  0.43363236  1
  S  S29  1  0.82732939  0.48296917  0.54784119  1
  S  S30  1  0.43191161  0.49948279  0.79674607  1
  S  S31  1  0.56032661  0.50669818  0.18358228  1
  S  S32  1  0.91153180  0.49398720  0.98832601  1
  S  S33  1  0.08711304  0.46766295  0.02025463  1
  S  S34  1  0.66511946  0.51020783  0.88781456  1
  S  S35  1  0.32927472  0.52797707  0.09392281  1
  S  S36  1  0.59569857  0.98871058  0.65597664  1
  S  S37  1  0.40701732  0.98391074  0.35086905  1
  S  S38  1  0.24234376  0.45251322  0.30960186  1
  S  S39  1  0.76532133  0.50337069  0.70324918  1
  S  S40  1  0.67060577  0.02961873  0.45714302  1
  S  S41  1  0.32152810  0.97681449  0.54580435  1
