# generated using pymatgen
data_Pr2Mn3(SbS3)4
_symmetry_space_group_name_H-M   'P 1'
_cell_length_a   20.02960800
_cell_length_b   3.90410600
_cell_length_c   14.95364829
_cell_angle_alpha   90.00000000
_cell_angle_beta   126.33350609
_cell_angle_gamma   90.00000000
_symmetry_Int_Tables_number   1
_chemical_formula_structural   Pr2Mn3(SbS3)4
_chemical_formula_sum   'Pr4 Mn6 Sb8 S24'
_cell_volume   942.00006694
_cell_formula_units_Z   2
loop_
 _symmetry_equiv_pos_site_id
 _symmetry_equiv_pos_as_xyz
  1  'x, y, z'
loop_
 _atom_site_type_symbol
 _atom_site_label
 _atom_site_symmetry_multiplicity
 _atom_site_fract_x
 _atom_site_fract_y
 _atom_site_fract_z
 _atom_site_occupancy
  Pr  Pr0  1  0.27293579  0.49559679  0.86567355  1
  Pr  Pr1  1  0.72680219  0.49937381  0.12811242  1
  Pr  Pr2  1  0.77128143  0.00667510  0.87323833  1
  Pr  Pr3  1  0.23119224  0.93647331  0.12836466  1
  Mn  Mn4  1  0.29972936  0.43738159  0.60442169  1
  Mn  Mn5  1  0.70251487  0.53683595  0.37029001  1
  Mn  Mn6  1  0.99284544  0.99600998  0.99635680  1
  Mn  Mn7  1  0.80275827  0.05052043  0.63012768  1
  Mn  Mn8  1  0.20831204  0.05724973  0.38991512  1
  Mn  Mn9  1  0.50105057  0.50364717  0.00333266  1
  Sb  Sb10  1  0.87848776  0.87487773  0.45025106  1
  Sb  Sb11  1  0.10875069  0.98911016  0.54385094  1
  Sb  Sb12  1  0.03438549  0.49941388  0.82140008  1
  Sb  Sb13  1  0.96021539  0.48099823  0.19155633  1
  Sb  Sb14  1  0.40639022  0.57309857  0.46550786  1
  Sb  Sb15  1  0.60442624  0.57562782  0.53410251  1
  Sb  Sb16  1  0.52086119  0.95377151  0.80125814  1
  Sb  Sb17  1  0.46129040  0.99931867  0.18638617  1
  S  S18  1  0.93286009  0.99856228  0.80489387  1
  S  S19  1  0.06782355  0.01428466  0.21613299  1
  S  S20  1  0.41581182  0.96452946  0.99062651  1
  S  S21  1  0.58001752  0.97746688  0.01273781  1
  S  S22  1  0.17017265  0.92115473  0.89901234  1
  S  S23  1  0.81788552  0.02418169  0.09989408  1
  S  S24  1  0.10675468  0.46158611  0.65438572  1
  S  S25  1  0.90218424  0.46923661  0.34918153  1
  S  S26  1  0.73299977  0.04962396  0.30606331  1
  S  S27  1  0.26064015  0.94586460  0.68094396  1
  S  S28  1  0.16780459  0.48086020  0.44849499  1
  S  S29  1  0.82111093  0.54370491  0.55745252  1
  S  S30  1  0.43319063  0.47356544  0.79808407  1
  S  S31  1  0.56300758  0.48986245  0.18930731  1
  S  S32  1  0.90774848  0.50459595  0.98344938  1
  S  S33  1  0.08020896  0.46767729  0.01846855  1
  S  S34  1  0.65738697  0.49925962  0.87505936  1
  S  S35  1  0.33253316  0.42932042  0.09942024  1
  S  S36  1  0.60201783  0.01125765  0.65375621  1
  S  S37  1  0.40526557  0.00594172  0.34954232  1
  S  S38  1  0.24544151  0.51890196  0.32475503  1
  S  S39  1  0.75816522  0.44696867  0.69822658  1
  S  S40  1  0.67181838  0.96385759  0.44686642  1
  S  S41  1  0.33349447  0.95701587  0.55326512  1
