# generated using pymatgen
data_Pr2Mn3(SbS3)4
_symmetry_space_group_name_H-M   'P 1'
_cell_length_a   20.02960800
_cell_length_b   3.90410600
_cell_length_c   14.95364829
_cell_angle_alpha   90.00000000
_cell_angle_beta   126.33350609
_cell_angle_gamma   90.00000000
_symmetry_Int_Tables_number   1
_chemical_formula_structural   Pr2Mn3(SbS3)4
_chemical_formula_sum   'Pr4 Mn6 Sb8 S24'
_cell_volume   942.00006694
_cell_formula_units_Z   2
loop_
 _symmetry_equiv_pos_site_id
 _symmetry_equiv_pos_as_xyz
  1  'x, y, z'
loop_
 _atom_site_type_symbol
 _atom_site_label
 _atom_site_symmetry_multiplicity
 _atom_site_fract_x
 _atom_site_fract_y
 _atom_site_fract_z
 _atom_site_occupancy
  Pr  Pr0  1  0.27289534  0.49514825  0.86563224  1
  Pr  Pr1  1  0.72681742  0.49937523  0.12805505  1
  Pr  Pr2  1  0.77122206  0.00653447  0.87317804  1
  Pr  Pr3  1  0.23115729  0.93675351  0.12826400  1
  Mn  Mn4  1  0.29984018  0.43773417  0.60416268  1
  Mn  Mn5  1  0.70261539  0.53691054  0.37039112  1
  Mn  Mn6  1  0.99280544  0.99497974  0.99617041  1
  Mn  Mn7  1  0.80246311  0.05031155  0.62981334  1
  Mn  Mn8  1  0.20805287  0.05675672  0.38975238  1
  Mn  Mn9  1  0.50115518  0.50426714  0.00339789  1
  Sb  Sb10  1  0.87852683  0.87508822  0.45036431  1
  Sb  Sb11  1  0.10877581  0.98901062  0.54376556  1
  Sb  Sb12  1  0.03444378  0.49920817  0.82148263  1
  Sb  Sb13  1  0.96016957  0.48117210  0.19152893  1
  Sb  Sb14  1  0.40652638  0.57333332  0.46566042  1
  Sb  Sb15  1  0.60449530  0.57564743  0.53418503  1
  Sb  Sb16  1  0.52079249  0.95403702  0.80116421  1
  Sb  Sb17  1  0.46136442  0.99965884  0.18659266  1
  S  S18  1  0.93284117  0.99783560  0.80500908  1
  S  S19  1  0.06798329  0.01502830  0.21670511  1
  S  S20  1  0.41569413  0.96356121  0.99085749  1
  S  S21  1  0.58029018  0.97891508  0.01313952  1
  S  S22  1  0.17020454  0.92286192  0.89890163  1
  S  S23  1  0.81781302  0.02427935  0.09979824  1
  S  S24  1  0.10648695  0.46143420  0.65423265  1
  S  S25  1  0.90225739  0.46915041  0.34933856  1
  S  S26  1  0.73295468  0.05009864  0.30602790  1
  S  S27  1  0.26050877  0.94615624  0.68095502  1
  S  S28  1  0.16797516  0.48092186  0.44847013  1
  S  S29  1  0.82142054  0.54390878  0.55752049  1
  S  S30  1  0.43306101  0.47449654  0.79790285  1
  S  S31  1  0.56279150  0.48896587  0.18906800  1
  S  S32  1  0.90749943  0.50469172  0.98311926  1
  S  S33  1  0.08034475  0.46890135  0.01842615  1
  S  S34  1  0.65748147  0.49965785  0.87518950  1
  S  S35  1  0.33240963  0.42952524  0.09919459  1
  S  S36  1  0.60222967  0.01162748  0.65417712  1
  S  S37  1  0.40528781  0.00573968  0.34984081  1
  S  S38  1  0.24535857  0.51797313  0.32477722  1
  S  S39  1  0.75830492  0.44654150  0.69867437  1
  S  S40  1  0.67175484  0.96387526  0.44670807  1
  S  S41  1  0.33350243  0.95575978  0.55319096  1
