# generated using pymatgen
data_Pr2Mn3(SbS3)4
_symmetry_space_group_name_H-M   'P 1'
_cell_length_a   20.02960800
_cell_length_b   3.90410600
_cell_length_c   14.95364829
_cell_angle_alpha   90.00000000
_cell_angle_beta   126.33350609
_cell_angle_gamma   90.00000000
_symmetry_Int_Tables_number   1
_chemical_formula_structural   Pr2Mn3(SbS3)4
_chemical_formula_sum   'Pr4 Mn6 Sb8 S24'
_cell_volume   942.00006694
_cell_formula_units_Z   2
loop_
 _symmetry_equiv_pos_site_id
 _symmetry_equiv_pos_as_xyz
  1  'x, y, z'
loop_
 _atom_site_type_symbol
 _atom_site_label
 _atom_site_symmetry_multiplicity
 _atom_site_fract_x
 _atom_site_fract_y
 _atom_site_fract_z
 _atom_site_occupancy
  Pr  Pr0  1  0.27287627  0.49443914  0.86561303  1
  Pr  Pr1  1  0.72685482  0.49941214  0.12806819  1
  Pr  Pr2  1  0.77116216  0.00642920  0.87310480  1
  Pr  Pr3  1  0.23115676  0.93695125  0.12814906  1
  Mn  Mn4  1  0.30003673  0.43793973  0.60393692  1
  Mn  Mn5  1  0.70264778  0.53676843  0.37053679  1
  Mn  Mn6  1  0.99279745  0.99365673  0.99600483  1
  Mn  Mn7  1  0.80221258  0.05004199  0.62952468  1
  Mn  Mn8  1  0.20777244  0.05665405  0.38956344  1
  Mn  Mn9  1  0.50129279  0.50508864  0.00350293  1
  Sb  Sb10  1  0.87860572  0.87507079  0.45048606  1
  Sb  Sb11  1  0.10881347  0.98889326  0.54374350  1
  Sb  Sb12  1  0.03447998  0.49908249  0.82158964  1
  Sb  Sb13  1  0.96013733  0.48112156  0.19147941  1
  Sb  Sb14  1  0.40656706  0.57361711  0.46569734  1
  Sb  Sb15  1  0.60447688  0.57571750  0.53420422  1
  Sb  Sb16  1  0.52075686  0.95432776  0.80111884  1
  Sb  Sb17  1  0.46145881  0.99986406  0.18681285  1
  S  S18  1  0.93281063  0.99766061  0.80521454  1
  S  S19  1  0.06820249  0.01595186  0.21718679  1
  S  S20  1  0.41556193  0.96252950  0.99100900  1
  S  S21  1  0.58055494  0.98035081  0.01366525  1
  S  S22  1  0.17026418  0.92416173  0.89897314  1
  S  S23  1  0.81783785  0.02474604  0.09974025  1
  S  S24  1  0.10637210  0.46101248  0.65424422  1
  S  S25  1  0.90236376  0.46913500  0.34934394  1
  S  S26  1  0.73276788  0.05112435  0.30592709  1
  S  S27  1  0.26043868  0.94701410  0.68086283  1
  S  S28  1  0.16824387  0.48087972  0.44855091  1
  S  S29  1  0.82182607  0.54399866  0.55767250  1
  S  S30  1  0.43298098  0.47523205  0.79786409  1
  S  S31  1  0.56264568  0.48794730  0.18889062  1
  S  S32  1  0.90719336  0.50479193  0.98273637  1
  S  S33  1  0.08053748  0.46963237  0.01855156  1
  S  S34  1  0.65761968  0.49993206  0.87530978  1
  S  S35  1  0.33223155  0.42993250  0.09890032  1
  S  S36  1  0.60236780  0.01219699  0.65447217  1
  S  S37  1  0.40537927  0.00561119  0.35024749  1
  S  S38  1  0.24528250  0.51768424  0.32461541  1
  S  S39  1  0.75845377  0.44641442  0.69901639  1
  S  S40  1  0.67169625  0.96441172  0.44648592  1
  S  S41  1  0.33356819  0.95434675  0.55330808  1
