# generated using pymatgen
data_Pr2Mn3(SbS3)4
_symmetry_space_group_name_H-M   'P 1'
_cell_length_a   20.02960800
_cell_length_b   3.90410600
_cell_length_c   14.95364829
_cell_angle_alpha   90.00000000
_cell_angle_beta   126.33350609
_cell_angle_gamma   90.00000000
_symmetry_Int_Tables_number   1
_chemical_formula_structural   Pr2Mn3(SbS3)4
_chemical_formula_sum   'Pr4 Mn6 Sb8 S24'
_cell_volume   942.00006694
_cell_formula_units_Z   2
loop_
 _symmetry_equiv_pos_site_id
 _symmetry_equiv_pos_as_xyz
  1  'x, y, z'
loop_
 _atom_site_type_symbol
 _atom_site_label
 _atom_site_symmetry_multiplicity
 _atom_site_fract_x
 _atom_site_fract_y
 _atom_site_fract_z
 _atom_site_occupancy
  Pr  Pr0  1  0.27284377  0.49364157  0.86562720  1
  Pr  Pr1  1  0.72685564  0.49939185  0.12810246  1
  Pr  Pr2  1  0.77109396  0.00645929  0.87296752  1
  Pr  Pr3  1  0.23112756  0.93721115  0.12803534  1
  Mn  Mn4  1  0.30026067  0.43811734  0.60370516  1
  Mn  Mn5  1  0.70271077  0.53625119  0.37073675  1
  Mn  Mn6  1  0.99285103  0.99180250  0.99580319  1
  Mn  Mn7  1  0.80189651  0.04962121  0.62924602  1
  Mn  Mn8  1  0.20754162  0.05675619  0.38938706  1
  Mn  Mn9  1  0.50141693  0.50575927  0.00362238  1
  Sb  Sb10  1  0.87863462  0.87490961  0.45058406  1
  Sb  Sb11  1  0.10886503  0.98908195  0.54370225  1
  Sb  Sb12  1  0.03453111  0.49918948  0.82174240  1
  Sb  Sb13  1  0.96010564  0.48097116  0.19146407  1
  Sb  Sb14  1  0.40649250  0.57376455  0.46564833  1
  Sb  Sb15  1  0.60447442  0.57579821  0.53425615  1
  Sb  Sb16  1  0.52068213  0.95450412  0.80103668  1
  Sb  Sb17  1  0.46158260  0.00021121  0.18696817  1
  S  S18  1  0.93267122  0.99739620  0.80519917  1
  S  S19  1  0.06847248  0.01655559  0.21763076  1
  S  S20  1  0.41545874  0.96150625  0.99102089  1
  S  S21  1  0.58074716  0.98145858  0.01409100  1
  S  S22  1  0.17025477  0.92512355  0.89905888  1
  S  S23  1  0.81791537  0.02526573  0.09986879  1
  S  S24  1  0.10627392  0.46046293  0.65417060  1
  S  S25  1  0.90243272  0.46909929  0.34929532  1
  S  S26  1  0.73263513  0.05188373  0.30586193  1
  S  S27  1  0.26042660  0.94731030  0.68076390  1
  S  S28  1  0.16850791  0.48100994  0.44871891  1
  S  S29  1  0.82221324  0.54387010  0.55780759  1
  S  S30  1  0.43295829  0.47625249  0.79782266  1
  S  S31  1  0.56241100  0.48690931  0.18865080  1
  S  S32  1  0.90691282  0.50470786  0.98237852  1
  S  S33  1  0.08073026  0.47002584  0.01862376  1
  S  S34  1  0.65768963  0.50035168  0.87550519  1
  S  S35  1  0.33180371  0.43040938  0.09853623  1
  S  S36  1  0.60248696  0.01260012  0.65478427  1
  S  S37  1  0.40551015  0.00574082  0.35074852  1
  S  S38  1  0.24537959  0.51786671  0.32464125  1
  S  S39  1  0.75864788  0.44629219  0.69949333  1
  S  S40  1  0.67159820  0.96498058  0.44611686  1
  S  S41  1  0.33354620  0.95300261  0.55336817  1
