# generated using pymatgen
data_Pr2Mn3(SbS3)4
_symmetry_space_group_name_H-M   'P 1'
_cell_length_a   20.02960800
_cell_length_b   3.90410600
_cell_length_c   14.95364829
_cell_angle_alpha   90.00000000
_cell_angle_beta   126.33350609
_cell_angle_gamma   90.00000000
_symmetry_Int_Tables_number   1
_chemical_formula_structural   Pr2Mn3(SbS3)4
_chemical_formula_sum   'Pr4 Mn6 Sb8 S24'
_cell_volume   942.00006694
_cell_formula_units_Z   2
loop_
 _symmetry_equiv_pos_site_id
 _symmetry_equiv_pos_as_xyz
  1  'x, y, z'
loop_
 _atom_site_type_symbol
 _atom_site_label
 _atom_site_symmetry_multiplicity
 _atom_site_fract_x
 _atom_site_fract_y
 _atom_site_fract_z
 _atom_site_occupancy
  Pr  Pr0  1  0.27277040  0.49307275  0.86563997  1
  Pr  Pr1  1  0.72686010  0.49975178  0.12815651  1
  Pr  Pr2  1  0.77099969  0.00646949  0.87280051  1
  Pr  Pr3  1  0.23101980  0.93751342  0.12787728  1
  Mn  Mn4  1  0.30044882  0.43850354  0.60352390  1
  Mn  Mn5  1  0.70281207  0.53613625  0.37094420  1
  Mn  Mn6  1  0.99281756  0.98985194  0.99545709  1
  Mn  Mn7  1  0.80157108  0.04962749  0.62900771  1
  Mn  Mn8  1  0.20733798  0.05694434  0.38925407  1
  Mn  Mn9  1  0.50152736  0.50672970  0.00366032  1
  Sb  Sb10  1  0.87870330  0.87488885  0.45077433  1
  Sb  Sb11  1  0.10895189  0.98928701  0.54359627  1
  Sb  Sb12  1  0.03460119  0.49965382  0.82189889  1
  Sb  Sb13  1  0.96002134  0.48096104  0.19140580  1
  Sb  Sb14  1  0.40645972  0.57374770  0.46562080  1
  Sb  Sb15  1  0.60448697  0.57569583  0.53434444  1
  Sb  Sb16  1  0.52059062  0.95474135  0.80093775  1
  Sb  Sb17  1  0.46174171  0.00053717  0.18708259  1
  S  S18  1  0.93255163  0.99736578  0.80518244  1
  S  S19  1  0.06888585  0.01713873  0.21826013  1
  S  S20  1  0.41543791  0.96057322  0.99101242  1
  S  S21  1  0.58092921  0.98202417  0.01448306  1
  S  S22  1  0.17018647  0.92591714  0.89901904  1
  S  S23  1  0.81807147  0.02581937  0.10022656  1
  S  S24  1  0.10610784  0.45967414  0.65417250  1
  S  S25  1  0.90246773  0.46898223  0.34928706  1
  S  S26  1  0.73250103  0.05271164  0.30582281  1
  S  S27  1  0.26054439  0.94800225  0.68080567  1
  S  S28  1  0.16886573  0.48163914  0.44909606  1
  S  S29  1  0.82250639  0.54338858  0.55774825  1
  S  S30  1  0.43292621  0.47754105  0.79784767  1
  S  S31  1  0.56213351  0.48567893  0.18847426  1
  S  S32  1  0.90668075  0.50431304  0.98213785  1
  S  S33  1  0.08087706  0.46984147  0.01860191  1
  S  S34  1  0.65774091  0.50071539  0.87575287  1
  S  S35  1  0.33129527  0.43125453  0.09824278  1
  S  S36  1  0.60265707  0.01295863  0.65497807  1
  S  S37  1  0.40558929  0.00599448  0.35120306  1
  S  S38  1  0.24548421  0.51825941  0.32481564  1
  S  S39  1  0.75883977  0.44618566  0.69990334  1
  S  S40  1  0.67145633  0.96548979  0.44569796  1
  S  S41  1  0.33358273  0.95156508  0.55341446  1
