# generated using pymatgen
data_Pr2Mn3(SbS3)4
_symmetry_space_group_name_H-M   'P 1'
_cell_length_a   20.02960800
_cell_length_b   3.90410600
_cell_length_c   14.95364829
_cell_angle_alpha   90.00000000
_cell_angle_beta   126.33350609
_cell_angle_gamma   90.00000000
_symmetry_Int_Tables_number   1
_chemical_formula_structural   Pr2Mn3(SbS3)4
_chemical_formula_sum   'Pr4 Mn6 Sb8 S24'
_cell_volume   942.00006694
_cell_formula_units_Z   2
loop_
 _symmetry_equiv_pos_site_id
 _symmetry_equiv_pos_as_xyz
  1  'x, y, z'
loop_
 _atom_site_type_symbol
 _atom_site_label
 _atom_site_symmetry_multiplicity
 _atom_site_fract_x
 _atom_site_fract_y
 _atom_site_fract_z
 _atom_site_occupancy
  Pr  Pr0  1  0.27267851  0.49259973  0.86572846  1
  Pr  Pr1  1  0.72688886  0.50010438  0.12821603  1
  Pr  Pr2  1  0.77094445  0.00645519  0.87265454  1
  Pr  Pr3  1  0.23094500  0.93768492  0.12784630  1
  Mn  Mn4  1  0.30060863  0.43850925  0.60348079  1
  Mn  Mn5  1  0.70288846  0.53622386  0.37108667  1
  Mn  Mn6  1  0.99271798  0.98826262  0.99505430  1
  Mn  Mn7  1  0.80133240  0.04983016  0.62889342  1
  Mn  Mn8  1  0.20718516  0.05709364  0.38916595  1
  Mn  Mn9  1  0.50160189  0.50722967  0.00363349  1
  Sb  Sb10  1  0.87878121  0.87494444  0.45102106  1
  Sb  Sb11  1  0.10903790  0.98975696  0.54347312  1
  Sb  Sb12  1  0.03470628  0.49993672  0.82204377  1
  Sb  Sb13  1  0.95998997  0.48099901  0.19143343  1
  Sb  Sb14  1  0.40641486  0.57364814  0.46556526  1
  Sb  Sb15  1  0.60449343  0.57558756  0.53435091  1
  Sb  Sb16  1  0.52055953  0.95503893  0.80089674  1
  Sb  Sb17  1  0.46195961  0.00081381  0.18732531  1
  S  S18  1  0.93247923  0.99711750  0.80516790  1
  S  S19  1  0.06925791  0.01719457  0.21890202  1
  S  S20  1  0.41542060  0.95960253  0.99097452  1
  S  S21  1  0.58102272  0.98267224  0.01488004  1
  S  S22  1  0.17020312  0.92703459  0.89898413  1
  S  S23  1  0.81814981  0.02609887  0.10046300  1
  S  S24  1  0.10609373  0.45900719  0.65430283  1
  S  S25  1  0.90267556  0.46914126  0.34939592  1
  S  S26  1  0.73244051  0.05362551  0.30593412  1
  S  S27  1  0.26067863  0.94859485  0.68084211  1
  S  S28  1  0.16921588  0.48228687  0.44936172  1
  S  S29  1  0.82279556  0.54308792  0.55773041  1
  S  S30  1  0.43290185  0.47891009  0.79800414  1
  S  S31  1  0.56200227  0.48454656  0.18840502  1
  S  S32  1  0.90653815  0.50396965  0.98210619  1
  S  S33  1  0.08111973  0.47018291  0.01879844  1
  S  S34  1  0.65775748  0.50041522  0.87591718  1
  S  S35  1  0.33083803  0.43161228  0.09782125  1
  S  S36  1  0.60281232  0.01321991  0.65523281  1
  S  S37  1  0.40561541  0.00578264  0.35154966  1
  S  S38  1  0.24559091  0.51796541  0.32490019  1
  S  S39  1  0.75894301  0.44629451  0.70010020  1
  S  S40  1  0.67124199  0.96553144  0.44531153  1
  S  S41  1  0.33352109  0.95044646  0.55348851  1
