# generated using pymatgen
data_Pr2Mn3(SbS3)4
_symmetry_space_group_name_H-M   'P 1'
_cell_length_a   20.02960800
_cell_length_b   3.90410600
_cell_length_c   14.95364829
_cell_angle_alpha   90.00000000
_cell_angle_beta   126.33350609
_cell_angle_gamma   90.00000000
_symmetry_Int_Tables_number   1
_chemical_formula_structural   Pr2Mn3(SbS3)4
_chemical_formula_sum   'Pr4 Mn6 Sb8 S24'
_cell_volume   942.00006694
_cell_formula_units_Z   2
loop_
 _symmetry_equiv_pos_site_id
 _symmetry_equiv_pos_as_xyz
  1  'x, y, z'
loop_
 _atom_site_type_symbol
 _atom_site_label
 _atom_site_symmetry_multiplicity
 _atom_site_fract_x
 _atom_site_fract_y
 _atom_site_fract_z
 _atom_site_occupancy
  Pr  Pr0  1  0.27263128  0.49200017  0.86586785  1
  Pr  Pr1  1  0.72689417  0.50037964  0.12826029  1
  Pr  Pr2  1  0.77090086  0.00653785  0.87258907  1
  Pr  Pr3  1  0.23083781  0.93807078  0.12773559  1
  Mn  Mn4  1  0.30079109  0.43865334  0.60362682  1
  Mn  Mn5  1  0.70284904  0.53629484  0.37108426  1
  Mn  Mn6  1  0.99265542  0.98737342  0.99471219  1
  Mn  Mn7  1  0.80116450  0.04956645  0.62871665  1
  Mn  Mn8  1  0.20704285  0.05757115  0.38911422  1
  Mn  Mn9  1  0.50166032  0.50770506  0.00367657  1
  Sb  Sb10  1  0.87886681  0.87492358  0.45122673  1
  Sb  Sb11  1  0.10912954  0.99029784  0.54333848  1
  Sb  Sb12  1  0.03477493  0.50028883  0.82218474  1
  Sb  Sb13  1  0.95997226  0.48112440  0.19146453  1
  Sb  Sb14  1  0.40631147  0.57343193  0.46542588  1
  Sb  Sb15  1  0.60452902  0.57556648  0.53440750  1
  Sb  Sb16  1  0.52052198  0.95537720  0.80091228  1
  Sb  Sb17  1  0.46215800  0.00130738  0.18760736  1
  S  S18  1  0.93249095  0.99697648  0.80509810  1
  S  S19  1  0.06945382  0.01737840  0.21938802  1
  S  S20  1  0.41539828  0.95932583  0.99109429  1
  S  S21  1  0.58096260  0.98326715  0.01513140  1
  S  S22  1  0.17023168  0.92869806  0.89910041  1
  S  S23  1  0.81808941  0.02666328  0.10052462  1
  S  S24  1  0.10619108  0.45839534  0.65441673  1
  S  S25  1  0.90290860  0.46925239  0.34954124  1
  S  S26  1  0.73236659  0.05469777  0.30594236  1
  S  S27  1  0.26059826  0.94950170  0.68077414  1
  S  S28  1  0.16955192  0.48307071  0.44979461  1
  S  S29  1  0.82302512  0.54303622  0.55763226  1
  S  S30  1  0.43275675  0.48039790  0.79820272  1
  S  S31  1  0.56178261  0.48344127  0.18823443  1
  S  S32  1  0.90630209  0.50380758  0.98215706  1
  S  S33  1  0.08151420  0.47020313  0.01908544  1
  S  S34  1  0.65768034  0.50025985  0.87590272  1
  S  S35  1  0.33050692  0.43170627  0.09752635  1
  S  S36  1  0.60301838  0.01404809  0.65546217  1
  S  S37  1  0.40563470  0.00578654  0.35192801  1
  S  S38  1  0.24569735  0.51779400  0.32504566  1
  S  S39  1  0.75914698  0.44670366  0.70048028  1
  S  S40  1  0.67104325  0.96561491  0.44492384  1
  S  S41  1  0.33330711  0.94914913  0.55338278  1
