# generated using pymatgen
data_Pr2Mn3(SbS3)4
_symmetry_space_group_name_H-M   'P 1'
_cell_length_a   20.02960800
_cell_length_b   3.90410600
_cell_length_c   14.95364829
_cell_angle_alpha   90.00000000
_cell_angle_beta   126.33350609
_cell_angle_gamma   90.00000000
_symmetry_Int_Tables_number   1
_chemical_formula_structural   Pr2Mn3(SbS3)4
_chemical_formula_sum   'Pr4 Mn6 Sb8 S24'
_cell_volume   942.00006694
_cell_formula_units_Z   2
loop_
 _symmetry_equiv_pos_site_id
 _symmetry_equiv_pos_as_xyz
  1  'x, y, z'
loop_
 _atom_site_type_symbol
 _atom_site_label
 _atom_site_symmetry_multiplicity
 _atom_site_fract_x
 _atom_site_fract_y
 _atom_site_fract_z
 _atom_site_occupancy
  Pr  Pr0  1  0.27254910  0.49153243  0.86601757  1
  Pr  Pr1  1  0.72694935  0.50057879  0.12834440  1
  Pr  Pr2  1  0.77087924  0.00624462  0.87249036  1
  Pr  Pr3  1  0.23070110  0.93844182  0.12764820  1
  Mn  Mn4  1  0.30097251  0.43856143  0.60364906  1
  Mn  Mn5  1  0.70287875  0.53642579  0.37099554  1
  Mn  Mn6  1  0.99261721  0.98613966  0.99442948  1
  Mn  Mn7  1  0.80104722  0.04951536  0.62855860  1
  Mn  Mn8  1  0.20695881  0.05841013  0.38901941  1
  Mn  Mn9  1  0.50173933  0.50804160  0.00359297  1
  Sb  Sb10  1  0.87899773  0.87477466  0.45147477  1
  Sb  Sb11  1  0.10918649  0.99075084  0.54326026  1
  Sb  Sb12  1  0.03478290  0.50045481  0.82230491  1
  Sb  Sb13  1  0.95998026  0.48119731  0.19151283  1
  Sb  Sb14  1  0.40628113  0.57324142  0.46536278  1
  Sb  Sb15  1  0.60459788  0.57551617  0.53446904  1
  Sb  Sb16  1  0.52055980  0.95585367  0.80103109  1
  Sb  Sb17  1  0.46228598  0.00165006  0.18780627  1
  S  S18  1  0.93235668  0.99661082  0.80493571  1
  S  S19  1  0.06969452  0.01736605  0.21988638  1
  S  S20  1  0.41539850  0.95881768  0.99125742  1
  S  S21  1  0.58096392  0.98335828  0.01540605  1
  S  S22  1  0.17020949  0.92988834  0.89908345  1
  S  S23  1  0.81808401  0.02679122  0.10072003  1
  S  S24  1  0.10635172  0.45799530  0.65462018  1
  S  S25  1  0.90312095  0.46957703  0.34961468  1
  S  S26  1  0.73222717  0.05524807  0.30572530  1
  S  S27  1  0.26067468  0.95078244  0.68078185  1
  S  S28  1  0.16976617  0.48416817  0.45007247  1
  S  S29  1  0.82315750  0.54295931  0.55744010  1
  S  S30  1  0.43259796  0.48166782  0.79838515  1
  S  S31  1  0.56150266  0.48261072  0.18800643  1
  S  S32  1  0.90614638  0.50362506  0.98222899  1
  S  S33  1  0.08185379  0.47034937  0.01938403  1
  S  S34  1  0.65761093  0.49989990  0.87593442  1
  S  S35  1  0.33018475  0.43164832  0.09724487  1
  S  S36  1  0.60319281  0.01492264  0.65574022  1
  S  S37  1  0.40559904  0.00596165  0.35202137  1
  S  S38  1  0.24575928  0.51810170  0.32516558  1
  S  S39  1  0.75944088  0.44754746  0.70077352  1
  S  S40  1  0.67085411  0.96568100  0.44470969  1
  S  S41  1  0.33304493  0.94818276  0.55322362  1
