# generated using pymatgen
data_Pr2Mn3(SbS3)4
_symmetry_space_group_name_H-M   'P 1'
_cell_length_a   20.02960800
_cell_length_b   3.90410600
_cell_length_c   14.95364829
_cell_angle_alpha   90.00000000
_cell_angle_beta   126.33350609
_cell_angle_gamma   90.00000000
_symmetry_Int_Tables_number   1
_chemical_formula_structural   Pr2Mn3(SbS3)4
_chemical_formula_sum   'Pr4 Mn6 Sb8 S24'
_cell_volume   942.00006694
_cell_formula_units_Z   2
loop_
 _symmetry_equiv_pos_site_id
 _symmetry_equiv_pos_as_xyz
  1  'x, y, z'
loop_
 _atom_site_type_symbol
 _atom_site_label
 _atom_site_symmetry_multiplicity
 _atom_site_fract_x
 _atom_site_fract_y
 _atom_site_fract_z
 _atom_site_occupancy
  Pr  Pr0  1  0.27243830  0.49137164  0.86622222  1
  Pr  Pr1  1  0.72697525  0.50077360  0.12842727  1
  Pr  Pr2  1  0.77085632  0.00591977  0.87237748  1
  Pr  Pr3  1  0.23054935  0.93883168  0.12753478  1
  Mn  Mn4  1  0.30116320  0.43847626  0.60365086  1
  Mn  Mn5  1  0.70292414  0.53668021  0.37084955  1
  Mn  Mn6  1  0.99254424  0.98497051  0.99418917  1
  Mn  Mn7  1  0.80101257  0.04971617  0.62843259  1
  Mn  Mn8  1  0.20680885  0.05908814  0.38896814  1
  Mn  Mn9  1  0.50178587  0.50839666  0.00347108  1
  Sb  Sb10  1  0.87910787  0.87470008  0.45166453  1
  Sb  Sb11  1  0.10926047  0.99120597  0.54322551  1
  Sb  Sb12  1  0.03480664  0.50079388  0.82243991  1
  Sb  Sb13  1  0.95993275  0.48121467  0.19160381  1
  Sb  Sb14  1  0.40622605  0.57326330  0.46529580  1
  Sb  Sb15  1  0.60465009  0.57516563  0.53444806  1
  Sb  Sb16  1  0.52058962  0.95623297  0.80102420  1
  Sb  Sb17  1  0.46235243  0.00213581  0.18794355  1
  S  S18  1  0.93231420  0.99595355  0.80487076  1
  S  S19  1  0.06988868  0.01666980  0.22020068  1
  S  S20  1  0.41541070  0.95803540  0.99135928  1
  S  S21  1  0.58091928  0.98326899  0.01571744  1
  S  S22  1  0.17019589  0.93036808  0.89895724  1
  S  S23  1  0.81812557  0.02750388  0.10093348  1
  S  S24  1  0.10649694  0.45715909  0.65487591  1
  S  S25  1  0.90335996  0.46976924  0.34967194  1
  S  S26  1  0.73210414  0.05547995  0.30545867  1
  S  S27  1  0.26069271  0.95202906  0.68073022  1
  S  S28  1  0.17001214  0.48530403  0.45036695  1
  S  S29  1  0.82321171  0.54238928  0.55711257  1
  S  S30  1  0.43255189  0.48255265  0.79864404  1
  S  S31  1  0.56131350  0.48217379  0.18785255  1
  S  S32  1  0.90603426  0.50365961  0.98242531  1
  S  S33  1  0.08217719  0.47037353  0.01968731  1
  S  S34  1  0.65754821  0.49909520  0.87599394  1
  S  S35  1  0.32984161  0.43194478  0.09693160  1
  S  S36  1  0.60332636  0.01552760  0.65590954  1
  S  S37  1  0.40553235  0.00663998  0.35198740  1
  S  S38  1  0.24582254  0.51830637  0.32537546  1
  S  S39  1  0.75965594  0.44825284  0.70100287  1
  S  S40  1  0.67067859  0.96631415  0.44462742  1
  S  S41  1  0.33288628  0.94757382  0.55321980  1
