# generated using pymatgen
data_Pr2Mn3(SbS3)4
_symmetry_space_group_name_H-M   'P 1'
_cell_length_a   20.02960800
_cell_length_b   3.90410600
_cell_length_c   14.95364829
_cell_angle_alpha   90.00000000
_cell_angle_beta   126.33350609
_cell_angle_gamma   90.00000000
_symmetry_Int_Tables_number   1
_chemical_formula_structural   Pr2Mn3(SbS3)4
_chemical_formula_sum   'Pr4 Mn6 Sb8 S24'
_cell_volume   942.00006694
_cell_formula_units_Z   2
loop_
 _symmetry_equiv_pos_site_id
 _symmetry_equiv_pos_as_xyz
  1  'x, y, z'
loop_
 _atom_site_type_symbol
 _atom_site_label
 _atom_site_symmetry_multiplicity
 _atom_site_fract_x
 _atom_site_fract_y
 _atom_site_fract_z
 _atom_site_occupancy
  Pr  Pr0  1  0.27226398  0.49127770  0.86632875  1
  Pr  Pr1  1  0.72697055  0.50105328  0.12844476  1
  Pr  Pr2  1  0.77079893  0.00587440  0.87231164  1
  Pr  Pr3  1  0.23043058  0.93920403  0.12741222  1
  Mn  Mn4  1  0.30143925  0.43869471  0.60369340  1
  Mn  Mn5  1  0.70298149  0.53664858  0.37075975  1
  Mn  Mn6  1  0.99253811  0.98408812  0.99392573  1
  Mn  Mn7  1  0.80099161  0.04973651  0.62832551  1
  Mn  Mn8  1  0.20682592  0.05934777  0.38909251  1
  Mn  Mn9  1  0.50191923  0.50884474  0.00340415  1
  Sb  Sb10  1  0.87926065  0.87471755  0.45187454  1
  Sb  Sb11  1  0.10935821  0.99160582  0.54327612  1
  Sb  Sb12  1  0.03483948  0.50105272  0.82259625  1
  Sb  Sb13  1  0.95991616  0.48124261  0.19164861  1
  Sb  Sb14  1  0.40619969  0.57322469  0.46523610  1
  Sb  Sb15  1  0.60470655  0.57497237  0.53446382  1
  Sb  Sb16  1  0.52061882  0.95639225  0.80104595  1
  Sb  Sb17  1  0.46240311  0.00241013  0.18805523  1
  S  S18  1  0.93220497  0.99565578  0.80479203  1
  S  S19  1  0.07001288  0.01635063  0.22036823  1
  S  S20  1  0.41533256  0.95721468  0.99132096  1
  S  S21  1  0.58088680  0.98337195  0.01610193  1
  S  S22  1  0.17021361  0.93070374  0.89897439  1
  S  S23  1  0.81825347  0.02830192  0.10126339  1
  S  S24  1  0.10656924  0.45677391  0.65507910  1
  S  S25  1  0.90358947  0.46977535  0.34973551  1
  S  S26  1  0.73203581  0.05532592  0.30526579  1
  S  S27  1  0.26076396  0.95315263  0.68074671  1
  S  S28  1  0.17034945  0.48639481  0.45068965  1
  S  S29  1  0.82320529  0.54186723  0.55673327  1
  S  S30  1  0.43255765  0.48320658  0.79898233  1
  S  S31  1  0.56105980  0.48157672  0.18767933  1
  S  S32  1  0.90606957  0.50382566  0.98268722  1
  S  S33  1  0.08242969  0.47045004  0.02005299  1
  S  S34  1  0.65748743  0.49850870  0.87599878  1
  S  S35  1  0.32949471  0.43281815  0.09663098  1
  S  S36  1  0.60356980  0.01603793  0.65622893  1
  S  S37  1  0.40534102  0.00729462  0.35195355  1
  S  S38  1  0.24597521  0.51854981  0.32576419  1
  S  S39  1  0.75991106  0.44858598  0.70109525  1
  S  S40  1  0.67064000  0.96683612  0.44461473  1
  S  S41  1  0.33280575  0.94693235  0.55322854  1
