# generated using pymatgen
data_Pr2Mn3(SbS3)4
_symmetry_space_group_name_H-M   'P 1'
_cell_length_a   20.02960800
_cell_length_b   3.90410600
_cell_length_c   14.95364829
_cell_angle_alpha   90.00000000
_cell_angle_beta   126.33350609
_cell_angle_gamma   90.00000000
_symmetry_Int_Tables_number   1
_chemical_formula_structural   Pr2Mn3(SbS3)4
_chemical_formula_sum   'Pr4 Mn6 Sb8 S24'
_cell_volume   942.00006694
_cell_formula_units_Z   2
loop_
 _symmetry_equiv_pos_site_id
 _symmetry_equiv_pos_as_xyz
  1  'x, y, z'
loop_
 _atom_site_type_symbol
 _atom_site_label
 _atom_site_symmetry_multiplicity
 _atom_site_fract_x
 _atom_site_fract_y
 _atom_site_fract_z
 _atom_site_occupancy
  Pr  Pr0  1  0.26585660  0.47925835  0.86397343  1
  Pr  Pr1  1  0.73540509  0.51566428  0.13562019  1
  Pr  Pr2  1  0.76380717  0.01604223  0.86380772  1
  Pr  Pr3  1  0.23718483  0.00662429  0.13752401  1
  Mn  Mn4  1  0.29099944  0.47501538  0.59898856  1
  Mn  Mn5  1  0.69042489  0.50088590  0.37686611  1
  Mn  Mn6  1  0.00960991  0.99130797  0.01677188  1
  Mn  Mn7  1  0.80411965  0.01721751  0.61461992  1
  Mn  Mn8  1  0.19794123  0.97803546  0.37842519  1
  Mn  Mn9  1  0.49272087  0.46785232  0.98880689  1
  Sb  Sb10  1  0.89010395  0.98064908  0.44985369  1
  Sb  Sb11  1  0.11254916  0.97710984  0.54797770  1
  Sb  Sb12  1  0.03989749  0.51825124  0.82137942  1
  Sb  Sb13  1  0.96529573  0.50493279  0.18523635  1
  Sb  Sb14  1  0.39573155  0.51058292  0.45338167  1
  Sb  Sb15  1  0.60607729  0.47225223  0.54761015  1
  Sb  Sb16  1  0.53437247  0.00294989  0.81068338  1
  Sb  Sb17  1  0.46065529  0.01541029  0.18164922  1
  S  S18  1  0.93581774  0.99316553  0.80295601  1
  S  S19  1  0.06668695  0.98551408  0.19709884  1
  S  S20  1  0.40828878  0.97867146  0.98315032  1
  S  S21  1  0.58262295  0.98291957  0.01149012  1
  S  S22  1  0.17058125  0.02105946  0.89761568  1
  S  S23  1  0.82481151  0.04238931  0.09565686  1
  S  S24  1  0.09420401  0.47043357  0.64588952  1
  S  S25  1  0.91086035  0.47169442  0.35472114  1
  S  S26  1  0.74134864  0.94595428  0.30251388  1
  S  S27  1  0.26389852  0.00345416  0.71318316  1
  S  S28  1  0.16004095  0.47741662  0.43303714  1
  S  S29  1  0.82708948  0.48306489  0.54772987  1
  S  S30  1  0.43205603  0.49979643  0.79729541  1
  S  S31  1  0.56016703  0.50649643  0.18367923  1
  S  S32  1  0.91129528  0.49230702  0.98835830  1
  S  S33  1  0.08729513  0.46767834  0.02060398  1
  S  S34  1  0.66507553  0.51039499  0.88784561  1
  S  S35  1  0.32955325  0.52652269  0.09416119  1
  S  S36  1  0.59551101  0.98832356  0.65568937  1
  S  S37  1  0.40727484  0.98406644  0.35114623  1
  S  S38  1  0.24239780  0.45385627  0.30976152  1
  S  S39  1  0.76499321  0.50279830  0.70289625  1
  S  S40  1  0.67045811  0.02899215  0.45711801  1
  S  S41  1  0.32168299  0.97619153  0.54616426  1
