# generated using pymatgen
data_Pr2Mn3(SbS3)4
_symmetry_space_group_name_H-M   'P 1'
_cell_length_a   20.02960800
_cell_length_b   3.90410600
_cell_length_c   14.95364829
_cell_angle_alpha   90.00000000
_cell_angle_beta   126.33350609
_cell_angle_gamma   90.00000000
_symmetry_Int_Tables_number   1
_chemical_formula_structural   Pr2Mn3(SbS3)4
_chemical_formula_sum   'Pr4 Mn6 Sb8 S24'
_cell_volume   942.00006694
_cell_formula_units_Z   2
loop_
 _symmetry_equiv_pos_site_id
 _symmetry_equiv_pos_as_xyz
  1  'x, y, z'
loop_
 _atom_site_type_symbol
 _atom_site_label
 _atom_site_symmetry_multiplicity
 _atom_site_fract_x
 _atom_site_fract_y
 _atom_site_fract_z
 _atom_site_occupancy
  Pr  Pr0  1  0.27217690  0.49119440  0.86642970  1
  Pr  Pr1  1  0.72697225  0.50130017  0.12845284  1
  Pr  Pr2  1  0.77079001  0.00591818  0.87233237  1
  Pr  Pr3  1  0.23031532  0.93931111  0.12728477  1
  Mn  Mn4  1  0.30168538  0.43895820  0.60379389  1
  Mn  Mn5  1  0.70309714  0.53648806  0.37069131  1
  Mn  Mn6  1  0.99260377  0.98338556  0.99371802  1
  Mn  Mn7  1  0.80095800  0.04967012  0.62822532  1
  Mn  Mn8  1  0.20682952  0.05989142  0.38920892  1
  Mn  Mn9  1  0.50202379  0.50922583  0.00328820  1
  Sb  Sb10  1  0.87940595  0.87466277  0.45207963  1
  Sb  Sb11  1  0.10945632  0.99177143  0.54330033  1
  Sb  Sb12  1  0.03484669  0.50115390  0.82276104  1
  Sb  Sb13  1  0.95988900  0.48075211  0.19163558  1
  Sb  Sb14  1  0.40623352  0.57314723  0.46520442  1
  Sb  Sb15  1  0.60477449  0.57493285  0.53444118  1
  Sb  Sb16  1  0.52061146  0.95629366  0.80102260  1
  Sb  Sb17  1  0.46239380  0.00242611  0.18810904  1
  S  S18  1  0.93213810  0.99460027  0.80472719  1
  S  S19  1  0.07015142  0.01615471  0.22060156  1
  S  S20  1  0.41509021  0.95611201  0.99111220  1
  S  S21  1  0.58075749  0.98353471  0.01650234  1
  S  S22  1  0.17016384  0.93130395  0.89901375  1
  S  S23  1  0.81835986  0.02910654  0.10164096  1
  S  S24  1  0.10665206  0.45700866  0.65526320  1
  S  S25  1  0.90381246  0.47029202  0.34984438  1
  S  S26  1  0.73194275  0.05525403  0.30520458  1
  S  S27  1  0.26083790  0.95382955  0.68077541  1
  S  S28  1  0.17056214  0.48739279  0.45094516  1
  S  S29  1  0.82324464  0.54120455  0.55654208  1
  S  S30  1  0.43250362  0.48342043  0.79940950  1
  S  S31  1  0.56080589  0.48082129  0.18752012  1
  S  S32  1  0.90613407  0.50373204  0.98293351  1
  S  S33  1  0.08266111  0.46993947  0.02038635  1
  S  S34  1  0.65751419  0.49827785  0.87601586  1
  S  S35  1  0.32921392  0.43343262  0.09634871  1
  S  S36  1  0.60380809  0.01624451  0.65647160  1
  S  S37  1  0.40513960  0.00766426  0.35199767  1
  S  S38  1  0.24613530  0.51898880  0.32613082  1
  S  S39  1  0.76014911  0.44861293  0.70102139  1
  S  S40  1  0.67069254  0.96798343  0.44476276  1
  S  S41  1  0.33270607  0.94674548  0.55317360  1
