# generated using pymatgen
data_Pr2Mn3(SbS3)4
_symmetry_space_group_name_H-M   'P 1'
_cell_length_a   20.02960800
_cell_length_b   3.90410600
_cell_length_c   14.95364829
_cell_angle_alpha   90.00000000
_cell_angle_beta   126.33350609
_cell_angle_gamma   90.00000000
_symmetry_Int_Tables_number   1
_chemical_formula_structural   Pr2Mn3(SbS3)4
_chemical_formula_sum   'Pr4 Mn6 Sb8 S24'
_cell_volume   942.00006694
_cell_formula_units_Z   2
loop_
 _symmetry_equiv_pos_site_id
 _symmetry_equiv_pos_as_xyz
  1  'x, y, z'
loop_
 _atom_site_type_symbol
 _atom_site_label
 _atom_site_symmetry_multiplicity
 _atom_site_fract_x
 _atom_site_fract_y
 _atom_site_fract_z
 _atom_site_occupancy
  Pr  Pr0  1  0.27218868  0.49119373  0.86661829  1
  Pr  Pr1  1  0.72696211  0.50156020  0.12840996  1
  Pr  Pr2  1  0.77076545  0.00589455  0.87237464  1
  Pr  Pr3  1  0.23019818  0.93938078  0.12716714  1
  Mn  Mn4  1  0.30190040  0.43974423  0.60394921  1
  Mn  Mn5  1  0.70326947  0.53637952  0.37065164  1
  Mn  Mn6  1  0.99253745  0.98264994  0.99340352  1
  Mn  Mn7  1  0.80084619  0.04966592  0.62807238  1
  Mn  Mn8  1  0.20673540  0.06062297  0.38918622  1
  Mn  Mn9  1  0.50210469  0.50914868  0.00309990  1
  Sb  Sb10  1  0.87951758  0.87468124  0.45226755  1
  Sb  Sb11  1  0.10954766  0.99215596  0.54332256  1
  Sb  Sb12  1  0.03484567  0.50125383  0.82294141  1
  Sb  Sb13  1  0.95983775  0.48039340  0.19156797  1
  Sb  Sb14  1  0.40628334  0.57290742  0.46522720  1
  Sb  Sb15  1  0.60479012  0.57497849  0.53438640  1
  Sb  Sb16  1  0.52062628  0.95606138  0.80101312  1
  Sb  Sb17  1  0.46248908  0.00260919  0.18813402  1
  S  S18  1  0.93218563  0.99337348  0.80461932  1
  S  S19  1  0.07024804  0.01579552  0.22075306  1
  S  S20  1  0.41492742  0.95533623  0.99091746  1
  S  S21  1  0.58053650  0.98385126  0.01680380  1
  S  S22  1  0.17006641  0.93225556  0.89898508  1
  S  S23  1  0.81846128  0.03010873  0.10203851  1
  S  S24  1  0.10680708  0.45708236  0.65556046  1
  S  S25  1  0.90405722  0.47049003  0.35003976  1
  S  S26  1  0.73184931  0.05531281  0.30499518  1
  S  S27  1  0.26104708  0.95443705  0.68103759  1
  S  S28  1  0.17082606  0.48809819  0.45127462  1
  S  S29  1  0.82320844  0.54067531  0.55627546  1
  S  S30  1  0.43249605  0.48384233  0.79979191  1
  S  S31  1  0.56055504  0.48005559  0.18735224  1
  S  S32  1  0.90617570  0.50294294  0.98295105  1
  S  S33  1  0.08283217  0.46940424  0.02058771  1
  S  S34  1  0.65749675  0.49816956  0.87608321  1
  S  S35  1  0.32893823  0.43441531  0.09602349  1
  S  S36  1  0.60398160  0.01661155  0.65668914  1
  S  S37  1  0.40480477  0.00791774  0.35182014  1
  S  S38  1  0.24634650  0.51910332  0.32654056  1
  S  S39  1  0.76032256  0.44860600  0.70083059  1
  S  S40  1  0.67078036  0.96915683  0.44497077  1
  S  S41  1  0.33269899  0.94629199  0.55335822  1
