# generated using pymatgen
data_Pr2Mn3(SbS3)4
_symmetry_space_group_name_H-M   'P 1'
_cell_length_a   20.02960800
_cell_length_b   3.90410600
_cell_length_c   14.95364829
_cell_angle_alpha   90.00000000
_cell_angle_beta   126.33350609
_cell_angle_gamma   90.00000000
_symmetry_Int_Tables_number   1
_chemical_formula_structural   Pr2Mn3(SbS3)4
_chemical_formula_sum   'Pr4 Mn6 Sb8 S24'
_cell_volume   942.00006694
_cell_formula_units_Z   2
loop_
 _symmetry_equiv_pos_site_id
 _symmetry_equiv_pos_as_xyz
  1  'x, y, z'
loop_
 _atom_site_type_symbol
 _atom_site_label
 _atom_site_symmetry_multiplicity
 _atom_site_fract_x
 _atom_site_fract_y
 _atom_site_fract_z
 _atom_site_occupancy
  Pr  Pr0  1  0.27217413  0.49112127  0.86676734  1
  Pr  Pr1  1  0.72700394  0.50155542  0.12844117  1
  Pr  Pr2  1  0.77076858  0.00575520  0.87242333  1
  Pr  Pr3  1  0.23010588  0.93949330  0.12711847  1
  Mn  Mn4  1  0.30216593  0.44029337  0.60413809  1
  Mn  Mn5  1  0.70349789  0.53624049  0.37068463  1
  Mn  Mn6  1  0.99243233  0.98194664  0.99304008  1
  Mn  Mn7  1  0.80069829  0.04947849  0.62784162  1
  Mn  Mn8  1  0.20667074  0.06108650  0.38908341  1
  Mn  Mn9  1  0.50220224  0.50893669  0.00296346  1
  Sb  Sb10  1  0.87965320  0.87462711  0.45245455  1
  Sb  Sb11  1  0.10957808  0.99264460  0.54328061  1
  Sb  Sb12  1  0.03483866  0.50108147  0.82311320  1
  Sb  Sb13  1  0.95979437  0.48032115  0.19153215  1
  Sb  Sb14  1  0.40632069  0.57298594  0.46519990  1
  Sb  Sb15  1  0.60474875  0.57494123  0.53432137  1
  Sb  Sb16  1  0.52067282  0.95598276  0.80099111  1
  Sb  Sb17  1  0.46257927  0.00283266  0.18812739  1
  S  S18  1  0.93212318  0.99288062  0.80437366  1
  S  S19  1  0.07030019  0.01574399  0.22103680  1
  S  S20  1  0.41474806  0.95496920  0.99081018  1
  S  S21  1  0.58024491  0.98394029  0.01696271  1
  S  S22  1  0.16994411  0.93349402  0.89884171  1
  S  S23  1  0.81848632  0.03066797  0.10240814  1
  S  S24  1  0.10685027  0.45780715  0.65571058  1
  S  S25  1  0.90432769  0.47103662  0.35025179  1
  S  S26  1  0.73176186  0.05571228  0.30494149  1
  S  S27  1  0.26118120  0.95455110  0.68131838  1
  S  S28  1  0.17111775  0.48862768  0.45160083  1
  S  S29  1  0.82302338  0.53977518  0.55598970  1
  S  S30  1  0.43227941  0.48391780  0.79993656  1
  S  S31  1  0.56028947  0.47928099  0.18729156  1
  S  S32  1  0.90613161  0.50199344  0.98284946  1
  S  S33  1  0.08299918  0.46916614  0.02067075  1
  S  S34  1  0.65750785  0.49834839  0.87612501  1
  S  S35  1  0.32863872  0.43507560  0.09569256  1
  S  S36  1  0.60404136  0.01684367  0.65678103  1
  S  S37  1  0.40454865  0.00844838  0.35164933  1
  S  S38  1  0.24663672  0.51923899  0.32714291  1
  S  S39  1  0.76042719  0.44824613  0.70061769  1
  S  S40  1  0.67077669  0.97041974  0.44509745  1
  S  S41  1  0.33254345  0.94539267  0.55339013  1
