# generated using pymatgen
data_Pr2Mn3(SbS3)4
_symmetry_space_group_name_H-M   'P 1'
_cell_length_a   20.02960800
_cell_length_b   3.90410600
_cell_length_c   14.95364829
_cell_angle_alpha   90.00000000
_cell_angle_beta   126.33350609
_cell_angle_gamma   90.00000000
_symmetry_Int_Tables_number   1
_chemical_formula_structural   Pr2Mn3(SbS3)4
_chemical_formula_sum   'Pr4 Mn6 Sb8 S24'
_cell_volume   942.00006694
_cell_formula_units_Z   2
loop_
 _symmetry_equiv_pos_site_id
 _symmetry_equiv_pos_as_xyz
  1  'x, y, z'
loop_
 _atom_site_type_symbol
 _atom_site_label
 _atom_site_symmetry_multiplicity
 _atom_site_fract_x
 _atom_site_fract_y
 _atom_site_fract_z
 _atom_site_occupancy
  Pr  Pr0  1  0.27217956  0.49105880  0.86696422  1
  Pr  Pr1  1  0.72703454  0.50134501  0.12853156  1
  Pr  Pr2  1  0.77076000  0.00566333  0.87243073  1
  Pr  Pr3  1  0.23003313  0.93959927  0.12704146  1
  Mn  Mn4  1  0.30240729  0.44067777  0.60431730  1
  Mn  Mn5  1  0.70366156  0.53576621  0.37066359  1
  Mn  Mn6  1  0.99228670  0.98160540  0.99259357  1
  Mn  Mn7  1  0.80054862  0.04941319  0.62762152  1
  Mn  Mn8  1  0.20665478  0.06150655  0.38903919  1
  Mn  Mn9  1  0.50225869  0.50883788  0.00274895  1
  Sb  Sb10  1  0.87979625  0.87468867  0.45266018  1
  Sb  Sb11  1  0.10957809  0.99290387  0.54329109  1
  Sb  Sb12  1  0.03482512  0.50115712  0.82327022  1
  Sb  Sb13  1  0.95977807  0.48022293  0.19156425  1
  Sb  Sb14  1  0.40637379  0.57300062  0.46516705  1
  Sb  Sb15  1  0.60464995  0.57478171  0.53418914  1
  Sb  Sb16  1  0.52076448  0.95587964  0.80103169  1
  Sb  Sb17  1  0.46263353  0.00304353  0.18809427  1
  S  S18  1  0.93219752  0.99225084  0.80424582  1
  S  S19  1  0.07035103  0.01569627  0.22121571  1
  S  S20  1  0.41469505  0.95413500  0.99081290  1
  S  S21  1  0.57995529  0.98414688  0.01702728  1
  S  S22  1  0.16985539  0.93466434  0.89883204  1
  S  S23  1  0.81841133  0.03162771  0.10256927  1
  S  S24  1  0.10674909  0.45887318  0.65562477  1
  S  S25  1  0.90448597  0.47178887  0.35049474  1
  S  S26  1  0.73168507  0.05600585  0.30491746  1
  S  S27  1  0.26137240  0.95453983  0.68160637  1
  S  S28  1  0.17162795  0.48944498  0.45208490  1
  S  S29  1  0.82267488  0.53906261  0.55552353  1
  S  S30  1  0.43208087  0.48426382  0.80015119  1
  S  S31  1  0.56005102  0.47853582  0.18722383  1
  S  S32  1  0.90625864  0.50102864  0.98301450  1
  S  S33  1  0.08312252  0.46896643  0.02076687  1
  S  S34  1  0.65749833  0.49818901  0.87615512  1
  S  S35  1  0.32849791  0.43583440  0.09561110  1
  S  S36  1  0.60394933  0.01724542  0.65671554  1
  S  S37  1  0.40426877  0.00927839  0.35155442  1
  S  S38  1  0.24687218  0.51888847  0.32767885  1
  S  S39  1  0.76058429  0.44832322  0.70071629  1
  S  S40  1  0.67076761  0.97136121  0.44539621  1
  S  S41  1  0.33243446  0.94455472  0.55354356  1
