# generated using pymatgen
data_Pr2Mn3(SbS3)4
_symmetry_space_group_name_H-M   'P 1'
_cell_length_a   20.02960800
_cell_length_b   3.90410600
_cell_length_c   14.95364829
_cell_angle_alpha   90.00000000
_cell_angle_beta   126.33350609
_cell_angle_gamma   90.00000000
_symmetry_Int_Tables_number   1
_chemical_formula_structural   Pr2Mn3(SbS3)4
_chemical_formula_sum   'Pr4 Mn6 Sb8 S24'
_cell_volume   942.00006694
_cell_formula_units_Z   2
loop_
 _symmetry_equiv_pos_site_id
 _symmetry_equiv_pos_as_xyz
  1  'x, y, z'
loop_
 _atom_site_type_symbol
 _atom_site_label
 _atom_site_symmetry_multiplicity
 _atom_site_fract_x
 _atom_site_fract_y
 _atom_site_fract_z
 _atom_site_occupancy
  Pr  Pr0  1  0.27218373  0.49093902  0.86709967  1
  Pr  Pr1  1  0.72711523  0.50117056  0.12863073  1
  Pr  Pr2  1  0.77074686  0.00574517  0.87248476  1
  Pr  Pr3  1  0.22990919  0.93974260  0.12693967  1
  Mn  Mn4  1  0.30270180  0.44101089  0.60462270  1
  Mn  Mn5  1  0.70379398  0.53553983  0.37065024  1
  Mn  Mn6  1  0.99219948  0.98117513  0.99218656  1
  Mn  Mn7  1  0.80040039  0.04907311  0.62739892  1
  Mn  Mn8  1  0.20659623  0.06191457  0.38891314  1
  Mn  Mn9  1  0.50230097  0.50889467  0.00242895  1
  Sb  Sb10  1  0.87994295  0.87467765  0.45290347  1
  Sb  Sb11  1  0.10962180  0.99337085  0.54332336  1
  Sb  Sb12  1  0.03484332  0.50121685  0.82344314  1
  Sb  Sb13  1  0.95973176  0.48012864  0.19155958  1
  Sb  Sb14  1  0.40643078  0.57295901  0.46519173  1
  Sb  Sb15  1  0.60457120  0.57445851  0.53411545  1
  Sb  Sb16  1  0.52084822  0.95582316  0.80107470  1
  Sb  Sb17  1  0.46273367  0.00312289  0.18816668  1
  S  S18  1  0.93236173  0.99184694  0.80416635  1
  S  S19  1  0.07035759  0.01550595  0.22121491  1
  S  S20  1  0.41461841  0.95369040  0.99079701  1
  S  S21  1  0.57955428  0.98428093  0.01696472  1
  S  S22  1  0.16977131  0.93576469  0.89891427  1
  S  S23  1  0.81839347  0.03319106  0.10275021  1
  S  S24  1  0.10668050  0.46014511  0.65552659  1
  S  S25  1  0.90461975  0.47286268  0.35069754  1
  S  S26  1  0.73156657  0.05627549  0.30493088  1
  S  S27  1  0.26149617  0.95479402  0.68186565  1
  S  S28  1  0.17217194  0.49043414  0.45258754  1
  S  S29  1  0.82221000  0.53849243  0.55493402  1
  S  S30  1  0.43176126  0.48479246  0.80018636  1
  S  S31  1  0.55981569  0.47765381  0.18731723  1
  S  S32  1  0.90645427  0.50022474  0.98316371  1
  S  S33  1  0.08318560  0.46880032  0.02093080  1
  S  S34  1  0.65748378  0.49780469  0.87618424  1
  S  S35  1  0.32843569  0.43651065  0.09557205  1
  S  S36  1  0.60385004  0.01787146  0.65682296  1
  S  S37  1  0.40396529  0.00961243  0.35142893  1
  S  S38  1  0.24698067  0.51781334  0.32815133  1
  S  S39  1  0.76061151  0.44803525  0.70067646  1
  S  S40  1  0.67066199  0.97223000  0.44551415  1
  S  S41  1  0.33245354  0.94405961  0.55378020  1
