# generated using pymatgen
data_Pr2Mn3(SbS3)4
_symmetry_space_group_name_H-M   'P 1'
_cell_length_a   20.02960800
_cell_length_b   3.90410600
_cell_length_c   14.95364829
_cell_angle_alpha   90.00000000
_cell_angle_beta   126.33350609
_cell_angle_gamma   90.00000000
_symmetry_Int_Tables_number   1
_chemical_formula_structural   Pr2Mn3(SbS3)4
_chemical_formula_sum   'Pr4 Mn6 Sb8 S24'
_cell_volume   942.00006694
_cell_formula_units_Z   2
loop_
 _symmetry_equiv_pos_site_id
 _symmetry_equiv_pos_as_xyz
  1  'x, y, z'
loop_
 _atom_site_type_symbol
 _atom_site_label
 _atom_site_symmetry_multiplicity
 _atom_site_fract_x
 _atom_site_fract_y
 _atom_site_fract_z
 _atom_site_occupancy
  Pr  Pr0  1  0.27220219  0.49057745  0.86721309  1
  Pr  Pr1  1  0.72718367  0.50087042  0.12872480  1
  Pr  Pr2  1  0.77069411  0.00586202  0.87246373  1
  Pr  Pr3  1  0.22977535  0.93991312  0.12678360  1
  Mn  Mn4  1  0.30301407  0.44121032  0.60491323  1
  Mn  Mn5  1  0.70391801  0.53542869  0.37062780  1
  Mn  Mn6  1  0.99214427  0.98072007  0.99184349  1
  Mn  Mn7  1  0.80033915  0.04908776  0.62737674  1
  Mn  Mn8  1  0.20656899  0.06250993  0.38891992  1
  Mn  Mn9  1  0.50237068  0.50903644  0.00207016  1
  Sb  Sb10  1  0.88003417  0.87484290  0.45306918  1
  Sb  Sb11  1  0.10969066  0.99389614  0.54332179  1
  Sb  Sb12  1  0.03482881  0.50114888  0.82365409  1
  Sb  Sb13  1  0.95967051  0.48013814  0.19155913  1
  Sb  Sb14  1  0.40650597  0.57303279  0.46518825  1
  Sb  Sb15  1  0.60449733  0.57401390  0.53402270  1
  Sb  Sb16  1  0.52096693  0.95594398  0.80113957  1
  Sb  Sb17  1  0.46286506  0.00288170  0.18827964  1
  S  S18  1  0.93252612  0.99131250  0.80402896  1
  S  S19  1  0.07026282  0.01557764  0.22113642  1
  S  S20  1  0.41450118  0.95323845  0.99060933  1
  S  S21  1  0.57918835  0.98444442  0.01683124  1
  S  S22  1  0.16972313  0.93687842  0.89901291  1
  S  S23  1  0.81841868  0.03494298  0.10303590  1
  S  S24  1  0.10663084  0.46126365  0.65544670  1
  S  S25  1  0.90470553  0.47417966  0.35073707  1
  S  S26  1  0.73146173  0.05653482  0.30497034  1
  S  S27  1  0.26164123  0.95493240  0.68211144  1
  S  S28  1  0.17278070  0.49133081  0.45305427  1
  S  S29  1  0.82173035  0.53774507  0.55423580  1
  S  S30  1  0.43136756  0.48545386  0.80001704  1
  S  S31  1  0.55953529  0.47674955  0.18743215  1
  S  S32  1  0.90664755  0.50011282  0.98334755  1
  S  S33  1  0.08319998  0.46928150  0.02107690  1
  S  S34  1  0.65747270  0.49745437  0.87616376  1
  S  S35  1  0.32829518  0.43718551  0.09555114  1
  S  S36  1  0.60386599  0.01794322  0.65709607  1
  S  S37  1  0.40360989  0.00966111  0.35124480  1
  S  S38  1  0.24693764  0.51679754  0.32851368  1
  S  S39  1  0.76055410  0.44753038  0.70048236  1
  S  S40  1  0.67064495  0.97353696  0.44579198  1
  S  S41  1  0.33244442  0.94391402  0.55402429  1
