# generated using pymatgen
data_Pr2Mn3(SbS3)4
_symmetry_space_group_name_H-M   'P 1'
_cell_length_a   20.02960800
_cell_length_b   3.90410600
_cell_length_c   14.95364829
_cell_angle_alpha   90.00000000
_cell_angle_beta   126.33350609
_cell_angle_gamma   90.00000000
_symmetry_Int_Tables_number   1
_chemical_formula_structural   Pr2Mn3(SbS3)4
_chemical_formula_sum   'Pr4 Mn6 Sb8 S24'
_cell_volume   942.00006694
_cell_formula_units_Z   2
loop_
 _symmetry_equiv_pos_site_id
 _symmetry_equiv_pos_as_xyz
  1  'x, y, z'
loop_
 _atom_site_type_symbol
 _atom_site_label
 _atom_site_symmetry_multiplicity
 _atom_site_fract_x
 _atom_site_fract_y
 _atom_site_fract_z
 _atom_site_occupancy
  Pr  Pr0  1  0.27221586  0.49034909  0.86731100  1
  Pr  Pr1  1  0.72722271  0.50037652  0.12882906  1
  Pr  Pr2  1  0.77066835  0.00588017  0.87247652  1
  Pr  Pr3  1  0.22962376  0.94003772  0.12665749  1
  Mn  Mn4  1  0.30329107  0.44123708  0.60508594  1
  Mn  Mn5  1  0.70406985  0.53512095  0.37063518  1
  Mn  Mn6  1  0.99215044  0.98056092  0.99161085  1
  Mn  Mn7  1  0.80038952  0.04923376  0.62739883  1
  Mn  Mn8  1  0.20660969  0.06265711  0.38902796  1
  Mn  Mn9  1  0.50243606  0.50908437  0.00162887  1
  Sb  Sb10  1  0.88010541  0.87505944  0.45326612  1
  Sb  Sb11  1  0.10974882  0.99424113  0.54338566  1
  Sb  Sb12  1  0.03478645  0.50111677  0.82387163  1
  Sb  Sb13  1  0.95960443  0.48019784  0.19153534  1
  Sb  Sb14  1  0.40653745  0.57308838  0.46517810  1
  Sb  Sb15  1  0.60444901  0.57330181  0.53391541  1
  Sb  Sb16  1  0.52103870  0.95607728  0.80119256  1
  Sb  Sb17  1  0.46298339  0.00267007  0.18831320  1
  S  S18  1  0.93254482  0.99026760  0.80380366  1
  S  S19  1  0.07001165  0.01578762  0.22099338  1
  S  S20  1  0.41441625  0.95250376  0.99044981  1
  S  S21  1  0.57882740  0.98532501  0.01681421  1
  S  S22  1  0.16964786  0.93802046  0.89906080  1
  S  S23  1  0.81852687  0.03671975  0.10333702  1
  S  S24  1  0.10664464  0.46187226  0.65547772  1
  S  S25  1  0.90471662  0.47527338  0.35065574  1
  S  S26  1  0.73136727  0.05647984  0.30497039  1
  S  S27  1  0.26179879  0.95453542  0.68237638  1
  S  S28  1  0.17328217  0.49205926  0.45335623  1
  S  S29  1  0.82132418  0.53699506  0.55372589  1
  S  S30  1  0.43106353  0.48595950  0.79985877  1
  S  S31  1  0.55936459  0.47563257  0.18730021  1
  S  S32  1  0.90674338  0.50010515  0.98341789  1
  S  S33  1  0.08324803  0.46992085  0.02135027  1
  S  S34  1  0.65735578  0.49724141  0.87608941  1
  S  S35  1  0.32812846  0.43771181  0.09556969  1
  S  S36  1  0.60385322  0.01762385  0.65724506  1
  S  S37  1  0.40325085  0.00937533  0.35104252  1
  S  S38  1  0.24692985  0.51590366  0.32871480  1
  S  S39  1  0.76053330  0.44661553  0.70027990  1
  S  S40  1  0.67066296  0.97463667  0.44611589  1
  S  S41  1  0.33237229  0.94383171  0.55418861  1
