# generated using pymatgen
data_Pr2Mn3(SbS3)4
_symmetry_space_group_name_H-M   'P 1'
_cell_length_a   20.02960800
_cell_length_b   3.90410600
_cell_length_c   14.95364829
_cell_angle_alpha   90.00000000
_cell_angle_beta   126.33350609
_cell_angle_gamma   90.00000000
_symmetry_Int_Tables_number   1
_chemical_formula_structural   Pr2Mn3(SbS3)4
_chemical_formula_sum   'Pr4 Mn6 Sb8 S24'
_cell_volume   942.00006694
_cell_formula_units_Z   2
loop_
 _symmetry_equiv_pos_site_id
 _symmetry_equiv_pos_as_xyz
  1  'x, y, z'
loop_
 _atom_site_type_symbol
 _atom_site_label
 _atom_site_symmetry_multiplicity
 _atom_site_fract_x
 _atom_site_fract_y
 _atom_site_fract_z
 _atom_site_occupancy
  Pr  Pr0  1  0.27232288  0.49010870  0.86750877  1
  Pr  Pr1  1  0.72719956  0.49992971  0.12886871  1
  Pr  Pr2  1  0.77063037  0.00574972  0.87243109  1
  Pr  Pr3  1  0.22946283  0.94033770  0.12648589  1
  Mn  Mn4  1  0.30359209  0.44119060  0.60535146  1
  Mn  Mn5  1  0.70418527  0.53494340  0.37063947  1
  Mn  Mn6  1  0.99211898  0.98082431  0.99144547  1
  Mn  Mn7  1  0.80051608  0.04952580  0.62745881  1
  Mn  Mn8  1  0.20669569  0.06298343  0.38913557  1
  Mn  Mn9  1  0.50249079  0.50932716  0.00128892  1
  Sb  Sb10  1  0.88017637  0.87509131  0.45342139  1
  Sb  Sb11  1  0.10976965  0.99436157  0.54340143  1
  Sb  Sb12  1  0.03475135  0.50119539  0.82408869  1
  Sb  Sb13  1  0.95948863  0.48034524  0.19144915  1
  Sb  Sb14  1  0.40653358  0.57302838  0.46509659  1
  Sb  Sb15  1  0.60444495  0.57290295  0.53386913  1
  Sb  Sb16  1  0.52107292  0.95601810  0.80122180  1
  Sb  Sb17  1  0.46308596  0.00239415  0.18838745  1
  S  S18  1  0.93249713  0.98978129  0.80353537  1
  S  S19  1  0.06980239  0.01535738  0.22088447  1
  S  S20  1  0.41432468  0.95233697  0.99025826  1
  S  S21  1  0.57849724  0.98563817  0.01666754  1
  S  S22  1  0.16967039  0.93930989  0.89913574  1
  S  S23  1  0.81867881  0.03777250  0.10359918  1
  S  S24  1  0.10662109  0.46278986  0.65539776  1
  S  S25  1  0.90485929  0.47571250  0.35078836  1
  S  S26  1  0.73129037  0.05632335  0.30496456  1
  S  S27  1  0.26191590  0.95454083  0.68258266  1
  S  S28  1  0.17374387  0.49298675  0.45361668  1
  S  S29  1  0.82101762  0.53672787  0.55329594  1
  S  S30  1  0.43076486  0.48657116  0.79977653  1
  S  S31  1  0.55914150  0.47497608  0.18713049  1
  S  S32  1  0.90687381  0.50077168  0.98355258  1
  S  S33  1  0.08321046  0.47031065  0.02156749  1
  S  S34  1  0.65731839  0.49655391  0.87600701  1
  S  S35  1  0.32779781  0.43809240  0.09546213  1
  S  S36  1  0.60386818  0.01729494  0.65742649  1
  S  S37  1  0.40297505  0.00939520  0.35091842  1
  S  S38  1  0.24696960  0.51543359  0.32880298  1
  S  S39  1  0.76047230  0.44543332  0.70013727  1
  S  S40  1  0.67061056  0.97543645  0.44647000  1
  S  S41  1  0.33220898  0.94381832  0.55429052  1
