# generated using pymatgen
data_Pr2Mn3(SbS3)4
_symmetry_space_group_name_H-M   'P 1'
_cell_length_a   20.02960800
_cell_length_b   3.90410600
_cell_length_c   14.95364829
_cell_angle_alpha   90.00000000
_cell_angle_beta   126.33350609
_cell_angle_gamma   90.00000000
_symmetry_Int_Tables_number   1
_chemical_formula_structural   Pr2Mn3(SbS3)4
_chemical_formula_sum   'Pr4 Mn6 Sb8 S24'
_cell_volume   942.00006694
_cell_formula_units_Z   2
loop_
 _symmetry_equiv_pos_site_id
 _symmetry_equiv_pos_as_xyz
  1  'x, y, z'
loop_
 _atom_site_type_symbol
 _atom_site_label
 _atom_site_symmetry_multiplicity
 _atom_site_fract_x
 _atom_site_fract_y
 _atom_site_fract_z
 _atom_site_occupancy
  Pr  Pr0  1  0.27234340  0.48989046  0.86768025  1
  Pr  Pr1  1  0.72725394  0.49947498  0.12897198  1
  Pr  Pr2  1  0.77054472  0.00568599  0.87235208  1
  Pr  Pr3  1  0.22938610  0.94048111  0.12643329  1
  Mn  Mn4  1  0.30394931  0.44146882  0.60563551  1
  Mn  Mn5  1  0.70431867  0.53454035  0.37064165  1
  Mn  Mn6  1  0.99214987  0.98094391  0.99130541  1
  Mn  Mn7  1  0.80074410  0.04972609  0.62760827  1
  Mn  Mn8  1  0.20678227  0.06344203  0.38915602  1
  Mn  Mn9  1  0.50253010  0.50921024  0.00101337  1
  Sb  Sb10  1  0.88025706  0.87530550  0.45357064  1
  Sb  Sb11  1  0.10975177  0.99446104  0.54337238  1
  Sb  Sb12  1  0.03474650  0.50129096  0.82429270  1
  Sb  Sb13  1  0.95939693  0.48035734  0.19138701  1
  Sb  Sb14  1  0.40659339  0.57294748  0.46504706  1
  Sb  Sb15  1  0.60448234  0.57235209  0.53384450  1
  Sb  Sb16  1  0.52105912  0.95585544  0.80123226  1
  Sb  Sb17  1  0.46319365  0.00199911  0.18847182  1
  S  S18  1  0.93245549  0.98919310  0.80344042  1
  S  S19  1  0.06963596  0.01497583  0.22070809  1
  S  S20  1  0.41407171  0.95243387  0.98997074  1
  S  S21  1  0.57817443  0.98601751  0.01647283  1
  S  S22  1  0.16963951  0.94058120  0.89914094  1
  S  S23  1  0.81876766  0.03884650  0.10394277  1
  S  S24  1  0.10676550  0.46283866  0.65546221  1
  S  S25  1  0.90506643  0.47603583  0.35101615  1
  S  S26  1  0.73127767  0.05652274  0.30508152  1
  S  S27  1  0.26210671  0.95485891  0.68289359  1
  S  S28  1  0.17431070  0.49364486  0.45403992  1
  S  S29  1  0.82079848  0.53611541  0.55295825  1
  S  S30  1  0.43061199  0.48697591  0.79981106  1
  S  S31  1  0.55899095  0.47427800  0.18716433  1
  S  S32  1  0.90694587  0.50166175  0.98349699  1
  S  S33  1  0.08316255  0.47015729  0.02164150  1
  S  S34  1  0.65722038  0.49654653  0.87603539  1
  S  S35  1  0.32759946  0.43885676  0.09534886  1
  S  S36  1  0.60377368  0.01718186  0.65750720  1
  S  S37  1  0.40274710  0.00951046  0.35080083  1
  S  S38  1  0.24689668  0.51502540  0.32871719  1
  S  S39  1  0.76025517  0.44411374  0.69988037  1
  S  S40  1  0.67052028  0.97600057  0.44686741  1
  S  S41  1  0.33199210  0.94436261  0.55430945  1
