# generated using pymatgen
data_Pr2Mn3(SbS3)4
_symmetry_space_group_name_H-M   'P 1'
_cell_length_a   20.02960800
_cell_length_b   3.90410600
_cell_length_c   14.95364829
_cell_angle_alpha   90.00000000
_cell_angle_beta   126.33350609
_cell_angle_gamma   90.00000000
_symmetry_Int_Tables_number   1
_chemical_formula_structural   Pr2Mn3(SbS3)4
_chemical_formula_sum   'Pr4 Mn6 Sb8 S24'
_cell_volume   942.00006694
_cell_formula_units_Z   2
loop_
 _symmetry_equiv_pos_site_id
 _symmetry_equiv_pos_as_xyz
  1  'x, y, z'
loop_
 _atom_site_type_symbol
 _atom_site_label
 _atom_site_symmetry_multiplicity
 _atom_site_fract_x
 _atom_site_fract_y
 _atom_site_fract_z
 _atom_site_occupancy
  Pr  Pr0  1  0.27237544  0.48957563  0.86786775  1
  Pr  Pr1  1  0.72735223  0.49911065  0.12911194  1
  Pr  Pr2  1  0.77049972  0.00545380  0.87233366  1
  Pr  Pr3  1  0.22934557  0.94045230  0.12645530  1
  Mn  Mn4  1  0.30426134  0.44172511  0.60590666  1
  Mn  Mn5  1  0.70441154  0.53462524  0.37050000  1
  Mn  Mn6  1  0.99217584  0.98077433  0.99120627  1
  Mn  Mn7  1  0.80101466  0.04989602  0.62777122  1
  Mn  Mn8  1  0.20688092  0.06417857  0.38913157  1
  Mn  Mn9  1  0.50255630  0.50919036  0.00077004  1
  Sb  Sb10  1  0.88028190  0.87574040  0.45358699  1
  Sb  Sb11  1  0.10975113  0.99480868  0.54337453  1
  Sb  Sb12  1  0.03469150  0.50148448  0.82439809  1
  Sb  Sb13  1  0.95929442  0.48056690  0.19129402  1
  Sb  Sb14  1  0.40661507  0.57280206  0.46498094  1
  Sb  Sb15  1  0.60454388  0.57170789  0.53379325  1
  Sb  Sb16  1  0.52108466  0.95575579  0.80126247  1
  Sb  Sb17  1  0.46329264  0.00161565  0.18858015  1
  S  S18  1  0.93223088  0.98850244  0.80334662  1
  S  S19  1  0.06940207  0.01473439  0.22052665  1
  S  S20  1  0.41379506  0.95202436  0.98973258  1
  S  S21  1  0.57775637  0.98610853  0.01615295  1
  S  S22  1  0.16967250  0.94145869  0.89918913  1
  S  S23  1  0.81895968  0.03980368  0.10433011  1
  S  S24  1  0.10685131  0.46321841  0.65545125  1
  S  S25  1  0.90518179  0.47653042  0.35121415  1
  S  S26  1  0.73127835  0.05662832  0.30514199  1
  S  S27  1  0.26231006  0.95527874  0.68310620  1
  S  S28  1  0.17489619  0.49361481  0.45450901  1
  S  S29  1  0.82052381  0.53538418  0.55259767  1
  S  S30  1  0.43034320  0.48752325  0.79974865  1
  S  S31  1  0.55892794  0.47308118  0.18729651  1
  S  S32  1  0.90710294  0.50252855  0.98356370  1
  S  S33  1  0.08302857  0.47010228  0.02168848  1
  S  S34  1  0.65721667  0.49582601  0.87617485  1
  S  S35  1  0.32748006  0.43914249  0.09528035  1
  S  S36  1  0.60371078  0.01712745  0.65761252  1
  S  S37  1  0.40242353  0.00965001  0.35054194  1
  S  S38  1  0.24681514  0.51460293  0.32868786  1
  S  S39  1  0.75999305  0.44283194  0.69983159  1
  S  S40  1  0.67056196  0.97663820  0.44722476  1
  S  S41  1  0.33181832  0.94479816  0.55435795  1
