# generated using pymatgen
data_Pr2Mn3(SbS3)4
_symmetry_space_group_name_H-M   'P 1'
_cell_length_a   20.02960800
_cell_length_b   3.90410600
_cell_length_c   14.95364829
_cell_angle_alpha   90.00000000
_cell_angle_beta   126.33350609
_cell_angle_gamma   90.00000000
_symmetry_Int_Tables_number   1
_chemical_formula_structural   Pr2Mn3(SbS3)4
_chemical_formula_sum   'Pr4 Mn6 Sb8 S24'
_cell_volume   942.00006694
_cell_formula_units_Z   2
loop_
 _symmetry_equiv_pos_site_id
 _symmetry_equiv_pos_as_xyz
  1  'x, y, z'
loop_
 _atom_site_type_symbol
 _atom_site_label
 _atom_site_symmetry_multiplicity
 _atom_site_fract_x
 _atom_site_fract_y
 _atom_site_fract_z
 _atom_site_occupancy
  Pr  Pr0  1  0.26598430  0.47969844  0.86389507  1
  Pr  Pr1  1  0.73547472  0.51514639  0.13564467  1
  Pr  Pr2  1  0.76364621  0.01619422  0.86363067  1
  Pr  Pr3  1  0.23704999  0.00653282  0.13744778  1
  Mn  Mn4  1  0.29080601  0.47536023  0.59882097  1
  Mn  Mn5  1  0.69034588  0.49980152  0.37645250  1
  Mn  Mn6  1  0.00961566  0.99131255  0.01669880  1
  Mn  Mn7  1  0.80406807  0.01679931  0.61457881  1
  Mn  Mn8  1  0.19793645  0.97826169  0.37833974  1
  Mn  Mn9  1  0.49267031  0.46886882  0.98887371  1
  Sb  Sb10  1  0.89005368  0.98056508  0.44984040  1
  Sb  Sb11  1  0.11246223  0.97684727  0.54786247  1
  Sb  Sb12  1  0.04008280  0.51814181  0.82166877  1
  Sb  Sb13  1  0.96531621  0.50449207  0.18516121  1
  Sb  Sb14  1  0.39581902  0.51028152  0.45327477  1
  Sb  Sb15  1  0.60607184  0.47192404  0.54754699  1
  Sb  Sb16  1  0.53434833  0.00234812  0.81057692  1
  Sb  Sb17  1  0.46072206  0.01531203  0.18184674  1
  S  S18  1  0.93621891  0.99349276  0.80342622  1
  S  S19  1  0.06681376  0.98591651  0.19761460  1
  S  S20  1  0.40818929  0.97796632  0.98284865  1
  S  S21  1  0.58223241  0.98366852  0.01134550  1
  S  S22  1  0.17081540  0.02217364  0.89776651  1
  S  S23  1  0.82460788  0.04300213  0.09560226  1
  S  S24  1  0.09467304  0.47063301  0.64621762  1
  S  S25  1  0.91110824  0.47314435  0.35479313  1
  S  S26  1  0.74143628  0.94605351  0.30250054  1
  S  S27  1  0.26387493  0.00322877  0.71305705  1
  S  S28  1  0.15985794  0.47811521  0.43260178  1
  S  S29  1  0.82691890  0.48321300  0.54775032  1
  S  S30  1  0.43212335  0.49989091  0.79778942  1
  S  S31  1  0.56013928  0.50648120  0.18390771  1
  S  S32  1  0.91118813  0.49059382  0.98843898  1
  S  S33  1  0.08754895  0.46715408  0.02104953  1
  S  S34  1  0.66497545  0.51073263  0.88782995  1
  S  S35  1  0.32978213  0.52490445  0.09442545  1
  S  S36  1  0.59544578  0.98784285  0.65540046  1
  S  S37  1  0.40740099  0.98416321  0.35130811  1
  S  S38  1  0.24234550  0.45515390  0.30988376  1
  S  S39  1  0.76465877  0.50175197  0.70235270  1
  S  S40  1  0.67029766  0.02849232  0.45714003  1
  S  S41  1  0.32181888  0.97579776  0.54653333  1
