# generated using pymatgen
data_Pr2Mn3(SbS3)4
_symmetry_space_group_name_H-M   'P 1'
_cell_length_a   20.02960800
_cell_length_b   3.90410600
_cell_length_c   14.95364829
_cell_angle_alpha   90.00000000
_cell_angle_beta   126.33350609
_cell_angle_gamma   90.00000000
_symmetry_Int_Tables_number   1
_chemical_formula_structural   Pr2Mn3(SbS3)4
_chemical_formula_sum   'Pr4 Mn6 Sb8 S24'
_cell_volume   942.00006694
_cell_formula_units_Z   2
loop_
 _symmetry_equiv_pos_site_id
 _symmetry_equiv_pos_as_xyz
  1  'x, y, z'
loop_
 _atom_site_type_symbol
 _atom_site_label
 _atom_site_symmetry_multiplicity
 _atom_site_fract_x
 _atom_site_fract_y
 _atom_site_fract_z
 _atom_site_occupancy
  Pr  Pr0  1  0.27239483  0.48951938  0.86802628  1
  Pr  Pr1  1  0.72743715  0.49885460  0.12923954  1
  Pr  Pr2  1  0.77048525  0.00536083  0.87231807  1
  Pr  Pr3  1  0.22932880  0.94067862  0.12647994  1
  Mn  Mn4  1  0.30457040  0.44211262  0.60617845  1
  Mn  Mn5  1  0.70449650  0.53443821  0.37046346  1
  Mn  Mn6  1  0.99215221  0.98013067  0.99109199  1
  Mn  Mn7  1  0.80130104  0.04992908  0.62788976  1
  Mn  Mn8  1  0.20697824  0.06503102  0.38918234  1
  Mn  Mn9  1  0.50255280  0.50915390  0.00055685  1
  Sb  Sb10  1  0.88036046  0.87607018  0.45363265  1
  Sb  Sb11  1  0.10982716  0.99492671  0.54336688  1
  Sb  Sb12  1  0.03462022  0.50153478  0.82438642  1
  Sb  Sb13  1  0.95918677  0.48040888  0.19120664  1
  Sb  Sb14  1  0.40658436  0.57265771  0.46489070  1
  Sb  Sb15  1  0.60459899  0.57114155  0.53370215  1
  Sb  Sb16  1  0.52106443  0.95562029  0.80125754  1
  Sb  Sb17  1  0.46338181  0.00142749  0.18866622  1
  S  S18  1  0.93205411  0.98753916  0.80322270  1
  S  S19  1  0.06925483  0.01443310  0.22043763  1
  S  S20  1  0.41349963  0.95169319  0.98932440  1
  S  S21  1  0.57732607  0.98562767  0.01565461  1
  S  S22  1  0.16965505  0.94203430  0.89904387  1
  S  S23  1  0.81904278  0.04058096  0.10467333  1
  S  S24  1  0.10692230  0.46345306  0.65541432  1
  S  S25  1  0.90528846  0.47694738  0.35138019  1
  S  S26  1  0.73125103  0.05672140  0.30517655  1
  S  S27  1  0.26253341  0.95524379  0.68341223  1
  S  S28  1  0.17541282  0.49362792  0.45496374  1
  S  S29  1  0.82025537  0.53446231  0.55207380  1
  S  S30  1  0.43021355  0.48755865  0.79969000  1
  S  S31  1  0.55889502  0.47203098  0.18749784  1
  S  S32  1  0.90720571  0.50336389  0.98359532  1
  S  S33  1  0.08287894  0.47005349  0.02179668  1
  S  S34  1  0.65721844  0.49494681  0.87644044  1
  S  S35  1  0.32741219  0.43930229  0.09541742  1
  S  S36  1  0.60349404  0.01701724  0.65762345  1
  S  S37  1  0.40212618  0.01022178  0.35022133  1
  S  S38  1  0.24686068  0.51446217  0.32881258  1
  S  S39  1  0.75983553  0.44155180  0.70000313  1
  S  S40  1  0.67079949  0.97724693  0.44761748  1
  S  S41  1  0.33178917  0.94513407  0.55447241  1
