# generated using pymatgen
data_Pr2Mn3(SbS3)4
_symmetry_space_group_name_H-M   'P 1'
_cell_length_a   20.02960800
_cell_length_b   3.90410600
_cell_length_c   14.95364829
_cell_angle_alpha   90.00000000
_cell_angle_beta   126.33350609
_cell_angle_gamma   90.00000000
_symmetry_Int_Tables_number   1
_chemical_formula_structural   Pr2Mn3(SbS3)4
_chemical_formula_sum   'Pr4 Mn6 Sb8 S24'
_cell_volume   942.00006694
_cell_formula_units_Z   2
loop_
 _symmetry_equiv_pos_site_id
 _symmetry_equiv_pos_as_xyz
  1  'x, y, z'
loop_
 _atom_site_type_symbol
 _atom_site_label
 _atom_site_symmetry_multiplicity
 _atom_site_fract_x
 _atom_site_fract_y
 _atom_site_fract_z
 _atom_site_occupancy
  Pr  Pr0  1  0.27241362  0.48942969  0.86816535  1
  Pr  Pr1  1  0.72754892  0.49864234  0.12938172  1
  Pr  Pr2  1  0.77043560  0.00542990  0.87229003  1
  Pr  Pr3  1  0.22933482  0.94116453  0.12651717  1
  Mn  Mn4  1  0.30490243  0.44236222  0.60644350  1
  Mn  Mn5  1  0.70448354  0.53435383  0.37035694  1
  Mn  Mn6  1  0.99220378  0.98000206  0.99098561  1
  Mn  Mn7  1  0.80157307  0.05000204  0.62797953  1
  Mn  Mn8  1  0.20701615  0.06608576  0.38927761  1
  Mn  Mn9  1  0.50258298  0.50891526  0.00034986  1
  Sb  Sb10  1  0.88044633  0.87620921  0.45366944  1
  Sb  Sb11  1  0.10989929  0.99493756  0.54332882  1
  Sb  Sb12  1  0.03454453  0.50144107  0.82435211  1
  Sb  Sb13  1  0.95906490  0.47990190  0.19107816  1
  Sb  Sb14  1  0.40653819  0.57219551  0.46475179  1
  Sb  Sb15  1  0.60459752  0.57057511  0.53353302  1
  Sb  Sb16  1  0.52099908  0.95522317  0.80125630  1
  Sb  Sb17  1  0.46348316  0.00125282  0.18874524  1
  S  S18  1  0.93206738  0.98610701  0.80349335  1
  S  S19  1  0.06907035  0.01437908  0.22016939  1
  S  S20  1  0.41318718  0.95089061  0.98894155  1
  S  S21  1  0.57698728  0.98493162  0.01510388  1
  S  S22  1  0.16972874  0.94301525  0.89895855  1
  S  S23  1  0.81920575  0.04108185  0.10497417  1
  S  S24  1  0.10691324  0.46350843  0.65532445  1
  S  S25  1  0.90537059  0.47719890  0.35146944  1
  S  S26  1  0.73129297  0.05691891  0.30520402  1
  S  S27  1  0.26277194  0.95473538  0.68381213  1
  S  S28  1  0.17574496  0.49342635  0.45520722  1
  S  S29  1  0.82001651  0.53328542  0.55154303  1
  S  S30  1  0.43017486  0.48803781  0.79952515  1
  S  S31  1  0.55875471  0.47110595  0.18758748  1
  S  S32  1  0.90738566  0.50400178  0.98361544  1
  S  S33  1  0.08273899  0.46958057  0.02201445  1
  S  S34  1  0.65712244  0.49427660  0.87656110  1
  S  S35  1  0.32727588  0.43926680  0.09541419  1
  S  S36  1  0.60319413  0.01707887  0.65762422  1
  S  S37  1  0.40191404  0.01102512  0.34990711  1
  S  S38  1  0.24697234  0.51413335  0.32889454  1
  S  S39  1  0.75967114  0.44045069  0.70016993  1
  S  S40  1  0.67089177  0.97750445  0.44797077  1
  S  S41  1  0.33194320  0.94524636  0.55467021  1
