# generated using pymatgen
data_Pr2Mn3(SbS3)4
_symmetry_space_group_name_H-M   'P 1'
_cell_length_a   20.02960800
_cell_length_b   3.90410600
_cell_length_c   14.95364829
_cell_angle_alpha   90.00000000
_cell_angle_beta   126.33350609
_cell_angle_gamma   90.00000000
_symmetry_Int_Tables_number   1
_chemical_formula_structural   Pr2Mn3(SbS3)4
_chemical_formula_sum   'Pr4 Mn6 Sb8 S24'
_cell_volume   942.00006694
_cell_formula_units_Z   2
loop_
 _symmetry_equiv_pos_site_id
 _symmetry_equiv_pos_as_xyz
  1  'x, y, z'
loop_
 _atom_site_type_symbol
 _atom_site_label
 _atom_site_symmetry_multiplicity
 _atom_site_fract_x
 _atom_site_fract_y
 _atom_site_fract_z
 _atom_site_occupancy
  Pr  Pr0  1  0.27243350  0.48938923  0.86829778  1
  Pr  Pr1  1  0.72763215  0.49822237  0.12951521  1
  Pr  Pr2  1  0.77039846  0.00562086  0.87226474  1
  Pr  Pr3  1  0.22933015  0.94171057  0.12658357  1
  Mn  Mn4  1  0.30527474  0.44220956  0.60676968  1
  Mn  Mn5  1  0.70444040  0.53413016  0.37018469  1
  Mn  Mn6  1  0.99227309  0.98001219  0.99087966  1
  Mn  Mn7  1  0.80187017  0.05016884  0.62808013  1
  Mn  Mn8  1  0.20696700  0.06693503  0.38938713  1
  Mn  Mn9  1  0.50271015  0.50883126  0.00026512  1
  Sb  Sb10  1  0.88050401  0.87633378  0.45358077  1
  Sb  Sb11  1  0.10997527  0.99506563  0.54330058  1
  Sb  Sb12  1  0.03445673  0.50121684  0.82434062  1
  Sb  Sb13  1  0.95898755  0.47947354  0.19095406  1
  Sb  Sb14  1  0.40646163  0.57172644  0.46459496  1
  Sb  Sb15  1  0.60457675  0.56999018  0.53345871  1
  Sb  Sb16  1  0.52092794  0.95468047  0.80131778  1
  Sb  Sb17  1  0.46356753  0.00095753  0.18880455  1
  S  S18  1  0.93210414  0.98501059  0.80380971  1
  S  S19  1  0.06889972  0.01425262  0.21999670  1
  S  S20  1  0.41292992  0.95012865  0.98872135  1
  S  S21  1  0.57670522  0.98398654  0.01464297  1
  S  S22  1  0.16975544  0.94426783  0.89899856  1
  S  S23  1  0.81935349  0.04171329  0.10515965  1
  S  S24  1  0.10693329  0.46374718  0.65513127  1
  S  S25  1  0.90545602  0.47749153  0.35158298  1
  S  S26  1  0.73142135  0.05702851  0.30525808  1
  S  S27  1  0.26293228  0.95395165  0.68411347  1
  S  S28  1  0.17612712  0.49300297  0.45560228  1
  S  S29  1  0.81989719  0.53225668  0.55105895  1
  S  S30  1  0.43018559  0.48814384  0.79934518  1
  S  S31  1  0.55852403  0.47059739  0.18747134  1
  S  S32  1  0.90757137  0.50476983  0.98372555  1
  S  S33  1  0.08260382  0.46903299  0.02219149  1
  S  S34  1  0.65705474  0.49333634  0.87675509  1
  S  S35  1  0.32722546  0.43929743  0.09555903  1
  S  S36  1  0.60288496  0.01715052  0.65752262  1
  S  S37  1  0.40168898  0.01216341  0.34965280  1
  S  S38  1  0.24716872  0.51414472  0.32917436  1
  S  S39  1  0.75949385  0.43925581  0.70026288  1
  S  S40  1  0.67101850  0.97748398  0.44827761  1
  S  S41  1  0.33215236  0.94510449  0.55494924  1
