# generated using pymatgen
data_Pr2Mn3(SbS3)4
_symmetry_space_group_name_H-M   'P 1'
_cell_length_a   20.02960800
_cell_length_b   3.90410600
_cell_length_c   14.95364829
_cell_angle_alpha   90.00000000
_cell_angle_beta   126.33350609
_cell_angle_gamma   90.00000000
_symmetry_Int_Tables_number   1
_chemical_formula_structural   Pr2Mn3(SbS3)4
_chemical_formula_sum   'Pr4 Mn6 Sb8 S24'
_cell_volume   942.00006694
_cell_formula_units_Z   2
loop_
 _symmetry_equiv_pos_site_id
 _symmetry_equiv_pos_as_xyz
  1  'x, y, z'
loop_
 _atom_site_type_symbol
 _atom_site_label
 _atom_site_symmetry_multiplicity
 _atom_site_fract_x
 _atom_site_fract_y
 _atom_site_fract_z
 _atom_site_occupancy
  Pr  Pr0  1  0.27241823  0.48954840  0.86834589  1
  Pr  Pr1  1  0.72770657  0.49780022  0.12961915  1
  Pr  Pr2  1  0.77033285  0.00593913  0.87222927  1
  Pr  Pr3  1  0.22936399  0.94237196  0.12662431  1
  Mn  Mn4  1  0.30556303  0.44194896  0.60694894  1
  Mn  Mn5  1  0.70452414  0.53381063  0.37022540  1
  Mn  Mn6  1  0.99240910  0.98011368  0.99087054  1
  Mn  Mn7  1  0.80208791  0.05065239  0.62811244  1
  Mn  Mn8  1  0.20693966  0.06790287  0.38961551  1
  Mn  Mn9  1  0.50282022  0.50912834  0.00015006  1
  Sb  Sb10  1  0.88057926  0.87664490  0.45352727  1
  Sb  Sb11  1  0.11009441  0.99496230  0.54334177  1
  Sb  Sb12  1  0.03440879  0.50093872  0.82436266  1
  Sb  Sb13  1  0.95894772  0.47902938  0.19087482  1
  Sb  Sb14  1  0.40643533  0.57151962  0.46449969  1
  Sb  Sb15  1  0.60464796  0.56928261  0.53341841  1
  Sb  Sb16  1  0.52084197  0.95395855  0.80137990  1
  Sb  Sb17  1  0.46369933  0.00104096  0.18896112  1
  S  S18  1  0.93214431  0.98410318  0.80407413  1
  S  S19  1  0.06873857  0.01371995  0.21979509  1
  S  S20  1  0.41277047  0.94965778  0.98863286  1
  S  S21  1  0.57652825  0.98354660  0.01447792  1
  S  S22  1  0.16979308  0.94540005  0.89893548  1
  S  S23  1  0.81940352  0.04264854  0.10529541  1
  S  S24  1  0.10694150  0.46383796  0.65489473  1
  S  S25  1  0.90559242  0.47711996  0.35158153  1
  S  S26  1  0.73152175  0.05677325  0.30529749  1
  S  S27  1  0.26299793  0.95352983  0.68445956  1
  S  S28  1  0.17637164  0.49280106  0.45591019  1
  S  S29  1  0.81983331  0.53172293  0.55081741  1
  S  S30  1  0.43032407  0.48803877  0.79923288  1
  S  S31  1  0.55841092  0.46993814  0.18753268  1
  S  S32  1  0.90775877  0.50586316  0.98385691  1
  S  S33  1  0.08247444  0.46866227  0.02238427  1
  S  S34  1  0.65694253  0.49282898  0.87691986  1
  S  S35  1  0.32719753  0.43938692  0.09576941  1
  S  S36  1  0.60268378  0.01704908  0.65751621  1
  S  S37  1  0.40139238  0.01330075  0.34924118  1
  S  S38  1  0.24738418  0.51381349  0.32952404  1
  S  S39  1  0.75931912  0.43864502  0.70039499  1
  S  S40  1  0.67105592  0.97751531  0.44857597  1
  S  S41  1  0.33243891  0.94506306  0.55524656  1
