# generated using pymatgen
data_Pr2Mn3(SbS3)4
_symmetry_space_group_name_H-M   'P 1'
_cell_length_a   20.02960800
_cell_length_b   3.90410600
_cell_length_c   14.95364829
_cell_angle_alpha   90.00000000
_cell_angle_beta   126.33350609
_cell_angle_gamma   90.00000000
_symmetry_Int_Tables_number   1
_chemical_formula_structural   Pr2Mn3(SbS3)4
_chemical_formula_sum   'Pr4 Mn6 Sb8 S24'
_cell_volume   942.00006694
_cell_formula_units_Z   2
loop_
 _symmetry_equiv_pos_site_id
 _symmetry_equiv_pos_as_xyz
  1  'x, y, z'
loop_
 _atom_site_type_symbol
 _atom_site_label
 _atom_site_symmetry_multiplicity
 _atom_site_fract_x
 _atom_site_fract_y
 _atom_site_fract_z
 _atom_site_occupancy
  Pr  Pr0  1  0.27239551  0.48969984  0.86843093  1
  Pr  Pr1  1  0.72780660  0.49728633  0.12977795  1
  Pr  Pr2  1  0.77025932  0.00616629  0.87217277  1
  Pr  Pr3  1  0.22938385  0.94301539  0.12668855  1
  Mn  Mn4  1  0.30578879  0.44175360  0.60710316  1
  Mn  Mn5  1  0.70454715  0.53379902  0.37020741  1
  Mn  Mn6  1  0.99252543  0.98004317  0.99084559  1
  Mn  Mn7  1  0.80227358  0.05129993  0.62815602  1
  Mn  Mn8  1  0.20693895  0.06866477  0.38986415  1
  Mn  Mn9  1  0.50286911  0.50938729  0.00004379  1
  Sb  Sb10  1  0.88059874  0.87674544  0.45346848  1
  Sb  Sb11  1  0.11018664  0.99504574  0.54336320  1
  Sb  Sb12  1  0.03435821  0.50045713  0.82437081  1
  Sb  Sb13  1  0.95899509  0.47858492  0.19087676  1
  Sb  Sb14  1  0.40641118  0.57150873  0.46451523  1
  Sb  Sb15  1  0.60466679  0.56859894  0.53337056  1
  Sb  Sb16  1  0.52076604  0.95300635  0.80140596  1
  Sb  Sb17  1  0.46383467  0.00107390  0.18911511  1
  S  S18  1  0.93220086  0.98330583  0.80431289  1
  S  S19  1  0.06851094  0.01348861  0.21964613  1
  S  S20  1  0.41254759  0.94888851  0.98834695  1
  S  S21  1  0.57647241  0.98304082  0.01432664  1
  S  S22  1  0.16980964  0.94666600  0.89889657  1
  S  S23  1  0.81941323  0.04299618  0.10557147  1
  S  S24  1  0.10704234  0.46369122  0.65469673  1
  S  S25  1  0.90566103  0.47675388  0.35165750  1
  S  S26  1  0.73163190  0.05675180  0.30537706  1
  S  S27  1  0.26306817  0.95358130  0.68480830  1
  S  S28  1  0.17661213  0.49275831  0.45628946  1
  S  S29  1  0.81970955  0.53178408  0.55056042  1
  S  S30  1  0.43040163  0.48796943  0.79923088  1
  S  S31  1  0.55835522  0.46951404  0.18760858  1
  S  S32  1  0.90802086  0.50665624  0.98399176  1
  S  S33  1  0.08243465  0.46851966  0.02249693  1
  S  S34  1  0.65685231  0.49244614  0.87718789  1
  S  S35  1  0.32725162  0.43955879  0.09611362  1
  S  S36  1  0.60242971  0.01690113  0.65747729  1
  S  S37  1  0.40103881  0.01452827  0.34885163  1
  S  S38  1  0.24761291  0.51320446  0.32984806  1
  S  S39  1  0.75931695  0.43783342  0.70061932  1
  S  S40  1  0.67112003  0.97725517  0.44890346  1
  S  S41  1  0.33259490  0.94530810  0.55555494  1
