# generated using pymatgen
data_Pr2Mn3(SbS3)4
_symmetry_space_group_name_H-M   'P 1'
_cell_length_a   20.02960800
_cell_length_b   3.90410600
_cell_length_c   14.95364829
_cell_angle_alpha   90.00000000
_cell_angle_beta   126.33350609
_cell_angle_gamma   90.00000000
_symmetry_Int_Tables_number   1
_chemical_formula_structural   Pr2Mn3(SbS3)4
_chemical_formula_sum   'Pr4 Mn6 Sb8 S24'
_cell_volume   942.00006694
_cell_formula_units_Z   2
loop_
 _symmetry_equiv_pos_site_id
 _symmetry_equiv_pos_as_xyz
  1  'x, y, z'
loop_
 _atom_site_type_symbol
 _atom_site_label
 _atom_site_symmetry_multiplicity
 _atom_site_fract_x
 _atom_site_fract_y
 _atom_site_fract_z
 _atom_site_occupancy
  Pr  Pr0  1  0.27233274  0.48972860  0.86848298  1
  Pr  Pr1  1  0.72787358  0.49659517  0.12989945  1
  Pr  Pr2  1  0.77015641  0.00645853  0.87208990  1
  Pr  Pr3  1  0.22937909  0.94376649  0.12669760  1
  Mn  Mn4  1  0.30605956  0.44176049  0.60734304  1
  Mn  Mn5  1  0.70455092  0.53365875  0.37009196  1
  Mn  Mn6  1  0.99265461  0.98009435  0.99084977  1
  Mn  Mn7  1  0.80242903  0.05198569  0.62817715  1
  Mn  Mn8  1  0.20699247  0.06927799  0.39003854  1
  Mn  Mn9  1  0.50298487  0.50942400  0.99995743  1
  Sb  Sb10  1  0.88057818  0.87677020  0.45340132  1
  Sb  Sb11  1  0.11027826  0.99505075  0.54335041  1
  Sb  Sb12  1  0.03430440  0.49992272  0.82438223  1
  Sb  Sb13  1  0.95908271  0.47816628  0.19093966  1
  Sb  Sb14  1  0.40643558  0.57144192  0.46456347  1
  Sb  Sb15  1  0.60470452  0.56785031  0.53336145  1
  Sb  Sb16  1  0.52072380  0.95225317  0.80147269  1
  Sb  Sb17  1  0.46395985  0.00103979  0.18923572  1
  S  S18  1  0.93221234  0.98264191  0.80448103  1
  S  S19  1  0.06832451  0.01377596  0.21953472  1
  S  S20  1  0.41235407  0.94840958  0.98814473  1
  S  S21  1  0.57642016  0.98217500  0.01410693  1
  S  S22  1  0.16977866  0.94785121  0.89885641  1
  S  S23  1  0.81938603  0.04358781  0.10581279  1
  S  S24  1  0.10719325  0.46358660  0.65450822  1
  S  S25  1  0.90574935  0.47640826  0.35166086  1
  S  S26  1  0.73162166  0.05684112  0.30526908  1
  S  S27  1  0.26315709  0.95304998  0.68515459  1
  S  S28  1  0.17669178  0.49310058  0.45640121  1
  S  S29  1  0.81961128  0.53153090  0.55026290  1
  S  S30  1  0.43045283  0.48768152  0.79935089  1
  S  S31  1  0.55825118  0.46861138  0.18749322  1
  S  S32  1  0.90823707  0.50782823  0.98406269  1
  S  S33  1  0.08227250  0.46842529  0.02249244  1
  S  S34  1  0.65683966  0.49217852  0.87749121  1
  S  S35  1  0.32740752  0.43950644  0.09646779  1
  S  S36  1  0.60231298  0.01704051  0.65746286  1
  S  S37  1  0.40066666  0.01535073  0.34841983  1
  S  S38  1  0.24775752  0.51281208  0.33006156  1
  S  S39  1  0.75933695  0.43720777  0.70081124  1
  S  S40  1  0.67116725  0.97706057  0.44919623  1
  S  S41  1  0.33277457  0.94541399  0.55581091  1
