# generated using pymatgen
data_Pr2Mn3(SbS3)4
_symmetry_space_group_name_H-M   'P 1'
_cell_length_a   20.02960800
_cell_length_b   3.90410600
_cell_length_c   14.95364829
_cell_angle_alpha   90.00000000
_cell_angle_beta   126.33350609
_cell_angle_gamma   90.00000000
_symmetry_Int_Tables_number   1
_chemical_formula_structural   Pr2Mn3(SbS3)4
_chemical_formula_sum   'Pr4 Mn6 Sb8 S24'
_cell_volume   942.00006694
_cell_formula_units_Z   2
loop_
 _symmetry_equiv_pos_site_id
 _symmetry_equiv_pos_as_xyz
  1  'x, y, z'
loop_
 _atom_site_type_symbol
 _atom_site_label
 _atom_site_symmetry_multiplicity
 _atom_site_fract_x
 _atom_site_fract_y
 _atom_site_fract_z
 _atom_site_occupancy
  Pr  Pr0  1  0.27230450  0.48980668  0.86854119  1
  Pr  Pr1  1  0.72787626  0.49591185  0.12995337  1
  Pr  Pr2  1  0.77002620  0.00677793  0.87195300  1
  Pr  Pr3  1  0.22935358  0.94446914  0.12663439  1
  Mn  Mn4  1  0.30640897  0.44174613  0.60773332  1
  Mn  Mn5  1  0.70457228  0.53333900  0.36988109  1
  Mn  Mn6  1  0.99281287  0.98025737  0.99092612  1
  Mn  Mn7  1  0.80257854  0.05256503  0.62807828  1
  Mn  Mn8  1  0.20705596  0.06995101  0.39018990  1
  Mn  Mn9  1  0.50305379  0.50952087  0.99980461  1
  Sb  Sb10  1  0.88063621  0.87667931  0.45340498  1
  Sb  Sb11  1  0.11032326  0.99523225  0.54333195  1
  Sb  Sb12  1  0.03421845  0.49912583  0.82430655  1
  Sb  Sb13  1  0.95917485  0.47784123  0.19102316  1
  Sb  Sb14  1  0.40642803  0.57142058  0.46463906  1
  Sb  Sb15  1  0.60472570  0.56724325  0.53337478  1
  Sb  Sb16  1  0.52068868  0.95161009  0.80145801  1
  Sb  Sb17  1  0.46404868  0.00086377  0.18932876  1
  S  S18  1  0.93217251  0.98220839  0.80461442  1
  S  S19  1  0.06804929  0.01398933  0.21916645  1
  S  S20  1  0.41225195  0.94819540  0.98798975  1
  S  S21  1  0.57619896  0.98118372  0.01366625  1
  S  S22  1  0.16976079  0.94827052  0.89875334  1
  S  S23  1  0.81953855  0.04399844  0.10628911  1
  S  S24  1  0.10734183  0.46319608  0.65437665  1
  S  S25  1  0.90577465  0.47624862  0.35163425  1
  S  S26  1  0.73165030  0.05686569  0.30512593  1
  S  S27  1  0.26316267  0.95241703  0.68545283  1
  S  S28  1  0.17691387  0.49349190  0.45683988  1
  S  S29  1  0.81957383  0.53152279  0.55017359  1
  S  S30  1  0.43046050  0.48733212  0.79953075  1
  S  S31  1  0.55810941  0.46725939  0.18735703  1
  S  S32  1  0.90848929  0.50940285  0.98421713  1
  S  S33  1  0.08223016  0.46802547  0.02257256  1
  S  S34  1  0.65695627  0.49162420  0.87783567  1
  S  S35  1  0.32749446  0.43902835  0.09679316  1
  S  S36  1  0.60216282  0.01696160  0.65737735  1
  S  S37  1  0.40042643  0.01607615  0.34817603  1
  S  S38  1  0.24780632  0.51212712  0.33033141  1
  S  S39  1  0.75937881  0.43670868  0.70091113  1
  S  S40  1  0.67118562  0.97648907  0.44945829  1
  S  S41  1  0.33285519  0.94557223  0.55591024  1
