# generated using pymatgen
data_Pr2Mn3(SbS3)4
_symmetry_space_group_name_H-M   'P 1'
_cell_length_a   20.02960800
_cell_length_b   3.90410600
_cell_length_c   14.95364829
_cell_angle_alpha   90.00000000
_cell_angle_beta   126.33350609
_cell_angle_gamma   90.00000000
_symmetry_Int_Tables_number   1
_chemical_formula_structural   Pr2Mn3(SbS3)4
_chemical_formula_sum   'Pr4 Mn6 Sb8 S24'
_cell_volume   942.00006694
_cell_formula_units_Z   2
loop_
 _symmetry_equiv_pos_site_id
 _symmetry_equiv_pos_as_xyz
  1  'x, y, z'
loop_
 _atom_site_type_symbol
 _atom_site_label
 _atom_site_symmetry_multiplicity
 _atom_site_fract_x
 _atom_site_fract_y
 _atom_site_fract_z
 _atom_site_occupancy
  Pr  Pr0  1  0.27226233  0.48985067  0.86855300  1
  Pr  Pr1  1  0.72787215  0.49510053  0.13000310  1
  Pr  Pr2  1  0.76986673  0.00680244  0.87181322  1
  Pr  Pr3  1  0.22934410  0.94506446  0.12655442  1
  Mn  Mn4  1  0.30678272  0.44163888  0.60819140  1
  Mn  Mn5  1  0.70463455  0.53313850  0.36979506  1
  Mn  Mn6  1  0.99285420  0.98044451  0.99089435  1
  Mn  Mn7  1  0.80268709  0.05307538  0.62803347  1
  Mn  Mn8  1  0.20717110  0.07049685  0.39030128  1
  Mn  Mn9  1  0.50310608  0.50950116  0.99962621  1
  Sb  Sb10  1  0.88070490  0.87652722  0.45347194  1
  Sb  Sb11  1  0.11030425  0.99540032  0.54329177  1
  Sb  Sb12  1  0.03416642  0.49852498  0.82432670  1
  Sb  Sb13  1  0.95927729  0.47752539  0.19120218  1
  Sb  Sb14  1  0.40645335  0.57158345  0.46471976  1
  Sb  Sb15  1  0.60468453  0.56678634  0.53326989  1
  Sb  Sb16  1  0.52067259  0.95084933  0.80147766  1
  Sb  Sb17  1  0.46410963  0.00075445  0.18942037  1
  S  S18  1  0.93223092  0.98191399  0.80500216  1
  S  S19  1  0.06783702  0.01440595  0.21880793  1
  S  S20  1  0.41218964  0.94811856  0.98777147  1
  S  S21  1  0.57598226  0.98021940  0.01330138  1
  S  S22  1  0.16970875  0.94863586  0.89846690  1
  S  S23  1  0.81971311  0.04445370  0.10673107  1
  S  S24  1  0.10758871  0.46290583  0.65437117  1
  S  S25  1  0.90591159  0.47587598  0.35154753  1
  S  S26  1  0.73164751  0.05702581  0.30493295  1
  S  S27  1  0.26320555  0.95200240  0.68563122  1
  S  S28  1  0.17715081  0.49383726  0.45723346  1
  S  S29  1  0.81954926  0.53166281  0.55020787  1
  S  S30  1  0.43049285  0.48736191  0.79971110  1
  S  S31  1  0.55797565  0.46596044  0.18716458  1
  S  S32  1  0.90859534  0.51106102  0.98439719  1
  S  S33  1  0.08212311  0.46751178  0.02255177  1
  S  S34  1  0.65711834  0.49138422  0.87829782  1
  S  S35  1  0.32759307  0.43861442  0.09695271  1
  S  S36  1  0.60197740  0.01733189  0.65732874  1
  S  S37  1  0.40015509  0.01721836  0.34790013  1
  S  S38  1  0.24764802  0.51173777  0.33040788  1
  S  S39  1  0.75944270  0.43669846  0.70090661  1
  S  S40  1  0.67124549  0.97595777  0.44959385  1
  S  S41  1  0.33286858  0.94535047  0.55595404  1
