# generated using pymatgen
data_Pr2Mn3(SbS3)4
_symmetry_space_group_name_H-M   'P 1'
_cell_length_a   20.02960800
_cell_length_b   3.90410600
_cell_length_c   14.95364829
_cell_angle_alpha   90.00000000
_cell_angle_beta   126.33350609
_cell_angle_gamma   90.00000000
_symmetry_Int_Tables_number   1
_chemical_formula_structural   Pr2Mn3(SbS3)4
_chemical_formula_sum   'Pr4 Mn6 Sb8 S24'
_cell_volume   942.00006694
_cell_formula_units_Z   2
loop_
 _symmetry_equiv_pos_site_id
 _symmetry_equiv_pos_as_xyz
  1  'x, y, z'
loop_
 _atom_site_type_symbol
 _atom_site_label
 _atom_site_symmetry_multiplicity
 _atom_site_fract_x
 _atom_site_fract_y
 _atom_site_fract_z
 _atom_site_occupancy
  Pr  Pr0  1  0.27222098  0.48984097  0.86857450  1
  Pr  Pr1  1  0.72788438  0.49423381  0.13007137  1
  Pr  Pr2  1  0.76969049  0.00688075  0.87162829  1
  Pr  Pr3  1  0.22932701  0.94559306  0.12653669  1
  Mn  Mn4  1  0.30724436  0.44149517  0.60874817  1
  Mn  Mn5  1  0.70474339  0.53309234  0.36976594  1
  Mn  Mn6  1  0.99290022  0.98098054  0.99088991  1
  Mn  Mn7  1  0.80280236  0.05356489  0.62800090  1
  Mn  Mn8  1  0.20732438  0.07113242  0.39052618  1
  Mn  Mn9  1  0.50320303  0.50976498  0.99961743  1
  Sb  Sb10  1  0.88070474  0.87631188  0.45347589  1
  Sb  Sb11  1  0.11031215  0.99530179  0.54320951  1
  Sb  Sb12  1  0.03408349  0.49808408  0.82425435  1
  Sb  Sb13  1  0.95933955  0.47757202  0.19135498  1
  Sb  Sb14  1  0.40648803  0.57173111  0.46478866  1
  Sb  Sb15  1  0.60460345  0.56631106  0.53314880  1
  Sb  Sb16  1  0.52063043  0.95025941  0.80148654  1
  Sb  Sb17  1  0.46414161  0.00063185  0.18954766  1
  S  S18  1  0.93242025  0.98121159  0.80532557  1
  S  S19  1  0.06773613  0.01438370  0.21866043  1
  S  S20  1  0.41221050  0.94824527  0.98763963  1
  S  S21  1  0.57599526  0.97893569  0.01315392  1
  S  S22  1  0.16959426  0.94896460  0.89811786  1
  S  S23  1  0.81981784  0.04489078  0.10708701  1
  S  S24  1  0.10774963  0.46303868  0.65445072  1
  S  S25  1  0.90598859  0.47584453  0.35135917  1
  S  S26  1  0.73166754  0.05703478  0.30484814  1
  S  S27  1  0.26335689  0.95134464  0.68579911  1
  S  S28  1  0.17729108  0.49359795  0.45762853  1
  S  S29  1  0.81959872  0.53129422  0.55032141  1
  S  S30  1  0.43063161  0.48743760  0.80010454  1
  S  S31  1  0.55793661  0.46535863  0.18697864  1
  S  S32  1  0.90874167  0.51241923  0.98455992  1
  S  S33  1  0.08206354  0.46703047  0.02252276  1
  S  S34  1  0.65712486  0.49136845  0.87868296  1
  S  S35  1  0.32763583  0.43787563  0.09713259  1
  S  S36  1  0.60190500  0.01770526  0.65711619  1
  S  S37  1  0.39987556  0.01776156  0.34768633  1
  S  S38  1  0.24749253  0.51186133  0.33042147  1
  S  S39  1  0.75957029  0.43718803  0.70098587  1
  S  S40  1  0.67142918  0.97538229  0.44973555  1
  S  S41  1  0.33285545  0.94484533  0.55600372  1
