# generated using pymatgen
data_Pr2Mn3(SbS3)4
_symmetry_space_group_name_H-M   'P 1'
_cell_length_a   20.02960800
_cell_length_b   3.90410600
_cell_length_c   14.95364829
_cell_angle_alpha   90.00000000
_cell_angle_beta   126.33350609
_cell_angle_gamma   90.00000000
_symmetry_Int_Tables_number   1
_chemical_formula_structural   Pr2Mn3(SbS3)4
_chemical_formula_sum   'Pr4 Mn6 Sb8 S24'
_cell_volume   942.00006694
_cell_formula_units_Z   2
loop_
 _symmetry_equiv_pos_site_id
 _symmetry_equiv_pos_as_xyz
  1  'x, y, z'
loop_
 _atom_site_type_symbol
 _atom_site_label
 _atom_site_symmetry_multiplicity
 _atom_site_fract_x
 _atom_site_fract_y
 _atom_site_fract_z
 _atom_site_occupancy
  Pr  Pr0  1  0.27220942  0.48972422  0.86861298  1
  Pr  Pr1  1  0.72792867  0.49380202  0.13012253  1
  Pr  Pr2  1  0.76954778  0.00685621  0.87150034  1
  Pr  Pr3  1  0.22935281  0.94604503  0.12651933  1
  Mn  Mn4  1  0.30755515  0.44079641  0.60919754  1
  Mn  Mn5  1  0.70485421  0.53283736  0.36978979  1
  Mn  Mn6  1  0.99298382  0.98129145  0.99094181  1
  Mn  Mn7  1  0.80297705  0.05431013  0.62790419  1
  Mn  Mn8  1  0.20743880  0.07156257  0.39069591  1
  Mn  Mn9  1  0.50330590  0.50996316  0.99956816  1
  Sb  Sb10  1  0.88071729  0.87648955  0.45347428  1
  Sb  Sb11  1  0.11030963  0.99539535  0.54306414  1
  Sb  Sb12  1  0.03404484  0.49736383  0.82428226  1
  Sb  Sb13  1  0.95942863  0.47763519  0.19151584  1
  Sb  Sb14  1  0.40649355  0.57171187  0.46482928  1
  Sb  Sb15  1  0.60455819  0.56611600  0.53308960  1
  Sb  Sb16  1  0.52052826  0.94969639  0.80143747  1
  Sb  Sb17  1  0.46417243  0.00030099  0.18968475  1
  S  S18  1  0.93259652  0.98058999  0.80557024  1
  S  S19  1  0.06774266  0.01420887  0.21855260  1
  S  S20  1  0.41226112  0.94833693  0.98756629  1
  S  S21  1  0.57603368  0.97790970  0.01303128  1
  S  S22  1  0.16956381  0.94888603  0.89778691  1
  S  S23  1  0.81993780  0.04515892  0.10728626  1
  S  S24  1  0.10777486  0.46315155  0.65439201  1
  S  S25  1  0.90609189  0.47506119  0.35118948  1
  S  S26  1  0.73175281  0.05760139  0.30476431  1
  S  S27  1  0.26349152  0.95060465  0.68597664  1
  S  S28  1  0.17739395  0.49404077  0.45793276  1
  S  S29  1  0.81968340  0.53030773  0.55038389  1
  S  S30  1  0.43079734  0.48677601  0.80052135  1
  S  S31  1  0.55799168  0.46509226  0.18681582  1
  S  S32  1  0.90875914  0.51398032  0.98470323  1
  S  S33  1  0.08212413  0.46603781  0.02257530  1
  S  S34  1  0.65697050  0.49148813  0.87893011  1
  S  S35  1  0.32759723  0.43702377  0.09722146  1
  S  S36  1  0.60181643  0.01813469  0.65682823  1
  S  S37  1  0.39955172  0.01806992  0.34725492  1
  S  S38  1  0.24727603  0.51205052  0.33034002  1
  S  S39  1  0.75975169  0.43752143  0.70102615  1
  S  S40  1  0.67163050  0.97510091  0.44989404  1
  S  S41  1  0.33281127  0.94484014  0.55600171  1
