# generated using pymatgen
data_Pr2Mn3(SbS3)4
_symmetry_space_group_name_H-M   'P 1'
_cell_length_a   20.02960800
_cell_length_b   3.90410600
_cell_length_c   14.95364829
_cell_angle_alpha   90.00000000
_cell_angle_beta   126.33350609
_cell_angle_gamma   90.00000000
_symmetry_Int_Tables_number   1
_chemical_formula_structural   Pr2Mn3(SbS3)4
_chemical_formula_sum   'Pr4 Mn6 Sb8 S24'
_cell_volume   942.00006694
_cell_formula_units_Z   2
loop_
 _symmetry_equiv_pos_site_id
 _symmetry_equiv_pos_as_xyz
  1  'x, y, z'
loop_
 _atom_site_type_symbol
 _atom_site_label
 _atom_site_symmetry_multiplicity
 _atom_site_fract_x
 _atom_site_fract_y
 _atom_site_fract_z
 _atom_site_occupancy
  Pr  Pr0  1  0.26606680  0.48015054  0.86382405  1
  Pr  Pr1  1  0.73549273  0.51472117  0.13560975  1
  Pr  Pr2  1  0.76352253  0.01641161  0.86349546  1
  Pr  Pr3  1  0.23689604  0.00654312  0.13730949  1
  Mn  Mn4  1  0.29070963  0.47581033  0.59868139  1
  Mn  Mn5  1  0.69033696  0.49882579  0.37612287  1
  Mn  Mn6  1  0.00952732  0.99114189  0.01656473  1
  Mn  Mn7  1  0.80400346  0.01659027  0.61459199  1
  Mn  Mn8  1  0.19791966  0.97870594  0.37837904  1
  Mn  Mn9  1  0.49256231  0.47002019  0.98901910  1
  Sb  Sb10  1  0.89006484  0.98041252  0.44984309  1
  Sb  Sb11  1  0.11243721  0.97677838  0.54779751  1
  Sb  Sb12  1  0.04021677  0.51812025  0.82191704  1
  Sb  Sb13  1  0.96531711  0.50395136  0.18506776  1
  Sb  Sb14  1  0.39589532  0.50977065  0.45316084  1
  Sb  Sb15  1  0.60609526  0.47173715  0.54752480  1
  Sb  Sb16  1  0.53429105  0.00197426  0.81045812  1
  Sb  Sb17  1  0.46090199  0.01534903  0.18210711  1
  S  S18  1  0.93648788  0.99409021  0.80367448  1
  S  S19  1  0.06677382  0.98587924  0.19792753  1
  S  S20  1  0.40814664  0.97731490  0.98259689  1
  S  S21  1  0.58184263  0.98454234  0.01116176  1
  S  S22  1  0.17104900  0.02309139  0.89801404  1
  S  S23  1  0.82450016  0.04339053  0.09562876  1
  S  S24  1  0.09505648  0.47105204  0.64655012  1
  S  S25  1  0.91133448  0.47459670  0.35470960  1
  S  S26  1  0.74138740  0.94582969  0.30249921  1
  S  S27  1  0.26388250  0.00363192  0.71280854  1
  S  S28  1  0.15965433  0.47917566  0.43213534  1
  S  S29  1  0.82660163  0.48337000  0.54770637  1
  S  S30  1  0.43224116  0.50030614  0.79827494  1
  S  S31  1  0.56016174  0.50644423  0.18405383  1
  S  S32  1  0.91109387  0.48928557  0.98853692  1
  S  S33  1  0.08792221  0.46641490  0.02164321  1
  S  S34  1  0.66479860  0.51093678  0.88772809  1
  S  S35  1  0.32996689  0.52310551  0.09461447  1
  S  S36  1  0.59534735  0.98676097  0.65496905  1
  S  S37  1  0.40737637  0.98414112  0.35134251  1
  S  S38  1  0.24226242  0.45637853  0.31009543  1
  S  S39  1  0.76430622  0.50101707  0.70170118  1
  S  S40  1  0.66999517  0.02834251  0.45687242  1
  S  S41  1  0.32190050  0.97518236  0.54679074  1
