# generated using pymatgen
data_Pr2Mn3(SbS3)4
_symmetry_space_group_name_H-M   'P 1'
_cell_length_a   20.02960800
_cell_length_b   3.90410600
_cell_length_c   14.95364829
_cell_angle_alpha   90.00000000
_cell_angle_beta   126.33350609
_cell_angle_gamma   90.00000000
_symmetry_Int_Tables_number   1
_chemical_formula_structural   Pr2Mn3(SbS3)4
_chemical_formula_sum   'Pr4 Mn6 Sb8 S24'
_cell_volume   942.00006694
_cell_formula_units_Z   2
loop_
 _symmetry_equiv_pos_site_id
 _symmetry_equiv_pos_as_xyz
  1  'x, y, z'
loop_
 _atom_site_type_symbol
 _atom_site_label
 _atom_site_symmetry_multiplicity
 _atom_site_fract_x
 _atom_site_fract_y
 _atom_site_fract_z
 _atom_site_occupancy
  Pr  Pr0  1  0.27216515  0.48966800  0.86862387  1
  Pr  Pr1  1  0.72792823  0.49342470  0.13015982  1
  Pr  Pr2  1  0.76934521  0.00684573  0.87137315  1
  Pr  Pr3  1  0.22932274  0.94632428  0.12643490  1
  Mn  Mn4  1  0.30779818  0.44023270  0.60971451  1
  Mn  Mn5  1  0.70499050  0.53217185  0.36969616  1
  Mn  Mn6  1  0.99313770  0.98100599  0.99106949  1
  Mn  Mn7  1  0.80314365  0.05490504  0.62788714  1
  Mn  Mn8  1  0.20751031  0.07180437  0.39078299  1
  Mn  Mn9  1  0.50344754  0.50995616  0.99961337  1
  Sb  Sb10  1  0.88073858  0.87689746  0.45344380  1
  Sb  Sb11  1  0.11031200  0.99537357  0.54292747  1
  Sb  Sb12  1  0.03402025  0.49640858  0.82421033  1
  Sb  Sb13  1  0.95949994  0.47760386  0.19170946  1
  Sb  Sb14  1  0.40647942  0.57174436  0.46489281  1
  Sb  Sb15  1  0.60456437  0.56621387  0.53306850  1
  Sb  Sb16  1  0.52048751  0.94939199  0.80137679  1
  Sb  Sb17  1  0.46420828  0.99974025  0.18980907  1
  S  S18  1  0.93271755  0.98004875  0.80564470  1
  S  S19  1  0.06761176  0.01392960  0.21845394  1
  S  S20  1  0.41231750  0.94815257  0.98751153  1
  S  S21  1  0.57606641  0.97705854  0.01289722  1
  S  S22  1  0.16949286  0.94836395  0.89762621  1
  S  S23  1  0.82012383  0.04533193  0.10753033  1
  S  S24  1  0.10781770  0.46262462  0.65423763  1
  S  S25  1  0.90620489  0.47444967  0.35113250  1
  S  S26  1  0.73183750  0.05878939  0.30474062  1
  S  S27  1  0.26357558  0.94994446  0.68620362  1
  S  S28  1  0.17742530  0.49413262  0.45819947  1
  S  S29  1  0.81979718  0.52959597  0.55044738  1
  S  S30  1  0.43090536  0.48602954  0.80084328  1
  S  S31  1  0.55786595  0.46487478  0.18650420  1
  S  S32  1  0.90884895  0.51561669  0.98486160  1
  S  S33  1  0.08217612  0.46500632  0.02257927  1
  S  S34  1  0.65680761  0.49135759  0.87904408  1
  S  S35  1  0.32746643  0.43617232  0.09717235  1
  S  S36  1  0.60178709  0.01841546  0.65673497  1
  S  S37  1  0.39930625  0.01859234  0.34689140  1
  S  S38  1  0.24697061  0.51241047  0.33012194  1
  S  S39  1  0.75986488  0.43785572  0.70104003  1
  S  S40  1  0.67187027  0.97483155  0.45021270  1
  S  S41  1  0.33272567  0.94465762  0.55593626  1
