# generated using pymatgen
data_Pr2Mn3(SbS3)4
_symmetry_space_group_name_H-M   'P 1'
_cell_length_a   20.02960800
_cell_length_b   3.90410600
_cell_length_c   14.95364829
_cell_angle_alpha   90.00000000
_cell_angle_beta   126.33350609
_cell_angle_gamma   90.00000000
_symmetry_Int_Tables_number   1
_chemical_formula_structural   Pr2Mn3(SbS3)4
_chemical_formula_sum   'Pr4 Mn6 Sb8 S24'
_cell_volume   942.00006694
_cell_formula_units_Z   2
loop_
 _symmetry_equiv_pos_site_id
 _symmetry_equiv_pos_as_xyz
  1  'x, y, z'
loop_
 _atom_site_type_symbol
 _atom_site_label
 _atom_site_symmetry_multiplicity
 _atom_site_fract_x
 _atom_site_fract_y
 _atom_site_fract_z
 _atom_site_occupancy
  Pr  Pr0  1  0.27216246  0.48984048  0.86861828  1
  Pr  Pr1  1  0.72795138  0.49329295  0.13019892  1
  Pr  Pr2  1  0.76913023  0.00675052  0.87122133  1
  Pr  Pr3  1  0.22934500  0.94659607  0.12646291  1
  Mn  Mn4  1  0.30799839  0.43953919  0.61020694  1
  Mn  Mn5  1  0.70507004  0.53152176  0.36956452  1
  Mn  Mn6  1  0.99331829  0.98014382  0.99120356  1
  Mn  Mn7  1  0.80321661  0.05533330  0.62775006  1
  Mn  Mn8  1  0.20767073  0.07208662  0.39101349  1
  Mn  Mn9  1  0.50359159  0.51043481  0.99961785  1
  Sb  Sb10  1  0.88075517  0.87733889  0.45344382  1
  Sb  Sb11  1  0.11033354  0.99540489  0.54280371  1
  Sb  Sb12  1  0.03401425  0.49550813  0.82416098  1
  Sb  Sb13  1  0.95955349  0.47761150  0.19188852  1
  Sb  Sb14  1  0.40641956  0.57201532  0.46488583  1
  Sb  Sb15  1  0.60460959  0.56656552  0.53307590  1
  Sb  Sb16  1  0.52040280  0.94935663  0.80123519  1
  Sb  Sb17  1  0.46427324  0.99922857  0.18990543  1
  S  S18  1  0.93279631  0.97949927  0.80559891  1
  S  S19  1  0.06748681  0.01332804  0.21828623  1
  S  S20  1  0.41242662  0.94801942  0.98761157  1
  S  S21  1  0.57612624  0.97645228  0.01274650  1
  S  S22  1  0.16946347  0.94829592  0.89744562  1
  S  S23  1  0.82027337  0.04562818  0.10769342  1
  S  S24  1  0.10778998  0.46264064  0.65406944  1
  S  S25  1  0.90611712  0.47421413  0.35106731  1
  S  S26  1  0.73197905  0.05950569  0.30466004  1
  S  S27  1  0.26353657  0.94951479  0.68641058  1
  S  S28  1  0.17749007  0.49435861  0.45856545  1
  S  S29  1  0.82007638  0.52935310  0.55060220  1
  S  S30  1  0.43089265  0.48511167  0.80081716  1
  S  S31  1  0.55786290  0.46433744  0.18633124  1
  S  S32  1  0.90901382  0.51703852  0.98502975  1
  S  S33  1  0.08218712  0.46367506  0.02255209  1
  S  S34  1  0.65662199  0.49134571  0.87922051  1
  S  S35  1  0.32732153  0.43590974  0.09710820  1
  S  S36  1  0.60177822  0.01863600  0.65663853  1
  S  S37  1  0.39898414  0.01929587  0.34643156  1
  S  S38  1  0.24667738  0.51313973  0.32988186  1
  S  S39  1  0.75993468  0.43840895  0.70091563  1
  S  S40  1  0.67211905  0.97429966  0.45038951  1
  S  S41  1  0.33265066  0.94462362  0.55587033  1
