# generated using pymatgen
data_Pr2Mn3(SbS3)4
_symmetry_space_group_name_H-M   'P 1'
_cell_length_a   20.02960800
_cell_length_b   3.90410600
_cell_length_c   14.95364829
_cell_angle_alpha   90.00000000
_cell_angle_beta   126.33350609
_cell_angle_gamma   90.00000000
_symmetry_Int_Tables_number   1
_chemical_formula_structural   Pr2Mn3(SbS3)4
_chemical_formula_sum   'Pr4 Mn6 Sb8 S24'
_cell_volume   942.00006694
_cell_formula_units_Z   2
loop_
 _symmetry_equiv_pos_site_id
 _symmetry_equiv_pos_as_xyz
  1  'x, y, z'
loop_
 _atom_site_type_symbol
 _atom_site_label
 _atom_site_symmetry_multiplicity
 _atom_site_fract_x
 _atom_site_fract_y
 _atom_site_fract_z
 _atom_site_occupancy
  Pr  Pr0  1  0.27216594  0.48999631  0.86859769  1
  Pr  Pr1  1  0.72799614  0.49337170  0.13027107  1
  Pr  Pr2  1  0.76897061  0.00658942  0.87116711  1
  Pr  Pr3  1  0.22943948  0.94693316  0.12654964  1
  Mn  Mn4  1  0.30812621  0.43851966  0.61067527  1
  Mn  Mn5  1  0.70511573  0.53115908  0.36945924  1
  Mn  Mn6  1  0.99346615  0.97921701  0.99135693  1
  Mn  Mn7  1  0.80324005  0.05575041  0.62757938  1
  Mn  Mn8  1  0.20780027  0.07228219  0.39126568  1
  Mn  Mn9  1  0.50372279  0.51106152  0.99967641  1
  Sb  Sb10  1  0.88075064  0.87767777  0.45343609  1
  Sb  Sb11  1  0.11035584  0.99566745  0.54265881  1
  Sb  Sb12  1  0.03399194  0.49463724  0.82403567  1
  Sb  Sb13  1  0.95961170  0.47739961  0.19208982  1
  Sb  Sb14  1  0.40637306  0.57233367  0.46485589  1
  Sb  Sb15  1  0.60459049  0.56662215  0.53303621  1
  Sb  Sb16  1  0.52036403  0.94934967  0.80107905  1
  Sb  Sb17  1  0.46441160  0.99850682  0.19007951  1
  S  S18  1  0.93289491  0.97875783  0.80559468  1
  S  S19  1  0.06739079  0.01282809  0.21827778  1
  S  S20  1  0.41263829  0.94813618  0.98769827  1
  S  S21  1  0.57599020  0.97613759  0.01246408  1
  S  S22  1  0.16947560  0.94810602  0.89739859  1
  S  S23  1  0.82027529  0.04610033  0.10765100  1
  S  S24  1  0.10772048  0.46254268  0.65377107  1
  S  S25  1  0.90615347  0.47427669  0.35114806  1
  S  S26  1  0.73220597  0.05963784  0.30473751  1
  S  S27  1  0.26352506  0.94890837  0.68658588  1
  S  S28  1  0.17752564  0.49454092  0.45883310  1
  S  S29  1  0.82021713  0.52900929  0.55055749  1
  S  S30  1  0.43082198  0.48429984  0.80072462  1
  S  S31  1  0.55787055  0.46387895  0.18607976  1
  S  S32  1  0.90917625  0.51834313  0.98506250  1
  S  S33  1  0.08215308  0.46217550  0.02237943  1
  S  S34  1  0.65645251  0.49057665  0.87953146  1
  S  S35  1  0.32724754  0.43577111  0.09709561  1
  S  S36  1  0.60180654  0.01881881  0.65658338  1
  S  S37  1  0.39871348  0.02092675  0.34610004  1
  S  S38  1  0.24636466  0.51382067  0.32960504  1
  S  S39  1  0.75991666  0.43866851  0.70077130  1
  S  S40  1  0.67236501  0.97385016  0.45057062  1
  S  S41  1  0.33270550  0.94443202  0.55587702  1
