# generated using pymatgen
data_Pr2Mn3(SbS3)4
_symmetry_space_group_name_H-M   'P 1'
_cell_length_a   20.02960800
_cell_length_b   3.90410600
_cell_length_c   14.95364829
_cell_angle_alpha   90.00000000
_cell_angle_beta   126.33350609
_cell_angle_gamma   90.00000000
_symmetry_Int_Tables_number   1
_chemical_formula_structural   Pr2Mn3(SbS3)4
_chemical_formula_sum   'Pr4 Mn6 Sb8 S24'
_cell_volume   942.00006694
_cell_formula_units_Z   2
loop_
 _symmetry_equiv_pos_site_id
 _symmetry_equiv_pos_as_xyz
  1  'x, y, z'
loop_
 _atom_site_type_symbol
 _atom_site_label
 _atom_site_symmetry_multiplicity
 _atom_site_fract_x
 _atom_site_fract_y
 _atom_site_fract_z
 _atom_site_occupancy
  Pr  Pr0  1  0.27214373  0.48998085  0.86861452  1
  Pr  Pr1  1  0.72809634  0.49352478  0.13038460  1
  Pr  Pr2  1  0.76885010  0.00635052  0.87109944  1
  Pr  Pr3  1  0.22948973  0.94749825  0.12666832  1
  Mn  Mn4  1  0.30816896  0.43768476  0.61102981  1
  Mn  Mn5  1  0.70511773  0.53091309  0.36939928  1
  Mn  Mn6  1  0.99363695  0.97810942  0.99150978  1
  Mn  Mn7  1  0.80320862  0.05635557  0.62744423  1
  Mn  Mn8  1  0.20783804  0.07301442  0.39139892  1
  Mn  Mn9  1  0.50397212  0.51138513  0.99978481  1
  Sb  Sb10  1  0.88075180  0.87823176  0.45339777  1
  Sb  Sb11  1  0.11036862  0.99565486  0.54255817  1
  Sb  Sb12  1  0.03396039  0.49375438  0.82389689  1
  Sb  Sb13  1  0.95963003  0.47732798  0.19224103  1
  Sb  Sb14  1  0.40629769  0.57230420  0.46483681  1
  Sb  Sb15  1  0.60453891  0.56675934  0.53291913  1
  Sb  Sb16  1  0.52032809  0.94921093  0.80096519  1
  Sb  Sb17  1  0.46455270  0.99786812  0.19020556  1
  S  S18  1  0.93304053  0.97769072  0.80562679  1
  S  S19  1  0.06732630  0.01254061  0.21817824  1
  S  S20  1  0.41274146  0.94846737  0.98762678  1
  S  S21  1  0.57585373  0.97571091  0.01210502  1
  S  S22  1  0.16937080  0.94761005  0.89727632  1
  S  S23  1  0.82021490  0.04616962  0.10755189  1
  S  S24  1  0.10763855  0.46261010  0.65351125  1
  S  S25  1  0.90618327  0.47424429  0.35129052  1
  S  S26  1  0.73245136  0.06007234  0.30472004  1
  S  S27  1  0.26349473  0.94832043  0.68671545  1
  S  S28  1  0.17752151  0.49498990  0.45902768  1
  S  S29  1  0.82039546  0.52869611  0.55046937  1
  S  S30  1  0.43082489  0.48339046  0.80076939  1
  S  S31  1  0.55795820  0.46359755  0.18580291  1
  S  S32  1  0.90931846  0.51928068  0.98507075  1
  S  S33  1  0.08211725  0.46121663  0.02216209  1
  S  S34  1  0.65627353  0.48955529  0.87972800  1
  S  S35  1  0.32716343  0.43528847  0.09714983  1
  S  S36  1  0.60189029  0.01926784  0.65657152  1
  S  S37  1  0.39861460  0.02198677  0.34600449  1
  S  S38  1  0.24600827  0.51388099  0.32923911  1
  S  S39  1  0.75982151  0.43887715  0.70068521  1
  S  S40  1  0.67257324  0.97360600  0.45069360  1
  S  S41  1  0.33282478  0.94434830  0.55583738  1
