# generated using pymatgen
data_Pr2Mn3(SbS3)4
_symmetry_space_group_name_H-M   'P 1'
_cell_length_a   20.02960800
_cell_length_b   3.90410600
_cell_length_c   14.95364829
_cell_angle_alpha   90.00000000
_cell_angle_beta   126.33350609
_cell_angle_gamma   90.00000000
_symmetry_Int_Tables_number   1
_chemical_formula_structural   Pr2Mn3(SbS3)4
_chemical_formula_sum   'Pr4 Mn6 Sb8 S24'
_cell_volume   942.00006694
_cell_formula_units_Z   2
loop_
 _symmetry_equiv_pos_site_id
 _symmetry_equiv_pos_as_xyz
  1  'x, y, z'
loop_
 _atom_site_type_symbol
 _atom_site_label
 _atom_site_symmetry_multiplicity
 _atom_site_fract_x
 _atom_site_fract_y
 _atom_site_fract_z
 _atom_site_occupancy
  Pr  Pr0  1  0.27207605  0.49000139  0.86867262  1
  Pr  Pr1  1  0.72813722  0.49378611  0.13044205  1
  Pr  Pr2  1  0.76870470  0.00647215  0.87099014  1
  Pr  Pr3  1  0.22953923  0.94806407  0.12681472  1
  Mn  Mn4  1  0.30818422  0.43706394  0.61134258  1
  Mn  Mn5  1  0.70525207  0.53086786  0.36945102  1
  Mn  Mn6  1  0.99374335  0.97704787  0.99154440  1
  Mn  Mn7  1  0.80318022  0.05684675  0.62727219  1
  Mn  Mn8  1  0.20791883  0.07398704  0.39149274  1
  Mn  Mn9  1  0.50421470  0.51130079  0.99989627  1
  Sb  Sb10  1  0.88079692  0.87862668  0.45343663  1
  Sb  Sb11  1  0.11037090  0.99573636  0.54243715  1
  Sb  Sb12  1  0.03393186  0.49289664  0.82377994  1
  Sb  Sb13  1  0.95967299  0.47724033  0.19244618  1
  Sb  Sb14  1  0.40621071  0.57228007  0.46479332  1
  Sb  Sb15  1  0.60447176  0.56703519  0.53288878  1
  Sb  Sb16  1  0.52028251  0.94903803  0.80083546  1
  Sb  Sb17  1  0.46469824  0.99707070  0.19030667  1
  S  S18  1  0.93308727  0.97659127  0.80544781  1
  S  S19  1  0.06728092  0.01171356  0.21825218  1
  S  S20  1  0.41281156  0.94832975  0.98757039  1
  S  S21  1  0.57588114  0.97581326  0.01199558  1
  S  S22  1  0.16926692  0.94647288  0.89723962  1
  S  S23  1  0.82023373  0.04568515  0.10746432  1
  S  S24  1  0.10754230  0.46271372  0.65331692  1
  S  S25  1  0.90612053  0.47421132  0.35137534  1
  S  S26  1  0.73275377  0.06071031  0.30477659  1
  S  S27  1  0.26352170  0.94796444  0.68691874  1
  S  S28  1  0.17761154  0.49568742  0.45927313  1
  S  S29  1  0.82051608  0.52882414  0.55040103  1
  S  S30  1  0.43072016  0.48279206  0.80073817  1
  S  S31  1  0.55803327  0.46317862  0.18566365  1
  S  S32  1  0.90943015  0.52005722  0.98511871  1
  S  S33  1  0.08212596  0.46033386  0.02210030  1
  S  S34  1  0.65606470  0.48863388  0.87988952  1
  S  S35  1  0.32710271  0.43531011  0.09731099  1
  S  S36  1  0.60191646  0.01924155  0.65636520  1
  S  S37  1  0.39864383  0.02281594  0.34603736  1
  S  S38  1  0.24577774  0.51371836  0.32902044  1
  S  S39  1  0.75965721  0.43940119  0.70061442  1
  S  S40  1  0.67263538  0.97323202  0.45069255  1
  S  S41  1  0.33297948  0.94480894  0.55575546  1
