# generated using pymatgen
data_Pr2Mn3(SbS3)4
_symmetry_space_group_name_H-M   'P 1'
_cell_length_a   20.02960800
_cell_length_b   3.90410600
_cell_length_c   14.95364829
_cell_angle_alpha   90.00000000
_cell_angle_beta   126.33350609
_cell_angle_gamma   90.00000000
_symmetry_Int_Tables_number   1
_chemical_formula_structural   Pr2Mn3(SbS3)4
_chemical_formula_sum   'Pr4 Mn6 Sb8 S24'
_cell_volume   942.00006694
_cell_formula_units_Z   2
loop_
 _symmetry_equiv_pos_site_id
 _symmetry_equiv_pos_as_xyz
  1  'x, y, z'
loop_
 _atom_site_type_symbol
 _atom_site_label
 _atom_site_symmetry_multiplicity
 _atom_site_fract_x
 _atom_site_fract_y
 _atom_site_fract_z
 _atom_site_occupancy
  Pr  Pr0  1  0.27204177  0.49013294  0.86871196  1
  Pr  Pr1  1  0.72821017  0.49419507  0.13052499  1
  Pr  Pr2  1  0.76857213  0.00670007  0.87090023  1
  Pr  Pr3  1  0.22955775  0.94841828  0.12694565  1
  Mn  Mn4  1  0.30813623  0.43677427  0.61153837  1
  Mn  Mn5  1  0.70537185  0.53097682  0.36960572  1
  Mn  Mn6  1  0.99376050  0.97639804  0.99152714  1
  Mn  Mn7  1  0.80306728  0.05698077  0.62706567  1
  Mn  Mn8  1  0.20798188  0.07471608  0.39156173  1
  Mn  Mn9  1  0.50451160  0.51134231  0.00002979  1
  Sb  Sb10  1  0.88086322  0.87879636  0.45357279  1
  Sb  Sb11  1  0.11042025  0.99563489  0.54235903  1
  Sb  Sb12  1  0.03381761  0.49217715  0.82359663  1
  Sb  Sb13  1  0.95964320  0.47711661  0.19260295  1
  Sb  Sb14  1  0.40608297  0.57222376  0.46470115  1
  Sb  Sb15  1  0.60435608  0.56732979  0.53273698  1
  Sb  Sb16  1  0.52025321  0.94879814  0.80076937  1
  Sb  Sb17  1  0.46481625  0.99641653  0.19037521  1
  S  S18  1  0.93333955  0.97529150  0.80544857  1
  S  S19  1  0.06721146  0.01049058  0.21836367  1
  S  S20  1  0.41286027  0.94795221  0.98760434  1
  S  S21  1  0.57592039  0.97588091  0.01183499  1
  S  S22  1  0.16925471  0.94574456  0.89720097  1
  S  S23  1  0.82029966  0.04497038  0.10760587  1
  S  S24  1  0.10751539  0.46299275  0.65316602  1
  S  S25  1  0.90615922  0.47455528  0.35150465  1
  S  S26  1  0.73307686  0.06097473  0.30478558  1
  S  S27  1  0.26348450  0.94771009  0.68703096  1
  S  S28  1  0.17769705  0.49687423  0.45937942  1
  S  S29  1  0.82056644  0.52875246  0.55035599  1
  S  S30  1  0.43067284  0.48195719  0.80082553  1
  S  S31  1  0.55805140  0.46299766  0.18538835  1
  S  S32  1  0.90942220  0.52062881  0.98513979  1
  S  S33  1  0.08206790  0.45966110  0.02195024  1
  S  S34  1  0.65606627  0.48742025  0.88013583  1
  S  S35  1  0.32703814  0.43493950  0.09759343  1
  S  S36  1  0.60189502  0.01898226  0.65600858  1
  S  S37  1  0.39875110  0.02392360  0.34623492  1
  S  S38  1  0.24567324  0.51345315  0.32888895  1
  S  S39  1  0.75935850  0.43990395  0.70044567  1
  S  S40  1  0.67271375  0.97246485  0.45063986  1
  S  S41  1  0.33321021  0.94576092  0.55569310  1
