# generated using pymatgen
data_Pr2Mn3(SbS3)4
_symmetry_space_group_name_H-M   'P 1'
_cell_length_a   20.02960800
_cell_length_b   3.90410600
_cell_length_c   14.95364829
_cell_angle_alpha   90.00000000
_cell_angle_beta   126.33350609
_cell_angle_gamma   90.00000000
_symmetry_Int_Tables_number   1
_chemical_formula_structural   Pr2Mn3(SbS3)4
_chemical_formula_sum   'Pr4 Mn6 Sb8 S24'
_cell_volume   942.00006694
_cell_formula_units_Z   2
loop_
 _symmetry_equiv_pos_site_id
 _symmetry_equiv_pos_as_xyz
  1  'x, y, z'
loop_
 _atom_site_type_symbol
 _atom_site_label
 _atom_site_symmetry_multiplicity
 _atom_site_fract_x
 _atom_site_fract_y
 _atom_site_fract_z
 _atom_site_occupancy
  Pr  Pr0  1  0.27202510  0.49031499  0.86879418  1
  Pr  Pr1  1  0.72824827  0.49454276  0.13060031  1
  Pr  Pr2  1  0.76842015  0.00711727  0.87074569  1
  Pr  Pr3  1  0.22957427  0.94841767  0.12703573  1
  Mn  Mn4  1  0.30816552  0.43651502  0.61178427  1
  Mn  Mn5  1  0.70550470  0.53130816  0.36981378  1
  Mn  Mn6  1  0.99381614  0.97569210  0.99163462  1
  Mn  Mn7  1  0.80293653  0.05670211  0.62686281  1
  Mn  Mn8  1  0.20805387  0.07532445  0.39170795  1
  Mn  Mn9  1  0.50474971  0.51129423  0.00013981  1
  Sb  Sb10  1  0.88088956  0.87893865  0.45370946  1
  Sb  Sb11  1  0.11049803  0.99547108  0.54233322  1
  Sb  Sb12  1  0.03371165  0.49171550  0.82343453  1
  Sb  Sb13  1  0.95954585  0.47695686  0.19270692  1
  Sb  Sb14  1  0.40595265  0.57232313  0.46459025  1
  Sb  Sb15  1  0.60421952  0.56748294  0.53261135  1
  Sb  Sb16  1  0.52020571  0.94851736  0.80067542  1
  Sb  Sb17  1  0.46495927  0.99594663  0.19045430  1
  S  S18  1  0.93353742  0.97468861  0.80545912  1
  S  S19  1  0.06718027  0.00995625  0.21842354  1
  S  S20  1  0.41295745  0.94765265  0.98766038  1
  S  S21  1  0.57609172  0.97620338  0.01169798  1
  S  S22  1  0.16926705  0.94535840  0.89715431  1
  S  S23  1  0.82046093  0.04469063  0.10784673  1
  S  S24  1  0.10743027  0.46271711  0.65297888  1
  S  S25  1  0.90612588  0.47507526  0.35165505  1
  S  S26  1  0.73340951  0.06129817  0.30485303  1
  S  S27  1  0.26355590  0.94738909  0.68718104  1
  S  S28  1  0.17779608  0.49797474  0.45943327  1
  S  S29  1  0.82060036  0.52850017  0.55031523  1
  S  S30  1  0.43068450  0.48081230  0.80088631  1
  S  S31  1  0.55815305  0.46300203  0.18520015  1
  S  S32  1  0.90936599  0.52111539  0.98513115  1
  S  S33  1  0.08216340  0.45893710  0.02196042  1
  S  S34  1  0.65602576  0.48616997  0.88032999  1
  S  S35  1  0.32697599  0.43473900  0.09786220  1
  S  S36  1  0.60183536  0.01894118  0.65554926  1
  S  S37  1  0.39881856  0.02478521  0.34638977  1
  S  S38  1  0.24564878  0.51361226  0.32877487  1
  S  S39  1  0.75903725  0.44003043  0.70022152  1
  S  S40  1  0.67263498  0.97144960  0.45044751  1
  S  S41  1  0.33326044  0.94659489  0.55565647  1
