# generated using pymatgen
data_Pr2Mn3(SbS3)4
_symmetry_space_group_name_H-M   'P 1'
_cell_length_a   20.02960800
_cell_length_b   3.90410600
_cell_length_c   14.95364829
_cell_angle_alpha   90.00000000
_cell_angle_beta   126.33350609
_cell_angle_gamma   90.00000000
_symmetry_Int_Tables_number   1
_chemical_formula_structural   Pr2Mn3(SbS3)4
_chemical_formula_sum   'Pr4 Mn6 Sb8 S24'
_cell_volume   942.00006694
_cell_formula_units_Z   2
loop_
 _symmetry_equiv_pos_site_id
 _symmetry_equiv_pos_as_xyz
  1  'x, y, z'
loop_
 _atom_site_type_symbol
 _atom_site_label
 _atom_site_symmetry_multiplicity
 _atom_site_fract_x
 _atom_site_fract_y
 _atom_site_fract_z
 _atom_site_occupancy
  Pr  Pr0  1  0.27197777  0.49057560  0.86882678  1
  Pr  Pr1  1  0.72829308  0.49492299  0.13072483  1
  Pr  Pr2  1  0.76825923  0.00750752  0.87067617  1
  Pr  Pr3  1  0.22958787  0.94857719  0.12715206  1
  Mn  Mn4  1  0.30818477  0.43615609  0.61196623  1
  Mn  Mn5  1  0.70567350  0.53124684  0.37016302  1
  Mn  Mn6  1  0.99391070  0.97519241  0.99177422  1
  Mn  Mn7  1  0.80288395  0.05655229  0.62674318  1
  Mn  Mn8  1  0.20822086  0.07616522  0.39193199  1
  Mn  Mn9  1  0.50498148  0.51128684  0.00029165  1
  Sb  Sb10  1  0.88092543  0.87905202  0.45382806  1
  Sb  Sb11  1  0.11055158  0.99525562  0.54227249  1
  Sb  Sb12  1  0.03361346  0.49139390  0.82330456  1
  Sb  Sb13  1  0.95942651  0.47651678  0.19278564  1
  Sb  Sb14  1  0.40584466  0.57253050  0.46451145  1
  Sb  Sb15  1  0.60405797  0.56777629  0.53247327  1
  Sb  Sb16  1  0.52012245  0.94843876  0.80049559  1
  Sb  Sb17  1  0.46511408  0.99583532  0.19054985  1
  S  S18  1  0.93360384  0.97390820  0.80533255  1
  S  S19  1  0.06715328  0.00925128  0.21852480  1
  S  S20  1  0.41302501  0.94700192  0.98762656  1
  S  S21  1  0.57626879  0.97612383  0.01161539  1
  S  S22  1  0.16930347  0.94492650  0.89704194  1
  S  S23  1  0.82056078  0.04451332  0.10794905  1
  S  S24  1  0.10729557  0.46245936  0.65277453  1
  S  S25  1  0.90598134  0.47558919  0.35162465  1
  S  S26  1  0.73378076  0.06150853  0.30486508  1
  S  S27  1  0.26357492  0.94672123  0.68729509  1
  S  S28  1  0.17776858  0.49950572  0.45935569  1
  S  S29  1  0.82055134  0.52893424  0.55016189  1
  S  S30  1  0.43074338  0.48014120  0.80101834  1
  S  S31  1  0.55837014  0.46256459  0.18525087  1
  S  S32  1  0.90924037  0.52203413  0.98506122  1
  S  S33  1  0.08225575  0.45823886  0.02203484  1
  S  S34  1  0.65599485  0.48515122  0.88055744  1
  S  S35  1  0.32688310  0.43451229  0.09806692  1
  S  S36  1  0.60184960  0.01897576  0.65507520  1
  S  S37  1  0.39877808  0.02586934  0.34644833  1
  S  S38  1  0.24570356  0.51388800  0.32873721  1
  S  S39  1  0.75880838  0.44010798  0.70010945  1
  S  S40  1  0.67248848  0.97031540  0.45017140  1
  S  S41  1  0.33340617  0.94725773  0.55564360  1
