# generated using pymatgen
data_Pr2Mn3(SbS3)4
_symmetry_space_group_name_H-M   'P 1'
_cell_length_a   20.02960800
_cell_length_b   3.90410600
_cell_length_c   14.95364829
_cell_angle_alpha   90.00000000
_cell_angle_beta   126.33350609
_cell_angle_gamma   90.00000000
_symmetry_Int_Tables_number   1
_chemical_formula_structural   Pr2Mn3(SbS3)4
_chemical_formula_sum   'Pr4 Mn6 Sb8 S24'
_cell_volume   942.00006694
_cell_formula_units_Z   2
loop_
 _symmetry_equiv_pos_site_id
 _symmetry_equiv_pos_as_xyz
  1  'x, y, z'
loop_
 _atom_site_type_symbol
 _atom_site_label
 _atom_site_symmetry_multiplicity
 _atom_site_fract_x
 _atom_site_fract_y
 _atom_site_fract_z
 _atom_site_occupancy
  Pr  Pr0  1  0.27191988  0.49083657  0.86887624  1
  Pr  Pr1  1  0.72829178  0.49532579  0.13084520  1
  Pr  Pr2  1  0.76811477  0.00768616  0.87061961  1
  Pr  Pr3  1  0.22954512  0.94868345  0.12722861  1
  Mn  Mn4  1  0.30814082  0.43620103  0.61204332  1
  Mn  Mn5  1  0.70577659  0.53117994  0.37042937  1
  Mn  Mn6  1  0.99411395  0.97496288  0.99210500  1
  Mn  Mn7  1  0.80276102  0.05642165  0.62665560  1
  Mn  Mn8  1  0.20840684  0.07694574  0.39214533  1
  Mn  Mn9  1  0.50508624  0.51152857  0.00036533  1
  Sb  Sb10  1  0.88099571  0.87900136  0.45402126  1
  Sb  Sb11  1  0.11063784  0.99514950  0.54226003  1
  Sb  Sb12  1  0.03353384  0.49114578  0.82324160  1
  Sb  Sb13  1  0.95931625  0.47645037  0.19291474  1
  Sb  Sb14  1  0.40579560  0.57257046  0.46452495  1
  Sb  Sb15  1  0.60395623  0.56802741  0.53244247  1
  Sb  Sb16  1  0.52006598  0.94845364  0.80039973  1
  Sb  Sb17  1  0.46530015  0.99544990  0.19069275  1
  S  S18  1  0.93352855  0.97313022  0.80509217  1
  S  S19  1  0.06717169  0.00897794  0.21876580  1
  S  S20  1  0.41306307  0.94613167  0.98762102  1
  S  S21  1  0.57638562  0.97624313  0.01137971  1
  S  S22  1  0.16935440  0.94496741  0.89693950  1
  S  S23  1  0.82056926  0.04418832  0.10785066  1
  S  S24  1  0.10715007  0.46207548  0.65244910  1
  S  S25  1  0.90582460  0.47636462  0.35157399  1
  S  S26  1  0.73404843  0.06170488  0.30481084  1
  S  S27  1  0.26361020  0.94649591  0.68730591  1
  S  S28  1  0.17775488  0.50096095  0.45930395  1
  S  S29  1  0.82058419  0.52944992  0.55014310  1
  S  S30  1  0.43076912  0.47951162  0.80116897  1
  S  S31  1  0.55855929  0.46204947  0.18525405  1
  S  S32  1  0.90907165  0.52262248  0.98488829  1
  S  S33  1  0.08228389  0.45678533  0.02207576  1
  S  S34  1  0.65590240  0.48388724  0.88053567  1
  S  S35  1  0.32682545  0.43434869  0.09820407  1
  S  S36  1  0.60176352  0.01840748  0.65447049  1
  S  S37  1  0.39872879  0.02649954  0.34658142  1
  S  S38  1  0.24574973  0.51459720  0.32873996  1
  S  S39  1  0.75862189  0.44016509  0.70001339  1
  S  S40  1  0.67228555  0.96917514  0.44985254  1
  S  S41  1  0.33350424  0.94780827  0.55564348  1
