# generated using pymatgen
data_Pr2Mn3(SbS3)4
_symmetry_space_group_name_H-M   'P 1'
_cell_length_a   20.02960800
_cell_length_b   3.90410600
_cell_length_c   14.95364829
_cell_angle_alpha   90.00000000
_cell_angle_beta   126.33350609
_cell_angle_gamma   90.00000000
_symmetry_Int_Tables_number   1
_chemical_formula_structural   Pr2Mn3(SbS3)4
_chemical_formula_sum   'Pr4 Mn6 Sb8 S24'
_cell_volume   942.00006694
_cell_formula_units_Z   2
loop_
 _symmetry_equiv_pos_site_id
 _symmetry_equiv_pos_as_xyz
  1  'x, y, z'
loop_
 _atom_site_type_symbol
 _atom_site_label
 _atom_site_symmetry_multiplicity
 _atom_site_fract_x
 _atom_site_fract_y
 _atom_site_fract_z
 _atom_site_occupancy
  Pr  Pr0  1  0.27191181  0.49075973  0.86896019  1
  Pr  Pr1  1  0.72832247  0.49558350  0.13100118  1
  Pr  Pr2  1  0.76799661  0.00803108  0.87056000  1
  Pr  Pr3  1  0.22957198  0.94888300  0.12741162  1
  Mn  Mn4  1  0.30805352  0.43622776  0.61195319  1
  Mn  Mn5  1  0.70587553  0.53160894  0.37065770  1
  Mn  Mn6  1  0.99433667  0.97475755  0.99244252  1
  Mn  Mn7  1  0.80254325  0.05607250  0.62634198  1
  Mn  Mn8  1  0.20855341  0.07759308  0.39234329  1
  Mn  Mn9  1  0.50513604  0.51160455  0.00035496  1
  Sb  Sb10  1  0.88104203  0.87874524  0.45415530  1
  Sb  Sb11  1  0.11072457  0.99533464  0.54226858  1
  Sb  Sb12  1  0.03348614  0.49071948  0.82318171  1
  Sb  Sb13  1  0.95924560  0.47635992  0.19307592  1
  Sb  Sb14  1  0.40574876  0.57253771  0.46445787  1
  Sb  Sb15  1  0.60390787  0.56851813  0.53241777  1
  Sb  Sb16  1  0.51997408  0.94830238  0.80032711  1
  Sb  Sb17  1  0.46550207  0.99538070  0.19082536  1
  S  S18  1  0.93334180  0.97241082  0.80480287  1
  S  S19  1  0.06721427  0.00927407  0.21903987  1
  S  S20  1  0.41312568  0.94572870  0.98754702  1
  S  S21  1  0.57643692  0.97631234  0.01083601  1
  S  S22  1  0.16938373  0.94474774  0.89686185  1
  S  S23  1  0.82052735  0.04385942  0.10776981  1
  S  S24  1  0.10694308  0.46168267  0.65214456  1
  S  S25  1  0.90577089  0.47704262  0.35165842  1
  S  S26  1  0.73415128  0.06175688  0.30466124  1
  S  S27  1  0.26367483  0.94617642  0.68724924  1
  S  S28  1  0.17787128  0.50242916  0.45947380  1
  S  S29  1  0.82069949  0.52971297  0.55019978  1
  S  S30  1  0.43086392  0.47908755  0.80140149  1
  S  S31  1  0.55876334  0.46177344  0.18539473  1
  S  S32  1  0.90886058  0.52282282  0.98466138  1
  S  S33  1  0.08230779  0.45541618  0.02224325  1
  S  S34  1  0.65577026  0.48326140  0.88048222  1
  S  S35  1  0.32678545  0.43378914  0.09820932  1
  S  S36  1  0.60165223  0.01763008  0.65393429  1
  S  S37  1  0.39872172  0.02744858  0.34671634  1
  S  S38  1  0.24577988  0.51512540  0.32862842  1
  S  S39  1  0.75841125  0.44036010  0.69991469  1
  S  S40  1  0.67216087  0.96862097  0.44961842  1
  S  S41  1  0.33357554  0.94861310  0.55555126  1
