# generated using pymatgen
data_Pr2Mn3(SbS3)4
_symmetry_space_group_name_H-M   'P 1'
_cell_length_a   20.02960800
_cell_length_b   3.90410600
_cell_length_c   14.95364829
_cell_angle_alpha   90.00000000
_cell_angle_beta   126.33350609
_cell_angle_gamma   90.00000000
_symmetry_Int_Tables_number   1
_chemical_formula_structural   Pr2Mn3(SbS3)4
_chemical_formula_sum   'Pr4 Mn6 Sb8 S24'
_cell_volume   942.00006694
_cell_formula_units_Z   2
loop_
 _symmetry_equiv_pos_site_id
 _symmetry_equiv_pos_as_xyz
  1  'x, y, z'
loop_
 _atom_site_type_symbol
 _atom_site_label
 _atom_site_symmetry_multiplicity
 _atom_site_fract_x
 _atom_site_fract_y
 _atom_site_fract_z
 _atom_site_occupancy
  Pr  Pr0  1  0.26610781  0.48074424  0.86373399  1
  Pr  Pr1  1  0.73554469  0.51442466  0.13558222  1
  Pr  Pr2  1  0.76343817  0.01654083  0.86331558  1
  Pr  Pr3  1  0.23677593  0.00666315  0.13716864  1
  Mn  Mn4  1  0.29068564  0.47627774  0.59859213  1
  Mn  Mn5  1  0.69022980  0.49776683  0.37569197  1
  Mn  Mn6  1  0.00935340  0.99123749  0.01658907  1
  Mn  Mn7  1  0.80392369  0.01670457  0.61460258  1
  Mn  Mn8  1  0.19794022  0.97874257  0.37837881  1
  Mn  Mn9  1  0.49255105  0.47143038  0.98922667  1
  Sb  Sb10  1  0.89007970  0.98035794  0.44982633  1
  Sb  Sb11  1  0.11242370  0.97664780  0.54775907  1
  Sb  Sb12  1  0.04026621  0.51814244  0.82206485  1
  Sb  Sb13  1  0.96534563  0.50359800  0.18500385  1
  Sb  Sb14  1  0.39592661  0.50928058  0.45305035  1
  Sb  Sb15  1  0.60607799  0.47163550  0.54745993  1
  Sb  Sb16  1  0.53424151  0.00175139  0.81034124  1
  Sb  Sb17  1  0.46110258  0.01531980  0.18236541  1
  S  S18  1  0.93666310  0.99440971  0.80388874  1
  S  S19  1  0.06686864  0.98581256  0.19831367  1
  S  S20  1  0.40821086  0.97643015  0.98242330  1
  S  S21  1  0.58156004  0.98543020  0.01108714  1
  S  S22  1  0.17130955  0.02439245  0.89822223  1
  S  S23  1  0.82443048  0.04415042  0.09577926  1
  S  S24  1  0.09541408  0.47171114  0.64688813  1
  S  S25  1  0.91148178  0.47544674  0.35457195  1
  S  S26  1  0.74125791  0.94570806  0.30246877  1
  S  S27  1  0.26377805  0.00383747  0.71248705  1
  S  S28  1  0.15939440  0.47967515  0.43175665  1
  S  S29  1  0.82643546  0.48361874  0.54779862  1
  S  S30  1  0.43227427  0.50016975  0.79864871  1
  S  S31  1  0.56021336  0.50666943  0.18424731  1
  S  S32  1  0.91088204  0.48803942  0.98846501  1
  S  S33  1  0.08825477  0.46591877  0.02211922  1
  S  S34  1  0.66463939  0.51144101  0.88749752  1
  S  S35  1  0.33017632  0.52168702  0.09485821  1
  S  S36  1  0.59526413  0.98562783  0.65456153  1
  S  S37  1  0.40721370  0.98410198  0.35126649  1
  S  S38  1  0.24205581  0.45759632  0.31005484  1
  S  S39  1  0.76399780  0.50061981  0.70099275  1
  S  S40  1  0.66972848  0.02850898  0.45651977  1
  S  S41  1  0.32201088  0.97492911  0.54710494  1
