# generated using pymatgen
data_Pr2Mn3(SbS3)4
_symmetry_space_group_name_H-M   'P 1'
_cell_length_a   20.02960800
_cell_length_b   3.90410600
_cell_length_c   14.95364829
_cell_angle_alpha   90.00000000
_cell_angle_beta   126.33350609
_cell_angle_gamma   90.00000000
_symmetry_Int_Tables_number   1
_chemical_formula_structural   Pr2Mn3(SbS3)4
_chemical_formula_sum   'Pr4 Mn6 Sb8 S24'
_cell_volume   942.00006694
_cell_formula_units_Z   2
loop_
 _symmetry_equiv_pos_site_id
 _symmetry_equiv_pos_as_xyz
  1  'x, y, z'
loop_
 _atom_site_type_symbol
 _atom_site_label
 _atom_site_symmetry_multiplicity
 _atom_site_fract_x
 _atom_site_fract_y
 _atom_site_fract_z
 _atom_site_occupancy
  Pr  Pr0  1  0.27193546  0.49038709  0.86910785  1
  Pr  Pr1  1  0.72834003  0.49582775  0.13113211  1
  Pr  Pr2  1  0.76785302  0.00833606  0.87046255  1
  Pr  Pr3  1  0.22957780  0.94890510  0.12756301  1
  Mn  Mn4  1  0.30788914  0.43570914  0.61182530  1
  Mn  Mn5  1  0.70588467  0.53145768  0.37071775  1
  Mn  Mn6  1  0.99453603  0.97467395  0.99277829  1
  Mn  Mn7  1  0.80244281  0.05598192  0.62616963  1
  Mn  Mn8  1  0.20866689  0.07799622  0.39248237  1
  Mn  Mn9  1  0.50523534  0.51159794  0.00042746  1
  Sb  Sb10  1  0.88110580  0.87857436  0.45425077  1
  Sb  Sb11  1  0.11083847  0.99535706  0.54225469  1
  Sb  Sb12  1  0.03345612  0.49034797  0.82320942  1
  Sb  Sb13  1  0.95922300  0.47632593  0.19329458  1
  Sb  Sb14  1  0.40573677  0.57261397  0.46440724  1
  Sb  Sb15  1  0.60391540  0.56903311  0.53233758  1
  Sb  Sb16  1  0.51993996  0.94807154  0.80031396  1
  Sb  Sb17  1  0.46570504  0.99523105  0.19095749  1
  S  S18  1  0.93316604  0.97166773  0.80471009  1
  S  S19  1  0.06729556  0.00932837  0.21927460  1
  S  S20  1  0.41300941  0.94584179  0.98723120  1
  S  S21  1  0.57652591  0.97671700  0.01032429  1
  S  S22  1  0.16940904  0.94432925  0.89674220  1
  S  S23  1  0.82048878  0.04379734  0.10754400  1
  S  S24  1  0.10670988  0.46135413  0.65188548  1
  S  S25  1  0.90583400  0.47808348  0.35187476  1
  S  S26  1  0.73430648  0.06163685  0.30460947  1
  S  S27  1  0.26362856  0.94559575  0.68702480  1
  S  S28  1  0.17806246  0.50358617  0.45973970  1
  S  S29  1  0.82082510  0.53008389  0.55019483  1
  S  S30  1  0.43084197  0.47862780  0.80151204  1
  S  S31  1  0.55886494  0.46150034  0.18528234  1
  S  S32  1  0.90877993  0.52314236  0.98450769  1
  S  S33  1  0.08219777  0.45436402  0.02226355  1
  S  S34  1  0.65563628  0.48229806  0.88054632  1
  S  S35  1  0.32680521  0.43314786  0.09818439  1
  S  S36  1  0.60166264  0.01658226  0.65337451  1
  S  S37  1  0.39860995  0.02851262  0.34676696  1
  S  S38  1  0.24587443  0.51594124  0.32860026  1
  S  S39  1  0.75826913  0.44049541  0.69981387  1
  S  S40  1  0.67197861  0.96778141  0.44935964  1
  S  S41  1  0.33365659  0.94907349  0.55544410  1
