# generated using pymatgen
data_Pr2Mn3(SbS3)4
_symmetry_space_group_name_H-M   'P 1'
_cell_length_a   20.02960800
_cell_length_b   3.90410600
_cell_length_c   14.95364829
_cell_angle_alpha   90.00000000
_cell_angle_beta   126.33350609
_cell_angle_gamma   90.00000000
_symmetry_Int_Tables_number   1
_chemical_formula_structural   Pr2Mn3(SbS3)4
_chemical_formula_sum   'Pr4 Mn6 Sb8 S24'
_cell_volume   942.00006694
_cell_formula_units_Z   2
loop_
 _symmetry_equiv_pos_site_id
 _symmetry_equiv_pos_as_xyz
  1  'x, y, z'
loop_
 _atom_site_type_symbol
 _atom_site_label
 _atom_site_symmetry_multiplicity
 _atom_site_fract_x
 _atom_site_fract_y
 _atom_site_fract_z
 _atom_site_occupancy
  Pr  Pr0  1  0.27197693  0.49032808  0.86925257  1
  Pr  Pr1  1  0.72837131  0.49607771  0.13133118  1
  Pr  Pr2  1  0.76778748  0.00870652  0.87040241  1
  Pr  Pr3  1  0.22966547  0.94907532  0.12768911  1
  Mn  Mn4  1  0.30775245  0.43525502  0.61174253  1
  Mn  Mn5  1  0.70587536  0.53189696  0.37097220  1
  Mn  Mn6  1  0.99470471  0.97505106  0.99309056  1
  Mn  Mn7  1  0.80226368  0.05593125  0.62598022  1
  Mn  Mn8  1  0.20876525  0.07793251  0.39251804  1
  Mn  Mn9  1  0.50538912  0.51187378  0.00054915  1
  Sb  Sb10  1  0.88118314  0.87831781  0.45430863  1
  Sb  Sb11  1  0.11091389  0.99532787  0.54218226  1
  Sb  Sb12  1  0.03340184  0.49023647  0.82319860  1
  Sb  Sb13  1  0.95924423  0.47650976  0.19356285  1
  Sb  Sb14  1  0.40573503  0.57288191  0.46437014  1
  Sb  Sb15  1  0.60399790  0.56927943  0.53234737  1
  Sb  Sb16  1  0.51989767  0.94811790  0.80024924  1
  Sb  Sb17  1  0.46585127  0.99513181  0.19113170  1
  S  S18  1  0.93304838  0.97068597  0.80463276  1
  S  S19  1  0.06752471  0.00938059  0.21953060  1
  S  S20  1  0.41281627  0.94563065  0.98675642  1
  S  S21  1  0.57664895  0.97758092  0.00971823  1
  S  S22  1  0.16937422  0.94373981  0.89664498  1
  S  S23  1  0.82045955  0.04377177  0.10734343  1
  S  S24  1  0.10642346  0.46092873  0.65158697  1
  S  S25  1  0.90587988  0.47863087  0.35208578  1
  S  S26  1  0.73442435  0.06200384  0.30442645  1
  S  S27  1  0.26368426  0.94482794  0.68693903  1
  S  S28  1  0.17822529  0.50436104  0.45994187  1
  S  S29  1  0.82099688  0.53017750  0.55030106  1
  S  S30  1  0.43088080  0.47788809  0.80168039  1
  S  S31  1  0.55909452  0.46055572  0.18522972  1
  S  S32  1  0.90882686  0.52350502  0.98440729  1
  S  S33  1  0.08206348  0.45341467  0.02236099  1
  S  S34  1  0.65554044  0.48177749  0.88056799  1
  S  S35  1  0.32680978  0.43264788  0.09803072  1
  S  S36  1  0.60173954  0.01540069  0.65285563  1
  S  S37  1  0.39848311  0.02963149  0.34693245  1
  S  S38  1  0.24604343  0.51696014  0.32851391  1
  S  S39  1  0.75810454  0.44044438  0.69961160  1
  S  S40  1  0.67186840  0.96696338  0.44908957  1
  S  S41  1  0.33375910  0.94942521  0.55537714  1
