# generated using pymatgen
data_Pr2Mn3(SbS3)4
_symmetry_space_group_name_H-M   'P 1'
_cell_length_a   20.02960800
_cell_length_b   3.90410600
_cell_length_c   14.95364829
_cell_angle_alpha   90.00000000
_cell_angle_beta   126.33350609
_cell_angle_gamma   90.00000000
_symmetry_Int_Tables_number   1
_chemical_formula_structural   Pr2Mn3(SbS3)4
_chemical_formula_sum   'Pr4 Mn6 Sb8 S24'
_cell_volume   942.00006694
_cell_formula_units_Z   2
loop_
 _symmetry_equiv_pos_site_id
 _symmetry_equiv_pos_as_xyz
  1  'x, y, z'
loop_
 _atom_site_type_symbol
 _atom_site_label
 _atom_site_symmetry_multiplicity
 _atom_site_fract_x
 _atom_site_fract_y
 _atom_site_fract_z
 _atom_site_occupancy
  Pr  Pr0  1  0.27201833  0.49026059  0.86939704  1
  Pr  Pr1  1  0.72834033  0.49625240  0.13156986  1
  Pr  Pr2  1  0.76776910  0.00883944  0.87035641  1
  Pr  Pr3  1  0.22981441  0.94924615  0.12783567  1
  Mn  Mn4  1  0.30759748  0.43504002  0.61163258  1
  Mn  Mn5  1  0.70584730  0.53164809  0.37128802  1
  Mn  Mn6  1  0.99486308  0.97564587  0.99344527  1
  Mn  Mn7  1  0.80206162  0.05565238  0.62575189  1
  Mn  Mn8  1  0.20886211  0.07809114  0.39252568  1
  Mn  Mn9  1  0.50555327  0.51233463  0.00073811  1
  Sb  Sb10  1  0.88135738  0.87802761  0.45443502  1
  Sb  Sb11  1  0.11099245  0.99557931  0.54217199  1
  Sb  Sb12  1  0.03334410  0.49028197  0.82314528  1
  Sb  Sb13  1  0.95922526  0.47693512  0.19376849  1
  Sb  Sb14  1  0.40569855  0.57307858  0.46428529  1
  Sb  Sb15  1  0.60411926  0.56946511  0.53241352  1
  Sb  Sb16  1  0.51983870  0.94810576  0.80017067  1
  Sb  Sb17  1  0.46602219  0.99506044  0.19136594  1
  S  S18  1  0.93281199  0.97033276  0.80445387  1
  S  S19  1  0.06775601  0.00957951  0.21965225  1
  S  S20  1  0.41252279  0.94566131  0.98614280  1
  S  S21  1  0.57676001  0.97818557  0.00923881  1
  S  S22  1  0.16933112  0.94369902  0.89652296  1
  S  S23  1  0.82056706  0.04425491  0.10724389  1
  S  S24  1  0.10616830  0.46061021  0.65140430  1
  S  S25  1  0.90587056  0.47909431  0.35214141  1
  S  S26  1  0.73438260  0.06216596  0.30395432  1
  S  S27  1  0.26376324  0.94427809  0.68679164  1
  S  S28  1  0.17845496  0.50593224  0.46021241  1
  S  S29  1  0.82116663  0.52942594  0.55042498  1
  S  S30  1  0.43092316  0.47710422  0.80176583  1
  S  S31  1  0.55922767  0.45997980  0.18515707  1
  S  S32  1  0.90889739  0.52402975  0.98434766  1
  S  S33  1  0.08180863  0.45239980  0.02237992  1
  S  S34  1  0.65536370  0.48114279  0.88045058  1
  S  S35  1  0.32689515  0.43254349  0.09791077  1
  S  S36  1  0.60166218  0.01445634  0.65224609  1
  S  S37  1  0.39841948  0.03052987  0.34712897  1
  S  S38  1  0.24614342  0.51758405  0.32831949  1
  S  S39  1  0.75792608  0.44045324  0.69927354  1
  S  S40  1  0.67177008  0.96589557  0.44888622  1
  S  S41  1  0.33391161  0.94959926  0.55532304  1
