# generated using pymatgen
data_Pr2Mn3(SbS3)4
_symmetry_space_group_name_H-M   'P 1'
_cell_length_a   20.02960800
_cell_length_b   3.90410600
_cell_length_c   14.95364829
_cell_angle_alpha   90.00000000
_cell_angle_beta   126.33350609
_cell_angle_gamma   90.00000000
_symmetry_Int_Tables_number   1
_chemical_formula_structural   Pr2Mn3(SbS3)4
_chemical_formula_sum   'Pr4 Mn6 Sb8 S24'
_cell_volume   942.00006694
_cell_formula_units_Z   2
loop_
 _symmetry_equiv_pos_site_id
 _symmetry_equiv_pos_as_xyz
  1  'x, y, z'
loop_
 _atom_site_type_symbol
 _atom_site_label
 _atom_site_symmetry_multiplicity
 _atom_site_fract_x
 _atom_site_fract_y
 _atom_site_fract_z
 _atom_site_occupancy
  Pr  Pr0  1  0.27209379  0.49003162  0.86964841  1
  Pr  Pr1  1  0.72830491  0.49633112  0.13178176  1
  Pr  Pr2  1  0.76771568  0.00899846  0.87028635  1
  Pr  Pr3  1  0.22998907  0.94939478  0.12804207  1
  Mn  Mn4  1  0.30754859  0.43459081  0.61177329  1
  Mn  Mn5  1  0.70585988  0.53120222  0.37161834  1
  Mn  Mn6  1  0.99499519  0.97592603  0.99374471  1
  Mn  Mn7  1  0.80181465  0.05542011  0.62549614  1
  Mn  Mn8  1  0.20901141  0.07836965  0.39255865  1
  Mn  Mn9  1  0.50562005  0.51284395  0.00084264  1
  Sb  Sb10  1  0.88148238  0.87777162  0.45454598  1
  Sb  Sb11  1  0.11107570  0.99583520  0.54213340  1
  Sb  Sb12  1  0.03332326  0.49036416  0.82316219  1
  Sb  Sb13  1  0.95918783  0.47728806  0.19397736  1
  Sb  Sb14  1  0.40570747  0.57342088  0.46431268  1
  Sb  Sb15  1  0.60429354  0.56950641  0.53246269  1
  Sb  Sb16  1  0.51974878  0.94816379  0.80001722  1
  Sb  Sb17  1  0.46614100  0.99476007  0.19152825  1
  S  S18  1  0.93259260  0.96962471  0.80438526  1
  S  S19  1  0.06792730  0.00957046  0.21974909  1
  S  S20  1  0.41228050  0.94570134  0.98562422  1
  S  S21  1  0.57681924  0.97880498  0.00866485  1
  S  S22  1  0.16929713  0.94365486  0.89640402  1
  S  S23  1  0.82062751  0.04499579  0.10705775  1
  S  S24  1  0.10597261  0.46014166  0.65145395  1
  S  S25  1  0.90582016  0.47882260  0.35221886  1
  S  S26  1  0.73434674  0.06255701  0.30366040  1
  S  S27  1  0.26379726  0.94403839  0.68657829  1
  S  S28  1  0.17878611  0.50719607  0.46042656  1
  S  S29  1  0.82126829  0.52863357  0.55044846  1
  S  S30  1  0.43115607  0.47625951  0.80196035  1
  S  S31  1  0.55918847  0.45957009  0.18503919  1
  S  S32  1  0.90911388  0.52403953  0.98428725  1
  S  S33  1  0.08167455  0.45153592  0.02244608  1
  S  S34  1  0.65536719  0.48001074  0.88050494  1
  S  S35  1  0.32698168  0.43204272  0.09785088  1
  S  S36  1  0.60169069  0.01345823  0.65175300  1
  S  S37  1  0.39839972  0.03133237  0.34742559  1
  S  S38  1  0.24626434  0.51820287  0.32819018  1
  S  S39  1  0.75772829  0.44064090  0.69894334  1
  S  S40  1  0.67166389  0.96475130  0.44871683  1
  S  S41  1  0.33400436  0.94955595  0.55534600  1
