# generated using pymatgen
data_Pr2Mn3(SbS3)4
_symmetry_space_group_name_H-M   'P 1'
_cell_length_a   20.02960800
_cell_length_b   3.90410600
_cell_length_c   14.95364829
_cell_angle_alpha   90.00000000
_cell_angle_beta   126.33350609
_cell_angle_gamma   90.00000000
_symmetry_Int_Tables_number   1
_chemical_formula_structural   Pr2Mn3(SbS3)4
_chemical_formula_sum   'Pr4 Mn6 Sb8 S24'
_cell_volume   942.00006694
_cell_formula_units_Z   2
loop_
 _symmetry_equiv_pos_site_id
 _symmetry_equiv_pos_as_xyz
  1  'x, y, z'
loop_
 _atom_site_type_symbol
 _atom_site_label
 _atom_site_symmetry_multiplicity
 _atom_site_fract_x
 _atom_site_fract_y
 _atom_site_fract_z
 _atom_site_occupancy
  Pr  Pr0  1  0.27214749  0.48984345  0.86993275  1
  Pr  Pr1  1  0.72823269  0.49650080  0.13194939  1
  Pr  Pr2  1  0.76766704  0.00925495  0.87025334  1
  Pr  Pr3  1  0.23015359  0.94965695  0.12822148  1
  Mn  Mn4  1  0.30748496  0.43392029  0.61180328  1
  Mn  Mn5  1  0.70585677  0.53065043  0.37180372  1
  Mn  Mn6  1  0.99510466  0.97591549  0.99404498  1
  Mn  Mn7  1  0.80155198  0.05499946  0.62529819  1
  Mn  Mn8  1  0.20918003  0.07922518  0.39253202  1
  Mn  Mn9  1  0.50568630  0.51317504  0.00096693  1
  Sb  Sb10  1  0.88163227  0.87777052  0.45472890  1
  Sb  Sb11  1  0.11119579  0.99609907  0.54203524  1
  Sb  Sb12  1  0.03327532  0.49043475  0.82319058  1
  Sb  Sb13  1  0.95921287  0.47766580  0.19415431  1
  Sb  Sb14  1  0.40576403  0.57409462  0.46432774  1
  Sb  Sb15  1  0.60441757  0.56967883  0.53248527  1
  Sb  Sb16  1  0.51959632  0.94820923  0.79981766  1
  Sb  Sb17  1  0.46623463  0.99449380  0.19167793  1
  S  S18  1  0.93243328  0.96920645  0.80438005  1
  S  S19  1  0.06813373  0.00895014  0.21990284  1
  S  S20  1  0.41207012  0.94541152  0.98507176  1
  S  S21  1  0.57700997  0.97887094  0.00816173  1
  S  S22  1  0.16932324  0.94378627  0.89630656  1
  S  S23  1  0.82070531  0.04566747  0.10690944  1
  S  S24  1  0.10566732  0.46007454  0.65146751  1
  S  S25  1  0.90577097  0.47839938  0.35227708  1
  S  S26  1  0.73436047  0.06328008  0.30349705  1
  S  S27  1  0.26378039  0.94384531  0.68640885  1
  S  S28  1  0.17912508  0.50854417  0.46060006  1
  S  S29  1  0.82133441  0.52811818  0.55053429  1
  S  S30  1  0.43135323  0.47541993  0.80205539  1
  S  S31  1  0.55920638  0.45894808  0.18493904  1
  S  S32  1  0.90933698  0.52377652  0.98437301  1
  S  S33  1  0.08155021  0.45010216  0.02249947  1
  S  S34  1  0.65540340  0.47949469  0.88054064  1
  S  S35  1  0.32710097  0.43171253  0.09798766  1
  S  S36  1  0.60175948  0.01299872  0.65139325  1
  S  S37  1  0.39846998  0.03191674  0.34780925  1
  S  S38  1  0.24637873  0.51895164  0.32804204  1
  S  S39  1  0.75755118  0.44049990  0.69853303  1
  S  S40  1  0.67165051  0.96406133  0.44863261  1
  S  S41  1  0.33416022  0.94987558  0.55552803  1
