# generated using pymatgen
data_Pr2Mn3(SbS3)4
_symmetry_space_group_name_H-M   'P 1'
_cell_length_a   20.02960800
_cell_length_b   3.90410600
_cell_length_c   14.95364829
_cell_angle_alpha   90.00000000
_cell_angle_beta   126.33350609
_cell_angle_gamma   90.00000000
_symmetry_Int_Tables_number   1
_chemical_formula_structural   Pr2Mn3(SbS3)4
_chemical_formula_sum   'Pr4 Mn6 Sb8 S24'
_cell_volume   942.00006694
_cell_formula_units_Z   2
loop_
 _symmetry_equiv_pos_site_id
 _symmetry_equiv_pos_as_xyz
  1  'x, y, z'
loop_
 _atom_site_type_symbol
 _atom_site_label
 _atom_site_symmetry_multiplicity
 _atom_site_fract_x
 _atom_site_fract_y
 _atom_site_fract_z
 _atom_site_occupancy
  Pr  Pr0  1  0.27214736  0.48955930  0.87021269  1
  Pr  Pr1  1  0.72829080  0.49661848  0.13218289  1
  Pr  Pr2  1  0.76751070  0.00942532  0.87011442  1
  Pr  Pr3  1  0.23032294  0.94975077  0.12841024  1
  Mn  Mn4  1  0.30725263  0.43306902  0.61172315  1
  Mn  Mn5  1  0.70574227  0.53068805  0.37194770  1
  Mn  Mn6  1  0.99520225  0.97617731  0.99428435  1
  Mn  Mn7  1  0.80130472  0.05488144  0.62514861  1
  Mn  Mn8  1  0.20938077  0.07990944  0.39264612  1
  Mn  Mn9  1  0.50572268  0.51352366  0.00105300  1
  Sb  Sb10  1  0.88178338  0.87784170  0.45484219  1
  Sb  Sb11  1  0.11132070  0.99636806  0.54188184  1
  Sb  Sb12  1  0.03325870  0.49050028  0.82328571  1
  Sb  Sb13  1  0.95925602  0.47804695  0.19431955  1
  Sb  Sb14  1  0.40581307  0.57479855  0.46435223  1
  Sb  Sb15  1  0.60449922  0.57000888  0.53245475  1
  Sb  Sb16  1  0.51953778  0.94821508  0.79967371  1
  Sb  Sb17  1  0.46632887  0.99419087  0.19176868  1
  S  S18  1  0.93228564  0.96913801  0.80434891  1
  S  S19  1  0.06823341  0.00812701  0.22014418  1
  S  S20  1  0.41178302  0.94507178  0.98451874  1
  S  S21  1  0.57720223  0.97930335  0.00782528  1
  S  S22  1  0.16941491  0.94379089  0.89617721  1
  S  S23  1  0.82083496  0.04679464  0.10682523  1
  S  S24  1  0.10537575  0.46034240  0.65148156  1
  S  S25  1  0.90581641  0.47854046  0.35242818  1
  S  S26  1  0.73446318  0.06426323  0.30348313  1
  S  S27  1  0.26378679  0.94385055  0.68626556  1
  S  S28  1  0.17943491  0.50961002  0.46053924  1
  S  S29  1  0.82145236  0.52741953  0.55060523  1
  S  S30  1  0.43156293  0.47385866  0.80222338  1
  S  S31  1  0.55920520  0.45833610  0.18509014  1
  S  S32  1  0.90951577  0.52325323  0.98451502  1
  S  S33  1  0.08156781  0.44929173  0.02266864  1
  S  S34  1  0.65546125  0.47938015  0.88047524  1
  S  S35  1  0.32726322  0.43195853  0.09818542  1
  S  S36  1  0.60176715  0.01275605  0.65086904  1
  S  S37  1  0.39842716  0.03234776  0.34800882  1
  S  S38  1  0.24653828  0.51930329  0.32795436  1
  S  S39  1  0.75747024  0.44000730  0.69827505  1
  S  S40  1  0.67162065  0.96337121  0.44849270  1
  S  S41  1  0.33429797  0.95042427  0.55569614  1
