# generated using pymatgen
data_Pr2Mn3(SbS3)4
_symmetry_space_group_name_H-M   'P 1'
_cell_length_a   20.02960800
_cell_length_b   3.90410600
_cell_length_c   14.95364829
_cell_angle_alpha   90.00000000
_cell_angle_beta   126.33350609
_cell_angle_gamma   90.00000000
_symmetry_Int_Tables_number   1
_chemical_formula_structural   Pr2Mn3(SbS3)4
_chemical_formula_sum   'Pr4 Mn6 Sb8 S24'
_cell_volume   942.00006694
_cell_formula_units_Z   2
loop_
 _symmetry_equiv_pos_site_id
 _symmetry_equiv_pos_as_xyz
  1  'x, y, z'
loop_
 _atom_site_type_symbol
 _atom_site_label
 _atom_site_symmetry_multiplicity
 _atom_site_fract_x
 _atom_site_fract_y
 _atom_site_fract_z
 _atom_site_occupancy
  Pr  Pr0  1  0.27213498  0.48947141  0.87043447  1
  Pr  Pr1  1  0.72834675  0.49662578  0.13233666  1
  Pr  Pr2  1  0.76736068  0.00969914  0.86996554  1
  Pr  Pr3  1  0.23049157  0.95000442  0.12855070  1
  Mn  Mn4  1  0.30698073  0.43246908  0.61152078  1
  Mn  Mn5  1  0.70558345  0.53040217  0.37197487  1
  Mn  Mn6  1  0.99525775  0.97627950  0.99451025  1
  Mn  Mn7  1  0.80108651  0.05504084  0.62507200  1
  Mn  Mn8  1  0.20953987  0.08086336  0.39278319  1
  Mn  Mn9  1  0.50582405  0.51376895  0.00126372  1
  Sb  Sb10  1  0.88194830  0.87802021  0.45502464  1
  Sb  Sb11  1  0.11145594  0.99644636  0.54177484  1
  Sb  Sb12  1  0.03326574  0.49046814  0.82340144  1
  Sb  Sb13  1  0.95932452  0.47846243  0.19450907  1
  Sb  Sb14  1  0.40588155  0.57537616  0.46441393  1
  Sb  Sb15  1  0.60455183  0.57049235  0.53245740  1
  Sb  Sb16  1  0.51940631  0.94842142  0.79952532  1
  Sb  Sb17  1  0.46646571  0.99377356  0.19183081  1
  S  S18  1  0.93209578  0.96894806  0.80415862  1
  S  S19  1  0.06821755  0.00728427  0.22029248  1
  S  S20  1  0.41152332  0.94496985  0.98414160  1
  S  S21  1  0.57740249  0.97959968  0.00748541  1
  S  S22  1  0.16956536  0.94381709  0.89611584  1
  S  S23  1  0.82096144  0.04764770  0.10674006  1
  S  S24  1  0.10511632  0.46071137  0.65155737  1
  S  S25  1  0.90590244  0.47865323  0.35257879  1
  S  S26  1  0.73457409  0.06473221  0.30345790  1
  S  S27  1  0.26384783  0.94397730  0.68620785  1
  S  S28  1  0.17978945  0.51080464  0.46054616  1
  S  S29  1  0.82157220  0.52663893  0.55073045  1
  S  S30  1  0.43189789  0.47220938  0.80239390  1
  S  S31  1  0.55922221  0.45811527  0.18533925  1
  S  S32  1  0.90973953  0.52271115  0.98473580  1
  S  S33  1  0.08166085  0.44829958  0.02281444  1
  S  S34  1  0.65561540  0.47875862  0.88048117  1
  S  S35  1  0.32739034  0.43191932  0.09835754  1
  S  S36  1  0.60165542  0.01257598  0.65038975  1
  S  S37  1  0.39838802  0.03280967  0.34813144  1
  S  S38  1  0.24665278  0.51965658  0.32776904  1
  S  S39  1  0.75732033  0.43969556  0.69797017  1
  S  S40  1  0.67162576  0.96314308  0.44844650  1
  S  S41  1  0.33438317  0.95053901  0.55583677  1
