# generated using pymatgen
data_Pr2Mn3(SbS3)4
_symmetry_space_group_name_H-M   'P 1'
_cell_length_a   20.02960800
_cell_length_b   3.90410600
_cell_length_c   14.95364829
_cell_angle_alpha   90.00000000
_cell_angle_beta   126.33350609
_cell_angle_gamma   90.00000000
_symmetry_Int_Tables_number   1
_chemical_formula_structural   Pr2Mn3(SbS3)4
_chemical_formula_sum   'Pr4 Mn6 Sb8 S24'
_cell_volume   942.00006694
_cell_formula_units_Z   2
loop_
 _symmetry_equiv_pos_site_id
 _symmetry_equiv_pos_as_xyz
  1  'x, y, z'
loop_
 _atom_site_type_symbol
 _atom_site_label
 _atom_site_symmetry_multiplicity
 _atom_site_fract_x
 _atom_site_fract_y
 _atom_site_fract_z
 _atom_site_occupancy
  Pr  Pr0  1  0.27214010  0.48959128  0.87067963  1
  Pr  Pr1  1  0.72839253  0.49674063  0.13241655  1
  Pr  Pr2  1  0.76725077  0.00990930  0.86989149  1
  Pr  Pr3  1  0.23068055  0.95027605  0.12871455  1
  Mn  Mn4  1  0.30671193  0.43216091  0.61133321  1
  Mn  Mn5  1  0.70550818  0.53021520  0.37203878  1
  Mn  Mn6  1  0.99535560  0.97620626  0.99475466  1
  Mn  Mn7  1  0.80090259  0.05519477  0.62497089  1
  Mn  Mn8  1  0.20967321  0.08175949  0.39286289  1
  Mn  Mn9  1  0.50585624  0.51383133  0.00126497  1
  Sb  Sb10  1  0.88213706  0.87795681  0.45512763  1
  Sb  Sb11  1  0.11155519  0.99643662  0.54169537  1
  Sb  Sb12  1  0.03324677  0.49056709  0.82346119  1
  Sb  Sb13  1  0.95945072  0.47898940  0.19473476  1
  Sb  Sb14  1  0.40596600  0.57591964  0.46453009  1
  Sb  Sb15  1  0.60463237  0.57100915  0.53242721  1
  Sb  Sb16  1  0.51928904  0.94857131  0.79941212  1
  Sb  Sb17  1  0.46658813  0.99349381  0.19187279  1
  S  S18  1  0.93195042  0.96873232  0.80391834  1
  S  S19  1  0.06809360  0.00649557  0.22035983  1
  S  S20  1  0.41132920  0.94541285  0.98375862  1
  S  S21  1  0.57758903  0.98010638  0.00716859  1
  S  S22  1  0.16952272  0.94404328  0.89579596  1
  S  S23  1  0.82113888  0.04809080  0.10675790  1
  S  S24  1  0.10484474  0.46105787  0.65162120  1
  S  S25  1  0.90596164  0.47934069  0.35261764  1
  S  S26  1  0.73474713  0.06515250  0.30344527  1
  S  S27  1  0.26382519  0.94469345  0.68609013  1
  S  S28  1  0.18010401  0.51221375  0.46059614  1
  S  S29  1  0.82169312  0.52598711  0.55084728  1
  S  S30  1  0.43221298  0.47014649  0.80262961  1
  S  S31  1  0.55917432  0.45797596  0.18550382  1
  S  S32  1  0.91001684  0.52216927  0.98505951  1
  S  S33  1  0.08169568  0.44774907  0.02287195  1
  S  S34  1  0.65576265  0.47824977  0.88055609  1
  S  S35  1  0.32761416  0.43164271  0.09866451  1
  S  S36  1  0.60153731  0.01279436  0.64995889  1
  S  S37  1  0.39833338  0.03378146  0.34825961  1
  S  S38  1  0.24675839  0.51963076  0.32752424  1
  S  S39  1  0.75720331  0.43925276  0.69761326  1
  S  S40  1  0.67167879  0.96312026  0.44850134  1
  S  S41  1  0.33439554  0.95080920  0.55585035  1
