# generated using pymatgen
data_Pr2Mn3(SbS3)4
_symmetry_space_group_name_H-M   'P 1'
_cell_length_a   20.02960800
_cell_length_b   3.90410600
_cell_length_c   14.95364829
_cell_angle_alpha   90.00000000
_cell_angle_beta   126.33350609
_cell_angle_gamma   90.00000000
_symmetry_Int_Tables_number   1
_chemical_formula_structural   Pr2Mn3(SbS3)4
_chemical_formula_sum   'Pr4 Mn6 Sb8 S24'
_cell_volume   942.00006694
_cell_formula_units_Z   2
loop_
 _symmetry_equiv_pos_site_id
 _symmetry_equiv_pos_as_xyz
  1  'x, y, z'
loop_
 _atom_site_type_symbol
 _atom_site_label
 _atom_site_symmetry_multiplicity
 _atom_site_fract_x
 _atom_site_fract_y
 _atom_site_fract_z
 _atom_site_occupancy
  Pr  Pr0  1  0.27215582  0.48960424  0.87091706  1
  Pr  Pr1  1  0.72845902  0.49648828  0.13251816  1
  Pr  Pr2  1  0.76717473  0.01020978  0.86985402  1
  Pr  Pr3  1  0.23089704  0.95077031  0.12896159  1
  Mn  Mn4  1  0.30642478  0.43179158  0.61123318  1
  Mn  Mn5  1  0.70543396  0.53018429  0.37203462  1
  Mn  Mn6  1  0.99545787  0.97620656  0.99496280  1
  Mn  Mn7  1  0.80065595  0.05534726  0.62483913  1
  Mn  Mn8  1  0.20987860  0.08223250  0.39301563  1
  Mn  Mn9  1  0.50584259  0.51374113  0.00118100  1
  Sb  Sb10  1  0.88225518  0.87825721  0.45521945  1
  Sb  Sb11  1  0.11163315  0.99674374  0.54157863  1
  Sb  Sb12  1  0.03321675  0.49079776  0.82351444  1
  Sb  Sb13  1  0.95952833  0.47938967  0.19489216  1
  Sb  Sb14  1  0.40605166  0.57648348  0.46459679  1
  Sb  Sb15  1  0.60473425  0.57166123  0.53243057  1
  Sb  Sb16  1  0.51915017  0.94848770  0.79922330  1
  Sb  Sb17  1  0.46665569  0.99324029  0.19191437  1
  S  S18  1  0.93190177  0.96865922  0.80376979  1
  S  S19  1  0.06785949  0.00619183  0.22023963  1
  S  S20  1  0.41125175  0.94634412  0.98343866  1
  S  S21  1  0.57779485  0.98065900  0.00691023  1
  S  S22  1  0.16964397  0.94419031  0.89555820  1
  S  S23  1  0.82149569  0.04843905  0.10693305  1
  S  S24  1  0.10459307  0.46171407  0.65174060  1
  S  S25  1  0.90594205  0.48040472  0.35276376  1
  S  S26  1  0.73489624  0.06552111  0.30362994  1
  S  S27  1  0.26380222  0.94561074  0.68590692  1
  S  S28  1  0.18034107  0.51362772  0.46069379  1
  S  S29  1  0.82177756  0.52542198  0.55103855  1
  S  S30  1  0.43253477  0.46828259  0.80277143  1
  S  S31  1  0.55912835  0.45733492  0.18560518  1
  S  S32  1  0.91027976  0.52141114  0.98535684  1
  S  S33  1  0.08179000  0.44694635  0.02308656  1
  S  S34  1  0.65597912  0.47793726  0.88069107  1
  S  S35  1  0.32780891  0.43184633  0.09889124  1
  S  S36  1  0.60137443  0.01322962  0.64946707  1
  S  S37  1  0.39827773  0.03442724  0.34838813  1
  S  S38  1  0.24684312  0.52001336  0.32724762  1
  S  S39  1  0.75722125  0.43890122  0.69749678  1
  S  S40  1  0.67172194  0.96270197  0.44859912  1
  S  S41  1  0.33436230  0.95038340  0.55563873  1
