# generated using pymatgen
data_Pr2Mn3(SbS3)4
_symmetry_space_group_name_H-M   'P 1'
_cell_length_a   20.02960800
_cell_length_b   3.90410600
_cell_length_c   14.95364829
_cell_angle_alpha   90.00000000
_cell_angle_beta   126.33350609
_cell_angle_gamma   90.00000000
_symmetry_Int_Tables_number   1
_chemical_formula_structural   Pr2Mn3(SbS3)4
_chemical_formula_sum   'Pr4 Mn6 Sb8 S24'
_cell_volume   942.00006694
_cell_formula_units_Z   2
loop_
 _symmetry_equiv_pos_site_id
 _symmetry_equiv_pos_as_xyz
  1  'x, y, z'
loop_
 _atom_site_type_symbol
 _atom_site_label
 _atom_site_symmetry_multiplicity
 _atom_site_fract_x
 _atom_site_fract_y
 _atom_site_fract_z
 _atom_site_occupancy
  Pr  Pr0  1  0.27213219  0.48966320  0.87102075  1
  Pr  Pr1  1  0.72850359  0.49623581  0.13262173  1
  Pr  Pr2  1  0.76711176  0.01058575  0.86984596  1
  Pr  Pr3  1  0.23103640  0.95121807  0.12907794  1
  Mn  Mn4  1  0.30611777  0.43136903  0.61120622  1
  Mn  Mn5  1  0.70533894  0.53026377  0.37198509  1
  Mn  Mn6  1  0.99542775  0.97599073  0.99515793  1
  Mn  Mn7  1  0.80040551  0.05573432  0.62471813  1
  Mn  Mn8  1  0.20995952  0.08244172  0.39310455  1
  Mn  Mn9  1  0.50571084  0.51354846  0.00100617  1
  Sb  Sb10  1  0.88243243  0.87844513  0.45541880  1
  Sb  Sb11  1  0.11174663  0.99696242  0.54152188  1
  Sb  Sb12  1  0.03323281  0.49089369  0.82363441  1
  Sb  Sb13  1  0.95961836  0.47967447  0.19508317  1
  Sb  Sb14  1  0.40607566  0.57704029  0.46456901  1
  Sb  Sb15  1  0.60481584  0.57209841  0.53248608  1
  Sb  Sb16  1  0.51904972  0.94827998  0.79906413  1
  Sb  Sb17  1  0.46672734  0.99290912  0.19192989  1
  S  S18  1  0.93194471  0.96943409  0.80366789  1
  S  S19  1  0.06774545  0.00561329  0.22022636  1
  S  S20  1  0.41118176  0.94778200  0.98307604  1
  S  S21  1  0.57812799  0.98132986  0.00670115  1
  S  S22  1  0.16982602  0.94448810  0.89528793  1
  S  S23  1  0.82195703  0.04882036  0.10720961  1
  S  S24  1  0.10430603  0.46239690  0.65181332  1
  S  S25  1  0.90596319  0.48084904  0.35288993  1
  S  S26  1  0.73501095  0.06596735  0.30371350  1
  S  S27  1  0.26384718  0.94625257  0.68588408  1
  S  S28  1  0.18055445  0.51513228  0.46070891  1
  S  S29  1  0.82184484  0.52522215  0.55110531  1
  S  S30  1  0.43284547  0.46618657  0.80292007  1
  S  S31  1  0.55901087  0.45701912  0.18552291  1
  S  S32  1  0.91055475  0.52033874  0.98574127  1
  S  S33  1  0.08185727  0.44614862  0.02327853  1
  S  S34  1  0.65608925  0.47804513  0.88071380  1
  S  S35  1  0.32800768  0.43167493  0.09915557  1
  S  S36  1  0.60114372  0.01362307  0.64889239  1
  S  S37  1  0.39827144  0.03495111  0.34851655  1
  S  S38  1  0.24682713  0.52026446  0.32689322  1
  S  S39  1  0.75723351  0.43865629  0.69730791  1
  S  S40  1  0.67167000  0.96205566  0.44864597  1
  S  S41  1  0.33431458  0.94957371  0.55555299  1
