# generated using pymatgen
data_Pr2Mn3(SbS3)4
_symmetry_space_group_name_H-M   'P 1'
_cell_length_a   20.02960800
_cell_length_b   3.90410600
_cell_length_c   14.95364829
_cell_angle_alpha   90.00000000
_cell_angle_beta   126.33350609
_cell_angle_gamma   90.00000000
_symmetry_Int_Tables_number   1
_chemical_formula_structural   Pr2Mn3(SbS3)4
_chemical_formula_sum   'Pr4 Mn6 Sb8 S24'
_cell_volume   942.00006694
_cell_formula_units_Z   2
loop_
 _symmetry_equiv_pos_site_id
 _symmetry_equiv_pos_as_xyz
  1  'x, y, z'
loop_
 _atom_site_type_symbol
 _atom_site_label
 _atom_site_symmetry_multiplicity
 _atom_site_fract_x
 _atom_site_fract_y
 _atom_site_fract_z
 _atom_site_occupancy
  Pr  Pr0  1  0.26619574  0.48121360  0.86371488  1
  Pr  Pr1  1  0.73562922  0.51418583  0.13558359  1
  Pr  Pr2  1  0.76338429  0.01630809  0.86320053  1
  Pr  Pr3  1  0.23661001  0.00663368  0.13705152  1
  Mn  Mn4  1  0.29061317  0.47673186  0.59846944  1
  Mn  Mn5  1  0.69014320  0.49714954  0.37531797  1
  Mn  Mn6  1  0.00921984  0.99098981  0.01667556  1
  Mn  Mn7  1  0.80385595  0.01671897  0.61463436  1
  Mn  Mn8  1  0.19799986  0.97888857  0.37837659  1
  Mn  Mn9  1  0.49261753  0.47239724  0.98939197  1
  Sb  Sb10  1  0.89005965  0.98053445  0.44980250  1
  Sb  Sb11  1  0.11244061  0.97654242  0.54774834  1
  Sb  Sb12  1  0.04030084  0.51815451  0.82220371  1
  Sb  Sb13  1  0.96534129  0.50303273  0.18485935  1
  Sb  Sb14  1  0.39598136  0.50874785  0.45298059  1
  Sb  Sb15  1  0.60603705  0.47165524  0.54738131  1
  Sb  Sb16  1  0.53418686  0.00133928  0.81025632  1
  Sb  Sb17  1  0.46135006  0.01516840  0.18264989  1
  S  S18  1  0.93693500  0.99511333  0.80407567  1
  S  S19  1  0.06701351  0.98566605  0.19871053  1
  S  S20  1  0.40834866  0.97567964  0.98231956  1
  S  S21  1  0.58124761  0.98657708  0.01103748  1
  S  S22  1  0.17143665  0.02524282  0.89845482  1
  S  S23  1  0.82442468  0.04549519  0.09593088  1
  S  S24  1  0.09574492  0.47233641  0.64715495  1
  S  S25  1  0.91151747  0.47587907  0.35445376  1
  S  S26  1  0.74112923  0.94584789  0.30240489  1
  S  S27  1  0.26373534  0.00388714  0.71208555  1
  S  S28  1  0.15923388  0.48004349  0.43142026  1
  S  S29  1  0.82633578  0.48379767  0.54798311  1
  S  S30  1  0.43233618  0.50004340  0.79893568  1
  S  S31  1  0.56015848  0.50676239  0.18435357  1
  S  S32  1  0.91071352  0.48766843  0.98839558  1
  S  S33  1  0.08856555  0.46550458  0.02255862  1
  S  S34  1  0.66457172  0.51171359  0.88735482  1
  S  S35  1  0.33024353  0.52004560  0.09484377  1
  S  S36  1  0.59531948  0.98467823  0.65419340  1
  S  S37  1  0.40703108  0.98429212  0.35118271  1
  S  S38  1  0.24178973  0.45885843  0.31004245  1
  S  S39  1  0.76371143  0.50015204  0.70048933  1
  S  S40  1  0.66945296  0.02890160  0.45613761  1
  S  S41  1  0.32206667  0.97473143  0.54727436  1
