# generated using pymatgen
data_Pr2Mn3(SbS3)4
_symmetry_space_group_name_H-M   'P 1'
_cell_length_a   20.02960800
_cell_length_b   3.90410600
_cell_length_c   14.95364829
_cell_angle_alpha   90.00000000
_cell_angle_beta   126.33350609
_cell_angle_gamma   90.00000000
_symmetry_Int_Tables_number   1
_chemical_formula_structural   Pr2Mn3(SbS3)4
_chemical_formula_sum   'Pr4 Mn6 Sb8 S24'
_cell_volume   942.00006694
_cell_formula_units_Z   2
loop_
 _symmetry_equiv_pos_site_id
 _symmetry_equiv_pos_as_xyz
  1  'x, y, z'
loop_
 _atom_site_type_symbol
 _atom_site_label
 _atom_site_symmetry_multiplicity
 _atom_site_fract_x
 _atom_site_fract_y
 _atom_site_fract_z
 _atom_site_occupancy
  Pr  Pr0  1  0.27213520  0.48967400  0.87112277  1
  Pr  Pr1  1  0.72857967  0.49610692  0.13273860  1
  Pr  Pr2  1  0.76705458  0.01098374  0.86984768  1
  Pr  Pr3  1  0.23114563  0.95149573  0.12918588  1
  Mn  Mn4  1  0.30592156  0.43124558  0.61117589  1
  Mn  Mn5  1  0.70532593  0.53011167  0.37198625  1
  Mn  Mn6  1  0.99529166  0.97558749  0.99533897  1
  Mn  Mn7  1  0.80015896  0.05569124  0.62451638  1
  Mn  Mn8  1  0.21005069  0.08259707  0.39322016  1
  Mn  Mn9  1  0.50570678  0.51356836  0.00089002  1
  Sb  Sb10  1  0.88258300  0.87874321  0.45556042  1
  Sb  Sb11  1  0.11182468  0.99678876  0.54146072  1
  Sb  Sb12  1  0.03325850  0.49097682  0.82374383  1
  Sb  Sb13  1  0.95968861  0.47973959  0.19524437  1
  Sb  Sb14  1  0.40612673  0.57736453  0.46458317  1
  Sb  Sb15  1  0.60493523  0.57250278  0.53259389  1
  Sb  Sb16  1  0.51902468  0.94835593  0.79896275  1
  Sb  Sb17  1  0.46687084  0.99237586  0.19200170  1
  S  S18  1  0.93202860  0.97018690  0.80353264  1
  S  S19  1  0.06760026  0.00479026  0.22011599  1
  S  S20  1  0.41108805  0.94921647  0.98280253  1
  S  S21  1  0.57834373  0.98167251  0.00646000  1
  S  S22  1  0.17007767  0.94488408  0.89510755  1
  S  S23  1  0.82236858  0.04924337  0.10753416  1
  S  S24  1  0.10408056  0.46288173  0.65189984  1
  S  S25  1  0.90599155  0.48139883  0.35307129  1
  S  S26  1  0.73509543  0.06707516  0.30375596  1
  S  S27  1  0.26390848  0.94710038  0.68588772  1
  S  S28  1  0.18066021  0.51665414  0.46059442  1
  S  S29  1  0.82178119  0.52467467  0.55105689  1
  S  S30  1  0.43303854  0.46406998  0.80301838  1
  S  S31  1  0.55896395  0.45713646  0.18556744  1
  S  S32  1  0.91073854  0.51928824  0.98610026  1
  S  S33  1  0.08192700  0.44559722  0.02357312  1
  S  S34  1  0.65613891  0.47773300  0.88055860  1
  S  S35  1  0.32821773  0.43212651  0.09941316  1
  S  S36  1  0.60090834  0.01364910  0.64831158  1
  S  S37  1  0.39838313  0.03584698  0.34875489  1
  S  S38  1  0.24669706  0.52084160  0.32650524  1
  S  S39  1  0.75730821  0.43867853  0.69713077  1
  S  S40  1  0.67160456  0.96201141  0.44871945  1
  S  S41  1  0.33432709  0.94903666  0.55535126  1
