# generated using pymatgen
data_Pr2Mn3(SbS3)4
_symmetry_space_group_name_H-M   'P 1'
_cell_length_a   20.02960800
_cell_length_b   3.90410600
_cell_length_c   14.95364829
_cell_angle_alpha   90.00000000
_cell_angle_beta   126.33350609
_cell_angle_gamma   90.00000000
_symmetry_Int_Tables_number   1
_chemical_formula_structural   Pr2Mn3(SbS3)4
_chemical_formula_sum   'Pr4 Mn6 Sb8 S24'
_cell_volume   942.00006694
_cell_formula_units_Z   2
loop_
 _symmetry_equiv_pos_site_id
 _symmetry_equiv_pos_as_xyz
  1  'x, y, z'
loop_
 _atom_site_type_symbol
 _atom_site_label
 _atom_site_symmetry_multiplicity
 _atom_site_fract_x
 _atom_site_fract_y
 _atom_site_fract_z
 _atom_site_occupancy
  Pr  Pr0  1  0.27212819  0.48969233  0.87124642  1
  Pr  Pr1  1  0.72863585  0.49581513  0.13285826  1
  Pr  Pr2  1  0.76700479  0.01110370  0.86987091  1
  Pr  Pr3  1  0.23126835  0.95157286  0.12930269  1
  Mn  Mn4  1  0.30575089  0.43129472  0.61113216  1
  Mn  Mn5  1  0.70533565  0.53020088  0.37188476  1
  Mn  Mn6  1  0.99518839  0.97551087  0.99547757  1
  Mn  Mn7  1  0.79997115  0.05543063  0.62437236  1
  Mn  Mn8  1  0.21003037  0.08255422  0.39336117  1
  Mn  Mn9  1  0.50558114  0.51351463  0.00061650  1
  Sb  Sb10  1  0.88265668  0.87872567  0.45558486  1
  Sb  Sb11  1  0.11191160  0.99677126  0.54145348  1
  Sb  Sb12  1  0.03327755  0.49096239  0.82383533  1
  Sb  Sb13  1  0.95973522  0.48017420  0.19532987  1
  Sb  Sb14  1  0.40622075  0.57780410  0.46453102  1
  Sb  Sb15  1  0.60510781  0.57277637  0.53274954  1
  Sb  Sb16  1  0.51907185  0.94843929  0.79892001  1
  Sb  Sb17  1  0.46702328  0.99196633  0.19212365  1
  S  S18  1  0.93214317  0.97119035  0.80344698  1
  S  S19  1  0.06750286  0.00413641  0.22013291  1
  S  S20  1  0.41090359  0.95069799  0.98256594  1
  S  S21  1  0.57870332  0.98195678  0.00636948  1
  S  S22  1  0.17035447  0.94555582  0.89506279  1
  S  S23  1  0.82276473  0.04963070  0.10789237  1
  S  S24  1  0.10394572  0.46353136  0.65204768  1
  S  S25  1  0.90593874  0.48223974  0.35320796  1
  S  S26  1  0.73496824  0.06775633  0.30361366  1
  S  S27  1  0.26394798  0.94774314  0.68605014  1
  S  S28  1  0.18079116  0.51784192  0.46051569  1
  S  S29  1  0.82158369  0.52439184  0.55097065  1
  S  S30  1  0.43313639  0.46189651  0.80303140  1
  S  S31  1  0.55887711  0.45731409  0.18559251  1
  S  S32  1  0.91096054  0.51806886  0.98652296  1
  S  S33  1  0.08199615  0.44496313  0.02383755  1
  S  S34  1  0.65611042  0.47729750  0.88050568  1
  S  S35  1  0.32843384  0.43260587  0.09970494  1
  S  S36  1  0.60065839  0.01370723  0.64773910  1
  S  S37  1  0.39851564  0.03709082  0.34889402  1
  S  S38  1  0.24652792  0.52112423  0.32611073  1
  S  S39  1  0.75740674  0.43924458  0.69688920  1
  S  S40  1  0.67156879  0.96197924  0.44882007  1
  S  S41  1  0.33426919  0.94846743  0.55518918  1
