# generated using pymatgen
data_Pr2Mn3(SbS3)4
_symmetry_space_group_name_H-M   'P 1'
_cell_length_a   20.02960800
_cell_length_b   3.90410600
_cell_length_c   14.95364829
_cell_angle_alpha   90.00000000
_cell_angle_beta   126.33350609
_cell_angle_gamma   90.00000000
_symmetry_Int_Tables_number   1
_chemical_formula_structural   Pr2Mn3(SbS3)4
_chemical_formula_sum   'Pr4 Mn6 Sb8 S24'
_cell_volume   942.00006694
_cell_formula_units_Z   2
loop_
 _symmetry_equiv_pos_site_id
 _symmetry_equiv_pos_as_xyz
  1  'x, y, z'
loop_
 _atom_site_type_symbol
 _atom_site_label
 _atom_site_symmetry_multiplicity
 _atom_site_fract_x
 _atom_site_fract_y
 _atom_site_fract_z
 _atom_site_occupancy
  Pr  Pr0  1  0.27215458  0.48957694  0.87133696  1
  Pr  Pr1  1  0.72872151  0.49552249  0.13300724  1
  Pr  Pr2  1  0.76690975  0.01141098  0.86984418  1
  Pr  Pr3  1  0.23138312  0.95147421  0.12943900  1
  Mn  Mn4  1  0.30566638  0.43087986  0.61115765  1
  Mn  Mn5  1  0.70540187  0.53024088  0.37183309  1
  Mn  Mn6  1  0.99500446  0.97538965  0.99552809  1
  Mn  Mn7  1  0.79970236  0.05504603  0.62422003  1
  Mn  Mn8  1  0.20995554  0.08264172  0.39343633  1
  Mn  Mn9  1  0.50548852  0.51305633  0.00032612  1
  Sb  Sb10  1  0.88272936  0.87875914  0.45552989  1
  Sb  Sb11  1  0.11198459  0.99688332  0.54138987  1
  Sb  Sb12  1  0.03324468  0.49071443  0.82385814  1
  Sb  Sb13  1  0.95974757  0.48066503  0.19537002  1
  Sb  Sb14  1  0.40633317  0.57809221  0.46454780  1
  Sb  Sb15  1  0.60522614  0.57310599  0.53285952  1
  Sb  Sb16  1  0.51907204  0.94877399  0.79883159  1
  Sb  Sb17  1  0.46716309  0.99135868  0.19226010  1
  S  S18  1  0.93216026  0.97180059  0.80323702  1
  S  S19  1  0.06734011  0.00391369  0.21994938  1
  S  S20  1  0.41073446  0.95207999  0.98233640  1
  S  S21  1  0.57891926  0.98239655  0.00621314  1
  S  S22  1  0.17064384  0.94614581  0.89497268  1
  S  S23  1  0.82313298  0.05052982  0.10820150  1
  S  S24  1  0.10397945  0.46420299  0.65227259  1
  S  S25  1  0.90605626  0.48276950  0.35347211  1
  S  S26  1  0.73484736  0.06823860  0.30340604  1
  S  S27  1  0.26385784  0.94862911  0.68615569  1
  S  S28  1  0.18092357  0.51892143  0.46050190  1
  S  S29  1  0.82121085  0.52356786  0.55072972  1
  S  S30  1  0.43331961  0.46013844  0.80316772  1
  S  S31  1  0.55863677  0.45710293  0.18551764  1
  S  S32  1  0.91113525  0.51703702  0.98685242  1
  S  S33  1  0.08210028  0.44474709  0.02406091  1
  S  S34  1  0.65618547  0.47753581  0.88037358  1
  S  S35  1  0.32857388  0.43279586  0.09998286  1
  S  S36  1  0.60039833  0.01343173  0.64728927  1
  S  S37  1  0.39871265  0.03843991  0.34910746  1
  S  S38  1  0.24634928  0.52159737  0.32569288  1
  S  S39  1  0.75749207  0.43947970  0.69673395  1
  S  S40  1  0.67150339  0.96258488  0.44890235  1
  S  S41  1  0.33420478  0.94781190  0.55505245  1
