# generated using pymatgen
data_Pr2Mn3(SbS3)4
_symmetry_space_group_name_H-M   'P 1'
_cell_length_a   20.02960800
_cell_length_b   3.90410600
_cell_length_c   14.95364829
_cell_angle_alpha   90.00000000
_cell_angle_beta   126.33350609
_cell_angle_gamma   90.00000000
_symmetry_Int_Tables_number   1
_chemical_formula_structural   Pr2Mn3(SbS3)4
_chemical_formula_sum   'Pr4 Mn6 Sb8 S24'
_cell_volume   942.00006694
_cell_formula_units_Z   2
loop_
 _symmetry_equiv_pos_site_id
 _symmetry_equiv_pos_as_xyz
  1  'x, y, z'
loop_
 _atom_site_type_symbol
 _atom_site_label
 _atom_site_symmetry_multiplicity
 _atom_site_fract_x
 _atom_site_fract_y
 _atom_site_fract_z
 _atom_site_occupancy
  Pr  Pr0  1  0.27218481  0.48952703  0.87141315  1
  Pr  Pr1  1  0.72885700  0.49541035  0.13320264  1
  Pr  Pr2  1  0.76681465  0.01157556  0.86982672  1
  Pr  Pr3  1  0.23154091  0.95184053  0.12962541  1
  Mn  Mn4  1  0.30549742  0.43048924  0.61113007  1
  Mn  Mn5  1  0.70552259  0.53041061  0.37192476  1
  Mn  Mn6  1  0.99488823  0.97536330  0.99565897  1
  Mn  Mn7  1  0.79944061  0.05465746  0.62412621  1
  Mn  Mn8  1  0.20992835  0.08284956  0.39349271  1
  Mn  Mn9  1  0.50538673  0.51253695  0.00009157  1
  Sb  Sb10  1  0.88279253  0.87888201  0.45552594  1
  Sb  Sb11  1  0.11200519  0.99685894  0.54128985  1
  Sb  Sb12  1  0.03326068  0.49043433  0.82396755  1
  Sb  Sb13  1  0.95979264  0.48121762  0.19540965  1
  Sb  Sb14  1  0.40643832  0.57837881  0.46456002  1
  Sb  Sb15  1  0.60533888  0.57326067  0.53300995  1
  Sb  Sb16  1  0.51904138  0.94889789  0.79870351  1
  Sb  Sb17  1  0.46732081  0.99060456  0.19246188  1
  S  S18  1  0.93214646  0.97196724  0.80289052  1
  S  S19  1  0.06709077  0.00355505  0.21963387  1
  S  S20  1  0.41064678  0.95308466  0.98215045  1
  S  S21  1  0.57919095  0.98299345  0.00594248  1
  S  S22  1  0.17083048  0.94658115  0.89484195  1
  S  S23  1  0.82354910  0.05115964  0.10860561  1
  S  S24  1  0.10394431  0.46482050  0.65250543  1
  S  S25  1  0.90619629  0.48367206  0.35373781  1
  S  S26  1  0.73483110  0.06842937  0.30331873  1
  S  S27  1  0.26382318  0.94950020  0.68639077  1
  S  S28  1  0.18102180  0.51984730  0.46044658  1
  S  S29  1  0.82085422  0.52287016  0.55062841  1
  S  S30  1  0.43341326  0.45852786  0.80329720  1
  S  S31  1  0.55845900  0.45681089  0.18543387  1
  S  S32  1  0.91126707  0.51629813  0.98708074  1
  S  S33  1  0.08225120  0.44414368  0.02426610  1
  S  S34  1  0.65625338  0.47821825  0.88016940  1
  S  S35  1  0.32872832  0.43326833  0.10022767  1
  S  S36  1  0.60022288  0.01312473  0.64708278  1
  S  S37  1  0.39871948  0.04020083  0.34922575  1
  S  S38  1  0.24615321  0.52240136  0.32531756  1
  S  S39  1  0.75753831  0.44004160  0.69660972  1
  S  S40  1  0.67144137  0.96314289  0.44905119  1
  S  S41  1  0.33412308  0.94741263  0.55495983  1
