# generated using pymatgen
data_Pr2Mn3(SbS3)4
_symmetry_space_group_name_H-M   'P 1'
_cell_length_a   20.02960800
_cell_length_b   3.90410600
_cell_length_c   14.95364829
_cell_angle_alpha   90.00000000
_cell_angle_beta   126.33350609
_cell_angle_gamma   90.00000000
_symmetry_Int_Tables_number   1
_chemical_formula_structural   Pr2Mn3(SbS3)4
_chemical_formula_sum   'Pr4 Mn6 Sb8 S24'
_cell_volume   942.00006694
_cell_formula_units_Z   2
loop_
 _symmetry_equiv_pos_site_id
 _symmetry_equiv_pos_as_xyz
  1  'x, y, z'
loop_
 _atom_site_type_symbol
 _atom_site_label
 _atom_site_symmetry_multiplicity
 _atom_site_fract_x
 _atom_site_fract_y
 _atom_site_fract_z
 _atom_site_occupancy
  Pr  Pr0  1  0.27223623  0.48941777  0.87151844  1
  Pr  Pr1  1  0.72896140  0.49520701  0.13345772  1
  Pr  Pr2  1  0.76674118  0.01158630  0.86980687  1
  Pr  Pr3  1  0.23163809  0.95231941  0.12977727  1
  Mn  Mn4  1  0.30529504  0.43029123  0.61121183  1
  Mn  Mn5  1  0.70564793  0.53075732  0.37201662  1
  Mn  Mn6  1  0.99484623  0.97547811  0.99575131  1
  Mn  Mn7  1  0.79919666  0.05432128  0.62409257  1
  Mn  Mn8  1  0.20999839  0.08277748  0.39365607  1
  Mn  Mn9  1  0.50518395  0.51225376  0.99972227  1
  Sb  Sb10  1  0.88286332  0.87919979  0.45551078  1
  Sb  Sb11  1  0.11205284  0.99662228  0.54122000  1
  Sb  Sb12  1  0.03331358  0.49037004  0.82401436  1
  Sb  Sb13  1  0.95983163  0.48167615  0.19544073  1
  Sb  Sb14  1  0.40648083  0.57887541  0.46454933  1
  Sb  Sb15  1  0.60543475  0.57336312  0.53306403  1
  Sb  Sb16  1  0.51901201  0.94896528  0.79859054  1
  Sb  Sb17  1  0.46746233  0.99022658  0.19267504  1
  S  S18  1  0.93216751  0.97221764  0.80267916  1
  S  S19  1  0.06701476  0.00267296  0.21950256  1
  S  S20  1  0.41064392  0.95397034  0.98198050  1
  S  S21  1  0.57948104  0.98352515  0.00569856  1
  S  S22  1  0.17101377  0.94685914  0.89480726  1
  S  S23  1  0.82383548  0.05189960  0.10888625  1
  S  S24  1  0.10393773  0.46547117  0.65273685  1
  S  S25  1  0.90636496  0.48446358  0.35383475  1
  S  S26  1  0.73489576  0.06835838  0.30340459  1
  S  S27  1  0.26385710  0.95002928  0.68664358  1
  S  S28  1  0.18116235  0.52137107  0.46045848  1
  S  S29  1  0.82066952  0.52194787  0.55060480  1
  S  S30  1  0.43345645  0.45690235  0.80339188  1
  S  S31  1  0.55835566  0.45686239  0.18529300  1
  S  S32  1  0.91129167  0.51582047  0.98712092  1
  S  S33  1  0.08246661  0.44370874  0.02449363  1
  S  S34  1  0.65627479  0.47937919  0.88003446  1
  S  S35  1  0.32891815  0.43344031  0.10060650  1
  S  S36  1  0.60006781  0.01240549  0.64681093  1
  S  S37  1  0.39873212  0.04182550  0.34957024  1
  S  S38  1  0.24585922  0.52335577  0.32508321  1
  S  S39  1  0.75764453  0.44049045  0.69662296  1
  S  S40  1  0.67126314  0.96352153  0.44895530  1
  S  S41  1  0.33405857  0.94664011  0.55488354  1
