# generated using pymatgen
data_Pr2Mn3(SbS3)4
_symmetry_space_group_name_H-M   'P 1'
_cell_length_a   20.02960800
_cell_length_b   3.90410600
_cell_length_c   14.95364829
_cell_angle_alpha   90.00000000
_cell_angle_beta   126.33350609
_cell_angle_gamma   90.00000000
_symmetry_Int_Tables_number   1
_chemical_formula_structural   Pr2Mn3(SbS3)4
_chemical_formula_sum   'Pr4 Mn6 Sb8 S24'
_cell_volume   942.00006694
_cell_formula_units_Z   2
loop_
 _symmetry_equiv_pos_site_id
 _symmetry_equiv_pos_as_xyz
  1  'x, y, z'
loop_
 _atom_site_type_symbol
 _atom_site_label
 _atom_site_symmetry_multiplicity
 _atom_site_fract_x
 _atom_site_fract_y
 _atom_site_fract_z
 _atom_site_occupancy
  Pr  Pr0  1  0.27225160  0.48945286  0.87163215  1
  Pr  Pr1  1  0.72906272  0.49508652  0.13374530  1
  Pr  Pr2  1  0.76667072  0.01158853  0.86980934  1
  Pr  Pr3  1  0.23176752  0.95254191  0.12995465  1
  Mn  Mn4  1  0.30520391  0.42989891  0.61143432  1
  Mn  Mn5  1  0.70572893  0.53145316  0.37205457  1
  Mn  Mn6  1  0.99482365  0.97555956  0.99590569  1
  Mn  Mn7  1  0.79903279  0.05409689  0.62398466  1
  Mn  Mn8  1  0.21000874  0.08259199  0.39378833  1
  Mn  Mn9  1  0.50498373  0.51167035  0.99944178  1
  Sb  Sb10  1  0.88295064  0.87940177  0.45545984  1
  Sb  Sb11  1  0.11200055  0.99627538  0.54111190  1
  Sb  Sb12  1  0.03336626  0.49002352  0.82406336  1
  Sb  Sb13  1  0.95991519  0.48219894  0.19556434  1
  Sb  Sb14  1  0.40648607  0.57924999  0.46450177  1
  Sb  Sb15  1  0.60556260  0.57349442  0.53315877  1
  Sb  Sb16  1  0.51897915  0.94923382  0.79843823  1
  Sb  Sb17  1  0.46757851  0.98975885  0.19285739  1
  S  S18  1  0.93221289  0.97279812  0.80257676  1
  S  S19  1  0.06694172  0.00167890  0.21941867  1
  S  S20  1  0.41060647  0.95477905  0.98183297  1
  S  S21  1  0.57964472  0.98398039  0.00533086  1
  S  S22  1  0.17109379  0.94673026  0.89488236  1
  S  S23  1  0.82409830  0.05228807  0.10911456  1
  S  S24  1  0.10385340  0.46648783  0.65288912  1
  S  S25  1  0.90644527  0.48485174  0.35388846  1
  S  S26  1  0.73493606  0.06801021  0.30350645  1
  S  S27  1  0.26380416  0.95006749  0.68672705  1
  S  S28  1  0.18118178  0.52247820  0.46034837  1
  S  S29  1  0.82047878  0.52140490  0.55056716  1
  S  S30  1  0.43343331  0.45564747  0.80347575  1
  S  S31  1  0.55830820  0.45706237  0.18522366  1
  S  S32  1  0.91146662  0.51524299  0.98741026  1
  S  S33  1  0.08271581  0.44325603  0.02475002  1
  S  S34  1  0.65628900  0.48029628  0.88001728  1
  S  S35  1  0.32906295  0.43436908  0.10079418  1
  S  S36  1  0.59980338  0.01149297  0.64654852  1
  S  S37  1  0.39883994  0.04319403  0.34987744  1
  S  S38  1  0.24565470  0.52443030  0.32511269  1
  S  S39  1  0.75780492  0.44068895  0.69655495  1
  S  S40  1  0.67106973  0.96403914  0.44883285  1
  S  S41  1  0.33406375  0.94612538  0.55488793  1
