# generated using pymatgen
data_Pr2Mn3(SbS3)4
_symmetry_space_group_name_H-M   'P 1'
_cell_length_a   20.02960800
_cell_length_b   3.90410600
_cell_length_c   14.95364829
_cell_angle_alpha   90.00000000
_cell_angle_beta   126.33350609
_cell_angle_gamma   90.00000000
_symmetry_Int_Tables_number   1
_chemical_formula_structural   Pr2Mn3(SbS3)4
_chemical_formula_sum   'Pr4 Mn6 Sb8 S24'
_cell_volume   942.00006694
_cell_formula_units_Z   2
loop_
 _symmetry_equiv_pos_site_id
 _symmetry_equiv_pos_as_xyz
  1  'x, y, z'
loop_
 _atom_site_type_symbol
 _atom_site_label
 _atom_site_symmetry_multiplicity
 _atom_site_fract_x
 _atom_site_fract_y
 _atom_site_fract_z
 _atom_site_occupancy
  Pr  Pr0  1  0.27229105  0.48941134  0.87177217  1
  Pr  Pr1  1  0.72916913  0.49492735  0.13404699  1
  Pr  Pr2  1  0.76661741  0.01152055  0.86987183  1
  Pr  Pr3  1  0.23191737  0.95274625  0.13016979  1
  Mn  Mn4  1  0.30510291  0.42946504  0.61170067  1
  Mn  Mn5  1  0.70576642  0.53216823  0.37212427  1
  Mn  Mn6  1  0.99482718  0.97535125  0.99605291  1
  Mn  Mn7  1  0.79886990  0.05340003  0.62386002  1
  Mn  Mn8  1  0.21006350  0.08243585  0.39390842  1
  Mn  Mn9  1  0.50477278  0.51118661  0.99914990  1
  Sb  Sb10  1  0.88300912  0.87951535  0.45535199  1
  Sb  Sb11  1  0.11186824  0.99588315  0.54092422  1
  Sb  Sb12  1  0.03347848  0.48974544  0.82419212  1
  Sb  Sb13  1  0.95997867  0.48271095  0.19566321  1
  Sb  Sb14  1  0.40645961  0.57973273  0.46447862  1
  Sb  Sb15  1  0.60570325  0.57333086  0.53331756  1
  Sb  Sb16  1  0.51905494  0.94951001  0.79836534  1
  Sb  Sb17  1  0.46763152  0.98927305  0.19297145  1
  S  S18  1  0.93229470  0.97324939  0.80245267  1
  S  S19  1  0.06688010  0.00103198  0.21928279  1
  S  S20  1  0.41059240  0.95606239  0.98162883  1
  S  S21  1  0.57971748  0.98406462  0.00492288  1
  S  S22  1  0.17116049  0.94619378  0.89502995  1
  S  S23  1  0.82430960  0.05303633  0.10927155  1
  S  S24  1  0.10379628  0.46762290  0.65301232  1
  S  S25  1  0.90654068  0.48534658  0.35398204  1
  S  S26  1  0.73506950  0.06740725  0.30370805  1
  S  S27  1  0.26370706  0.95071841  0.68665288  1
  S  S28  1  0.18106494  0.52347094  0.46010776  1
  S  S29  1  0.82027910  0.52101776  0.55050151  1
  S  S30  1  0.43346932  0.45431884  0.80363136  1
  S  S31  1  0.55818897  0.45739378  0.18514818  1
  S  S32  1  0.91155479  0.51461497  0.98769488  1
  S  S33  1  0.08291104  0.44286881  0.02487095  1
  S  S34  1  0.65626047  0.48088273  0.87974508  1
  S  S35  1  0.32931253  0.43547772  0.10103281  1
  S  S36  1  0.59955009  0.01076976  0.64639838  1
  S  S37  1  0.39908842  0.04472074  0.35017470  1
  S  S38  1  0.24547749  0.52516120  0.32521085  1
  S  S39  1  0.75798325  0.44065147  0.69650096  1
  S  S40  1  0.67092760  0.96417315  0.44878507  1
  S  S41  1  0.33412011  0.94518244  0.55487873  1
