# generated using pymatgen
data_Pr2Mn3(SbS3)4
_symmetry_space_group_name_H-M   'P 1'
_cell_length_a   20.02960800
_cell_length_b   3.90410600
_cell_length_c   14.95364829
_cell_angle_alpha   90.00000000
_cell_angle_beta   126.33350609
_cell_angle_gamma   90.00000000
_symmetry_Int_Tables_number   1
_chemical_formula_structural   Pr2Mn3(SbS3)4
_chemical_formula_sum   'Pr4 Mn6 Sb8 S24'
_cell_volume   942.00006694
_cell_formula_units_Z   2
loop_
 _symmetry_equiv_pos_site_id
 _symmetry_equiv_pos_as_xyz
  1  'x, y, z'
loop_
 _atom_site_type_symbol
 _atom_site_label
 _atom_site_symmetry_multiplicity
 _atom_site_fract_x
 _atom_site_fract_y
 _atom_site_fract_z
 _atom_site_occupancy
  Pr  Pr0  1  0.27234784  0.48947999  0.87196904  1
  Pr  Pr1  1  0.72926590  0.49457520  0.13432003  1
  Pr  Pr2  1  0.76657961  0.01144676  0.86998446  1
  Pr  Pr3  1  0.23202180  0.95296426  0.13037721  1
  Mn  Mn4  1  0.30508220  0.42908330  0.61211323  1
  Mn  Mn5  1  0.70584565  0.53308936  0.37228304  1
  Mn  Mn6  1  0.99480728  0.97568014  0.99619452  1
  Mn  Mn7  1  0.79876492  0.05273622  0.62372689  1
  Mn  Mn8  1  0.21019331  0.08219782  0.39414739  1
  Mn  Mn9  1  0.50466815  0.51090307  0.99901582  1
  Sb  Sb10  1  0.88302231  0.87953828  0.45526324  1
  Sb  Sb11  1  0.11172207  0.99578785  0.54075007  1
  Sb  Sb12  1  0.03354082  0.48936723  0.82427242  1
  Sb  Sb13  1  0.96010221  0.48339802  0.19581712  1
  Sb  Sb14  1  0.40640089  0.58010198  0.46447043  1
  Sb  Sb15  1  0.60575159  0.57310939  0.53338878  1
  Sb  Sb16  1  0.51915603  0.94974583  0.79831923  1
  Sb  Sb17  1  0.46766797  0.98866816  0.19306409  1
  S  S18  1  0.93242555  0.97406466  0.80247214  1
  S  S19  1  0.06691415  0.00046948  0.21925432  1
  S  S20  1  0.41050184  0.95772442  0.98130603  1
  S  S21  1  0.57987536  0.98372841  0.00461382  1
  S  S22  1  0.17117246  0.94615244  0.89500286  1
  S  S23  1  0.82446569  0.05353495  0.10938842  1
  S  S24  1  0.10364804  0.46900973  0.65309374  1
  S  S25  1  0.90651149  0.48551455  0.35404426  1
  S  S26  1  0.73527371  0.06710257  0.30401617  1
  S  S27  1  0.26355742  0.95141176  0.68668316  1
  S  S28  1  0.18099332  0.52455167  0.45994569  1
  S  S29  1  0.81998931  0.52055577  0.55050459  1
  S  S30  1  0.43344101  0.45280212  0.80367504  1
  S  S31  1  0.55807357  0.45768636  0.18503380  1
  S  S32  1  0.91165354  0.51384757  0.98786812  1
  S  S33  1  0.08302386  0.44319917  0.02501551  1
  S  S34  1  0.65629331  0.48170475  0.87945027  1
  S  S35  1  0.32948565  0.43618110  0.10114188  1
  S  S36  1  0.59936206  0.00973273  0.64630464  1
  S  S37  1  0.39923746  0.04629389  0.35031171  1
  S  S38  1  0.24525723  0.52561586  0.32514386  1
  S  S39  1  0.75824084  0.44077329  0.69652370  1
  S  S40  1  0.67075105  0.96396536  0.44881497  1
  S  S41  1  0.33412416  0.94395618  0.55482174  1
