# generated using pymatgen
data_Pr2Mn3(SbS3)4
_symmetry_space_group_name_H-M   'P 1'
_cell_length_a   20.02960800
_cell_length_b   3.90410600
_cell_length_c   14.95364829
_cell_angle_alpha   90.00000000
_cell_angle_beta   126.33350609
_cell_angle_gamma   90.00000000
_symmetry_Int_Tables_number   1
_chemical_formula_structural   Pr2Mn3(SbS3)4
_chemical_formula_sum   'Pr4 Mn6 Sb8 S24'
_cell_volume   942.00006694
_cell_formula_units_Z   2
loop_
 _symmetry_equiv_pos_site_id
 _symmetry_equiv_pos_as_xyz
  1  'x, y, z'
loop_
 _atom_site_type_symbol
 _atom_site_label
 _atom_site_symmetry_multiplicity
 _atom_site_fract_x
 _atom_site_fract_y
 _atom_site_fract_z
 _atom_site_occupancy
  Pr  Pr0  1  0.27237396  0.48946445  0.87212527  1
  Pr  Pr1  1  0.72940974  0.49431869  0.13460494  1
  Pr  Pr2  1  0.76650403  0.01113473  0.87002433  1
  Pr  Pr3  1  0.23208898  0.95307871  0.13053961  1
  Mn  Mn4  1  0.30502153  0.42869315  0.61250694  1
  Mn  Mn5  1  0.70592718  0.53395471  0.37239158  1
  Mn  Mn6  1  0.99481606  0.97581189  0.99638664  1
  Mn  Mn7  1  0.79871434  0.05181838  0.62366375  1
  Mn  Mn8  1  0.21038075  0.08194490  0.39435042  1
  Mn  Mn9  1  0.50454533  0.51071652  0.99889001  1
  Sb  Sb10  1  0.88304038  0.87963102  0.45512240  1
  Sb  Sb11  1  0.11156192  0.99579824  0.54060067  1
  Sb  Sb12  1  0.03357016  0.48891250  0.82439910  1
  Sb  Sb13  1  0.96027002  0.48401860  0.19595571  1
  Sb  Sb14  1  0.40632976  0.58059286  0.46438852  1
  Sb  Sb15  1  0.60580408  0.57269892  0.53342375  1
  Sb  Sb16  1  0.51922667  0.94947912  0.79823874  1
  Sb  Sb17  1  0.46775879  0.98821170  0.19327836  1
  S  S18  1  0.93256907  0.97551682  0.80246085  1
  S  S19  1  0.06702852  0.99980272  0.21934632  1
  S  S20  1  0.41045341  0.95917638  0.98100988  1
  S  S21  1  0.58006623  0.98357583  0.00438495  1
  S  S22  1  0.17115978  0.94599403  0.89498892  1
  S  S23  1  0.82453619  0.05379550  0.10944341  1
  S  S24  1  0.10346845  0.47028010  0.65314728  1
  S  S25  1  0.90663371  0.48531588  0.35417763  1
  S  S26  1  0.73543264  0.06698877  0.30434497  1
  S  S27  1  0.26353928  0.95220853  0.68683849  1
  S  S28  1  0.18094693  0.52557988  0.45976406  1
  S  S29  1  0.81962461  0.52007616  0.55044784  1
  S  S30  1  0.43348644  0.45143230  0.80376148  1
  S  S31  1  0.55797460  0.45784078  0.18485819  1
  S  S32  1  0.91189191  0.51346535  0.98827269  1
  S  S33  1  0.08310494  0.44361209  0.02513622  1
  S  S34  1  0.65635893  0.48256939  0.87927865  1
  S  S35  1  0.32979398  0.43692806  0.10127653  1
  S  S36  1  0.59917750  0.00891695  0.64612093  1
  S  S37  1  0.39933551  0.04818464  0.35030364  1
  S  S38  1  0.24514956  0.52578107  0.32503844  1
  S  S39  1  0.75843507  0.44090741  0.69652225  1
  S  S40  1  0.67063428  0.96349189  0.44895446  1
  S  S41  1  0.33418414  0.94299160  0.55481495  1
