# generated using pymatgen
data_Pr2Mn3(SbS3)4
_symmetry_space_group_name_H-M   'P 1'
_cell_length_a   20.02960800
_cell_length_b   3.90410600
_cell_length_c   14.95364829
_cell_angle_alpha   90.00000000
_cell_angle_beta   126.33350609
_cell_angle_gamma   90.00000000
_symmetry_Int_Tables_number   1
_chemical_formula_structural   Pr2Mn3(SbS3)4
_chemical_formula_sum   'Pr4 Mn6 Sb8 S24'
_cell_volume   942.00006694
_cell_formula_units_Z   2
loop_
 _symmetry_equiv_pos_site_id
 _symmetry_equiv_pos_as_xyz
  1  'x, y, z'
loop_
 _atom_site_type_symbol
 _atom_site_label
 _atom_site_symmetry_multiplicity
 _atom_site_fract_x
 _atom_site_fract_y
 _atom_site_fract_z
 _atom_site_occupancy
  Pr  Pr0  1  0.27240654  0.48943847  0.87234102  1
  Pr  Pr1  1  0.72953090  0.49421458  0.13484996  1
  Pr  Pr2  1  0.76636845  0.01073063  0.87003080  1
  Pr  Pr3  1  0.23221099  0.95317673  0.13069248  1
  Mn  Mn4  1  0.30497116  0.42850911  0.61292522  1
  Mn  Mn5  1  0.70609161  0.53446045  0.37256411  1
  Mn  Mn6  1  0.99473325  0.97597903  0.99651760  1
  Mn  Mn7  1  0.79869065  0.05059275  0.62350920  1
  Mn  Mn8  1  0.21070120  0.08167501  0.39464876  1
  Mn  Mn9  1  0.50436694  0.51061996  0.99875533  1
  Sb  Sb10  1  0.88306987  0.87989338  0.45498050  1
  Sb  Sb11  1  0.11149054  0.99578389  0.54055489  1
  Sb  Sb12  1  0.03358346  0.48869416  0.82448085  1
  Sb  Sb13  1  0.96040988  0.48440868  0.19608773  1
  Sb  Sb14  1  0.40625687  0.58061631  0.46433924  1
  Sb  Sb15  1  0.60583944  0.57229233  0.53344048  1
  Sb  Sb16  1  0.51930312  0.94919314  0.79815875  1
  Sb  Sb17  1  0.46790236  0.98764946  0.19356105  1
  S  S18  1  0.93266140  0.97664749  0.80234509  1
  S  S19  1  0.06720184  0.99909402  0.21936215  1
  S  S20  1  0.41047918  0.96069373  0.98093881  1
  S  S21  1  0.58019286  0.98334651  0.00415056  1
  S  S22  1  0.17114606  0.94600878  0.89491884  1
  S  S23  1  0.82459232  0.05381461  0.10954268  1
  S  S24  1  0.10322710  0.47134263  0.65309025  1
  S  S25  1  0.90672487  0.48506983  0.35438448  1
  S  S26  1  0.73549895  0.06635952  0.30454631  1
  S  S27  1  0.26340763  0.95295388  0.68674678  1
  S  S28  1  0.18089321  0.52680702  0.45953804  1
  S  S29  1  0.81906306  0.51972527  0.55025743  1
  S  S30  1  0.43353756  0.44980141  0.80385328  1
  S  S31  1  0.55787036  0.45796906  0.18476607  1
  S  S32  1  0.91212813  0.51336265  0.98856615  1
  S  S33  1  0.08320538  0.44431890  0.02527369  1
  S  S34  1  0.65640381  0.48319076  0.87912427  1
  S  S35  1  0.33008927  0.43746946  0.10142657  1
  S  S36  1  0.59900885  0.00820892  0.64584799  1
  S  S37  1  0.39953987  0.04998376  0.35035440  1
  S  S38  1  0.24504371  0.52551869  0.32498405  1
  S  S39  1  0.75853497  0.44104184  0.69648990  1
  S  S40  1  0.67049902  0.96323951  0.44925582  1
  S  S41  1  0.33397535  0.94216353  0.55471219  1
