# generated using pymatgen
data_Pr2Mn3(SbS3)4
_symmetry_space_group_name_H-M   'P 1'
_cell_length_a   20.02960800
_cell_length_b   3.90410600
_cell_length_c   14.95364829
_cell_angle_alpha   90.00000000
_cell_angle_beta   126.33350609
_cell_angle_gamma   90.00000000
_symmetry_Int_Tables_number   1
_chemical_formula_structural   Pr2Mn3(SbS3)4
_chemical_formula_sum   'Pr4 Mn6 Sb8 S24'
_cell_volume   942.00006694
_cell_formula_units_Z   2
loop_
 _symmetry_equiv_pos_site_id
 _symmetry_equiv_pos_as_xyz
  1  'x, y, z'
loop_
 _atom_site_type_symbol
 _atom_site_label
 _atom_site_symmetry_multiplicity
 _atom_site_fract_x
 _atom_site_fract_y
 _atom_site_fract_z
 _atom_site_occupancy
  Pr  Pr0  1  0.26629091  0.48172558  0.86372511  1
  Pr  Pr1  1  0.73573231  0.51409974  0.13564250  1
  Pr  Pr2  1  0.76330547  0.01600799  0.86309528  1
  Pr  Pr3  1  0.23636795  0.00658319  0.13686655  1
  Mn  Mn4  1  0.29045106  0.47726238  0.59836403  1
  Mn  Mn5  1  0.69003679  0.49688692  0.37501411  1
  Mn  Mn6  1  0.00901595  0.99074199  0.01674241  1
  Mn  Mn7  1  0.80382695  0.01633579  0.61484712  1
  Mn  Mn8  1  0.19808387  0.97912858  0.37828941  1
  Mn  Mn9  1  0.49269750  0.47321293  0.98953658  1
  Sb  Sb10  1  0.89000835  0.98098900  0.44980048  1
  Sb  Sb11  1  0.11247410  0.97646044  0.54781427  1
  Sb  Sb12  1  0.04030687  0.51844128  0.82234100  1
  Sb  Sb13  1  0.96529943  0.50245349  0.18465844  1
  Sb  Sb14  1  0.39606106  0.50846964  0.45294864  1
  Sb  Sb15  1  0.60595810  0.47161947  0.54729386  1
  Sb  Sb16  1  0.53415306  0.00091349  0.81017132  1
  Sb  Sb17  1  0.46158766  0.01514121  0.18297304  1
  S  S18  1  0.93718114  0.99562004  0.80432605  1
  S  S19  1  0.06705072  0.98526953  0.19898980  1
  S  S20  1  0.40852921  0.97448989  0.98234113  1
  S  S21  1  0.58091678  0.98785318  0.01095784  1
  S  S22  1  0.17154423  0.02588815  0.89871894  1
  S  S23  1  0.82441530  0.04666741  0.09609085  1
  S  S24  1  0.09587393  0.47342460  0.64726109  1
  S  S25  1  0.91158458  0.47642125  0.35441409  1
  S  S26  1  0.74106283  0.94620249  0.30250823  1
  S  S27  1  0.26368372  0.00390817  0.71175376  1
  S  S28  1  0.15913178  0.48035416  0.43118009  1
  S  S29  1  0.82627169  0.48440965  0.54819056  1
  S  S30  1  0.43239240  0.49938939  0.79916812  1
  S  S31  1  0.56003835  0.50731667  0.18436613  1
  S  S32  1  0.91061058  0.48744251  0.98831437  1
  S  S33  1  0.08887442  0.46521577  0.02300859  1
  S  S34  1  0.66459084  0.51174785  0.88729950  1
  S  S35  1  0.33048744  0.51860253  0.09514294  1
  S  S36  1  0.59534743  0.98391853  0.65391451  1
  S  S37  1  0.40685383  0.98444039  0.35117428  1
  S  S38  1  0.24156498  0.45971453  0.31014541  1
  S  S39  1  0.76353954  0.50022158  0.70020482  1
  S  S40  1  0.66922780  0.02908168  0.45584795  1
  S  S41  1  0.32206936  0.97471832  0.54741802  1
