# generated using pymatgen
data_Pr2Mn3(SbS3)4
_symmetry_space_group_name_H-M   'P 1'
_cell_length_a   20.02960800
_cell_length_b   3.90410600
_cell_length_c   14.95364829
_cell_angle_alpha   90.00000000
_cell_angle_beta   126.33350609
_cell_angle_gamma   90.00000000
_symmetry_Int_Tables_number   1
_chemical_formula_structural   Pr2Mn3(SbS3)4
_chemical_formula_sum   'Pr4 Mn6 Sb8 S24'
_cell_volume   942.00006694
_cell_formula_units_Z   2
loop_
 _symmetry_equiv_pos_site_id
 _symmetry_equiv_pos_as_xyz
  1  'x, y, z'
loop_
 _atom_site_type_symbol
 _atom_site_label
 _atom_site_symmetry_multiplicity
 _atom_site_fract_x
 _atom_site_fract_y
 _atom_site_fract_z
 _atom_site_occupancy
  Pr  Pr0  1  0.27245585  0.48917860  0.87253846  1
  Pr  Pr1  1  0.72960058  0.49396562  0.13506180  1
  Pr  Pr2  1  0.76622423  0.01040703  0.87002392  1
  Pr  Pr3  1  0.23228914  0.95327533  0.13078298  1
  Mn  Mn4  1  0.30487921  0.42853568  0.61329152  1
  Mn  Mn5  1  0.70633982  0.53477093  0.37271371  1
  Mn  Mn6  1  0.99474058  0.97631082  0.99670899  1
  Mn  Mn7  1  0.79870628  0.04952240  0.62337060  1
  Mn  Mn8  1  0.21093420  0.08183069  0.39489315  1
  Mn  Mn9  1  0.50410926  0.51046813  0.99855722  1
  Sb  Sb10  1  0.88307965  0.88018386  0.45488526  1
  Sb  Sb11  1  0.11141303  0.99565913  0.54056442  1
  Sb  Sb12  1  0.03358900  0.48857872  0.82451888  1
  Sb  Sb13  1  0.96057398  0.48479691  0.19626385  1
  Sb  Sb14  1  0.40627609  0.58059608  0.46436316  1
  Sb  Sb15  1  0.60587701  0.57182352  0.53347941  1
  Sb  Sb16  1  0.51944896  0.94894017  0.79809353  1
  Sb  Sb17  1  0.46803272  0.98743019  0.19380093  1
  S  S18  1  0.93261818  0.97770513  0.80209537  1
  S  S19  1  0.06735548  0.99807638  0.21924987  1
  S  S20  1  0.41042076  0.96214824  0.98088797  1
  S  S21  1  0.58037653  0.98265075  0.00391904  1
  S  S22  1  0.17116640  0.94620508  0.89500777  1
  S  S23  1  0.82455596  0.05395898  0.10953673  1
  S  S24  1  0.10297184  0.47192665  0.65289842  1
  S  S25  1  0.90690323  0.48514220  0.35462099  1
  S  S26  1  0.73554604  0.06566993  0.30477390  1
  S  S27  1  0.26327598  0.95404356  0.68670489  1
  S  S28  1  0.18079819  0.52776172  0.45933547  1
  S  S29  1  0.81857286  0.51932672  0.55006121  1
  S  S30  1  0.43353862  0.44811955  0.80385525  1
  S  S31  1  0.55774131  0.45857358  0.18458385  1
  S  S32  1  0.91229915  0.51336719  0.98884991  1
  S  S33  1  0.08342141  0.44470412  0.02542133  1
  S  S34  1  0.65644862  0.48361630  0.87911170  1
  S  S35  1  0.33031105  0.43849156  0.10148153  1
  S  S36  1  0.59889552  0.00735419  0.64580716  1
  S  S37  1  0.39976783  0.05121395  0.35034832  1
  S  S38  1  0.24508235  0.52497408  0.32510009  1
  S  S39  1  0.75867945  0.44147201  0.69652821  1
  S  S40  1  0.67039950  0.96284919  0.44964138  1
  S  S41  1  0.33374011  0.94144861  0.55461639  1
