# generated using pymatgen
data_Pr2Mn3(SbS3)4
_symmetry_space_group_name_H-M   'P 1'
_cell_length_a   20.02960800
_cell_length_b   3.90410600
_cell_length_c   14.95364829
_cell_angle_alpha   90.00000000
_cell_angle_beta   126.33350609
_cell_angle_gamma   90.00000000
_symmetry_Int_Tables_number   1
_chemical_formula_structural   Pr2Mn3(SbS3)4
_chemical_formula_sum   'Pr4 Mn6 Sb8 S24'
_cell_volume   942.00006694
_cell_formula_units_Z   2
loop_
 _symmetry_equiv_pos_site_id
 _symmetry_equiv_pos_as_xyz
  1  'x, y, z'
loop_
 _atom_site_type_symbol
 _atom_site_label
 _atom_site_symmetry_multiplicity
 _atom_site_fract_x
 _atom_site_fract_y
 _atom_site_fract_z
 _atom_site_occupancy
  Pr  Pr0  1  0.27253393  0.48897953  0.87274376  1
  Pr  Pr1  1  0.72962749  0.49369333  0.13523234  1
  Pr  Pr2  1  0.76608203  0.01015374  0.87001922  1
  Pr  Pr3  1  0.23234764  0.95335744  0.13079467  1
  Mn  Mn4  1  0.30472342  0.42878921  0.61361094  1
  Mn  Mn5  1  0.70663035  0.53475620  0.37291879  1
  Mn  Mn6  1  0.99474893  0.97638773  0.99689873  1
  Mn  Mn7  1  0.79870965  0.04899665  0.62318791  1
  Mn  Mn8  1  0.21120785  0.08188309  0.39512317  1
  Mn  Mn9  1  0.50384921  0.51008969  0.99830719  1
  Sb  Sb10  1  0.88311392  0.88052734  0.45485629  1
  Sb  Sb11  1  0.11129218  0.99560867  0.54051264  1
  Sb  Sb12  1  0.03358160  0.48861494  0.82456890  1
  Sb  Sb13  1  0.96078370  0.48532124  0.19644276  1
  Sb  Sb14  1  0.40627925  0.58053563  0.46433946  1
  Sb  Sb15  1  0.60583519  0.57128650  0.53344411  1
  Sb  Sb16  1  0.51955409  0.94904331  0.79809547  1
  Sb  Sb17  1  0.46813149  0.98691987  0.19402654  1
  S  S18  1  0.93260598  0.97893950  0.80176133  1
  S  S19  1  0.06742723  0.99737733  0.21907945  1
  S  S20  1  0.41047958  0.96312707  0.98094127  1
  S  S21  1  0.58056082  0.98181853  0.00368531  1
  S  S22  1  0.17116743  0.94635815  0.89508523  1
  S  S23  1  0.82455168  0.05362491  0.10961409  1
  S  S24  1  0.10276799  0.47187345  0.65284844  1
  S  S25  1  0.90702390  0.48529222  0.35456220  1
  S  S26  1  0.73557976  0.06507938  0.30509360  1
  S  S27  1  0.26322933  0.95502256  0.68660256  1
  S  S28  1  0.18077023  0.52799142  0.45909688  1
  S  S29  1  0.81808720  0.51934758  0.54994611  1
  S  S30  1  0.43349180  0.44626572  0.80375182  1
  S  S31  1  0.55760227  0.45895484  0.18441965  1
  S  S32  1  0.91242088  0.51319275  0.98900833  1
  S  S33  1  0.08349929  0.44536078  0.02555234  1
  S  S34  1  0.65642164  0.48375410  0.87900121  1
  S  S35  1  0.33058809  0.43961739  0.10163605  1
  S  S36  1  0.59876852  0.00685262  0.64582725  1
  S  S37  1  0.40011614  0.05222819  0.35042804  1
  S  S38  1  0.24502379  0.52434221  0.32525819  1
  S  S39  1  0.75889894  0.44184067  0.69667087  1
  S  S40  1  0.67027379  0.96248462  0.44991808  1
  S  S41  1  0.33342504  0.94034608  0.55433513  1
