# generated using pymatgen
data_Pr2Mn3(SbS3)4
_symmetry_space_group_name_H-M   'P 1'
_cell_length_a   20.02960800
_cell_length_b   3.90410600
_cell_length_c   14.95364829
_cell_angle_alpha   90.00000000
_cell_angle_beta   126.33350609
_cell_angle_gamma   90.00000000
_symmetry_Int_Tables_number   1
_chemical_formula_structural   Pr2Mn3(SbS3)4
_chemical_formula_sum   'Pr4 Mn6 Sb8 S24'
_cell_volume   942.00006694
_cell_formula_units_Z   2
loop_
 _symmetry_equiv_pos_site_id
 _symmetry_equiv_pos_as_xyz
  1  'x, y, z'
loop_
 _atom_site_type_symbol
 _atom_site_label
 _atom_site_symmetry_multiplicity
 _atom_site_fract_x
 _atom_site_fract_y
 _atom_site_fract_z
 _atom_site_occupancy
  Pr  Pr0  1  0.27255755  0.48869676  0.87285637  1
  Pr  Pr1  1  0.72965626  0.49357376  0.13540289  1
  Pr  Pr2  1  0.76595841  0.00987699  0.87005063  1
  Pr  Pr3  1  0.23235308  0.95328968  0.13075441  1
  Mn  Mn4  1  0.30456181  0.42913193  0.61395143  1
  Mn  Mn5  1  0.70689852  0.53455339  0.37303923  1
  Mn  Mn6  1  0.99468843  0.97633743  0.99704548  1
  Mn  Mn7  1  0.79873586  0.04844980  0.62316755  1
  Mn  Mn8  1  0.21149666  0.08178351  0.39531587  1
  Mn  Mn9  1  0.50367395  0.50958595  0.99815544  1
  Sb  Sb10  1  0.88315918  0.88067538  0.45487837  1
  Sb  Sb11  1  0.11113022  0.99535345  0.54044211  1
  Sb  Sb12  1  0.03353255  0.48845594  0.82455321  1
  Sb  Sb13  1  0.96098830  0.48553110  0.19661326  1
  Sb  Sb14  1  0.40624991  0.58054667  0.46430786  1
  Sb  Sb15  1  0.60584351  0.57092055  0.53349489  1
  Sb  Sb16  1  0.51968417  0.94919902  0.79809385  1
  Sb  Sb17  1  0.46819009  0.98625873  0.19414971  1
  S  S18  1  0.93256560  0.97980975  0.80132522  1
  S  S19  1  0.06744748  0.99707466  0.21885161  1
  S  S20  1  0.41056883  0.96414664  0.98099517  1
  S  S21  1  0.58086248  0.98078836  0.00368553  1
  S  S22  1  0.17111967  0.94655979  0.89509507  1
  S  S23  1  0.82461072  0.05375767  0.10966379  1
  S  S24  1  0.10269760  0.47168725  0.65285157  1
  S  S25  1  0.90720597  0.48545742  0.35462235  1
  S  S26  1  0.73555924  0.06459622  0.30529695  1
  S  S27  1  0.26315700  0.95615638  0.68644283  1
  S  S28  1  0.18073323  0.52838619  0.45888075  1
  S  S29  1  0.81762336  0.51914202  0.54989804  1
  S  S30  1  0.43351140  0.44477776  0.80354768  1
  S  S31  1  0.55747885  0.45994116  0.18423800  1
  S  S32  1  0.91266317  0.51280108  0.98921547  1
  S  S33  1  0.08368137  0.44615543  0.02582934  1
  S  S34  1  0.65639340  0.48386910  0.87887521  1
  S  S35  1  0.33097662  0.44076766  0.10190327  1
  S  S36  1  0.59869890  0.00598117  0.64579216  1
  S  S37  1  0.40056762  0.05324947  0.35064410  1
  S  S38  1  0.24501011  0.52407816  0.32536410  1
  S  S39  1  0.75906599  0.44241348  0.69686474  1
  S  S40  1  0.67004221  0.96208194  0.45008394  1
  S  S41  1  0.33305409  0.93960442  0.55384123  1
