# generated using pymatgen
data_Pr2Mn3(SbS3)4
_symmetry_space_group_name_H-M   'P 1'
_cell_length_a   20.02960800
_cell_length_b   3.90410600
_cell_length_c   14.95364829
_cell_angle_alpha   90.00000000
_cell_angle_beta   126.33350609
_cell_angle_gamma   90.00000000
_symmetry_Int_Tables_number   1
_chemical_formula_structural   Pr2Mn3(SbS3)4
_chemical_formula_sum   'Pr4 Mn6 Sb8 S24'
_cell_volume   942.00006694
_cell_formula_units_Z   2
loop_
 _symmetry_equiv_pos_site_id
 _symmetry_equiv_pos_as_xyz
  1  'x, y, z'
loop_
 _atom_site_type_symbol
 _atom_site_label
 _atom_site_symmetry_multiplicity
 _atom_site_fract_x
 _atom_site_fract_y
 _atom_site_fract_z
 _atom_site_occupancy
  Pr  Pr0  1  0.27256478  0.48829392  0.87286128  1
  Pr  Pr1  1  0.72962679  0.49347918  0.13550606  1
  Pr  Pr2  1  0.76588891  0.00967142  0.87010575  1
  Pr  Pr3  1  0.23235432  0.95314036  0.13070872  1
  Mn  Mn4  1  0.30443021  0.42917820  0.61434703  1
  Mn  Mn5  1  0.70720636  0.53424036  0.37311080  1
  Mn  Mn6  1  0.99474240  0.97608300  0.99722208  1
  Mn  Mn7  1  0.79874156  0.04776466  0.62314026  1
  Mn  Mn8  1  0.21172584  0.08195717  0.39544358  1
  Mn  Mn9  1  0.50347126  0.50916731  0.99805374  1
  Sb  Sb10  1  0.88316245  0.88050859  0.45487957  1
  Sb  Sb11  1  0.11099432  0.99516698  0.54038998  1
  Sb  Sb12  1  0.03348177  0.48836906  0.82454668  1
  Sb  Sb13  1  0.96122328  0.48588611  0.19689943  1
  Sb  Sb14  1  0.40620362  0.58060442  0.46436474  1
  Sb  Sb15  1  0.60595845  0.57036165  0.53365645  1
  Sb  Sb16  1  0.51987500  0.94922330  0.79817291  1
  Sb  Sb17  1  0.46817840  0.98546316  0.19416364  1
  S  S18  1  0.93253849  0.98101881  0.80097366  1
  S  S19  1  0.06747183  0.99704122  0.21851248  1
  S  S20  1  0.41073360  0.96491760  0.98107181  1
  S  S21  1  0.58110264  0.97999531  0.00348279  1
  S  S22  1  0.17113405  0.94678839  0.89502648  1
  S  S23  1  0.82468981  0.05313339  0.10993518  1
  S  S24  1  0.10267860  0.47171961  0.65284473  1
  S  S25  1  0.90739165  0.48523121  0.35478945  1
  S  S26  1  0.73548087  0.06397213  0.30548732  1
  S  S27  1  0.26314246  0.95754378  0.68653836  1
  S  S28  1  0.18077631  0.52838002  0.45869260  1
  S  S29  1  0.81727318  0.51865538  0.55001971  1
  S  S30  1  0.43354696  0.44309026  0.80327591  1
  S  S31  1  0.55744791  0.46055095  0.18414157  1
  S  S32  1  0.91290481  0.51214320  0.98943940  1
  S  S33  1  0.08387503  0.44760274  0.02613738  1
  S  S34  1  0.65632464  0.48447668  0.87881329  1
  S  S35  1  0.33136567  0.44159723  0.10214931  1
  S  S36  1  0.59861393  0.00515536  0.64583636  1
  S  S37  1  0.40081181  0.05389044  0.35071057  1
  S  S38  1  0.24496445  0.52444859  0.32540677  1
  S  S39  1  0.75927930  0.44269077  0.69714755  1
  S  S40  1  0.66992404  0.96174952  0.45040645  1
  S  S41  1  0.33268796  0.93860705  0.55338838  1
