# generated using pymatgen
data_Pr2Mn3(SbS3)4
_symmetry_space_group_name_H-M   'P 1'
_cell_length_a   20.02960800
_cell_length_b   3.90410600
_cell_length_c   14.95364829
_cell_angle_alpha   90.00000000
_cell_angle_beta   126.33350609
_cell_angle_gamma   90.00000000
_symmetry_Int_Tables_number   1
_chemical_formula_structural   Pr2Mn3(SbS3)4
_chemical_formula_sum   'Pr4 Mn6 Sb8 S24'
_cell_volume   942.00006694
_cell_formula_units_Z   2
loop_
 _symmetry_equiv_pos_site_id
 _symmetry_equiv_pos_as_xyz
  1  'x, y, z'
loop_
 _atom_site_type_symbol
 _atom_site_label
 _atom_site_symmetry_multiplicity
 _atom_site_fract_x
 _atom_site_fract_y
 _atom_site_fract_z
 _atom_site_occupancy
  Pr  Pr0  1  0.27256993  0.48799739  0.87281860  1
  Pr  Pr1  1  0.72958117  0.49336047  0.13557698  1
  Pr  Pr2  1  0.76586101  0.00946611  0.87024586  1
  Pr  Pr3  1  0.23231837  0.95291718  0.13068416  1
  Mn  Mn4  1  0.30436623  0.42934194  0.61467757  1
  Mn  Mn5  1  0.70746844  0.53379707  0.37325418  1
  Mn  Mn6  1  0.99482826  0.97603551  0.99740941  1
  Mn  Mn7  1  0.79873758  0.04699282  0.62317172  1
  Mn  Mn8  1  0.21200507  0.08201589  0.39561494  1
  Mn  Mn9  1  0.50321523  0.50857140  0.99796919  1
  Sb  Sb10  1  0.88316167  0.88015856  0.45491779  1
  Sb  Sb11  1  0.11093531  0.99494276  0.54039139  1
  Sb  Sb12  1  0.03348883  0.48862916  0.82460933  1
  Sb  Sb13  1  0.96146890  0.48635593  0.19720796  1
  Sb  Sb14  1  0.40620604  0.58055605  0.46444769  1
  Sb  Sb15  1  0.60611039  0.57000360  0.53387974  1
  Sb  Sb16  1  0.52007062  0.94932228  0.79822651  1
  Sb  Sb17  1  0.46817068  0.98482274  0.19416892  1
  S  S18  1  0.93255179  0.98216444  0.80075719  1
  S  S19  1  0.06752108  0.99668284  0.21819078  1
  S  S20  1  0.41095875  0.96532401  0.98123930  1
  S  S21  1  0.58127143  0.97945868  0.00323429  1
  S  S22  1  0.17118418  0.94713311  0.89496641  1
  S  S23  1  0.82498538  0.05249232  0.11025914  1
  S  S24  1  0.10263874  0.47166807  0.65283853  1
  S  S25  1  0.90754658  0.48508659  0.35487513  1
  S  S26  1  0.73538822  0.06344691  0.30581398  1
  S  S27  1  0.26319495  0.95924684  0.68663773  1
  S  S28  1  0.18099088  0.52835962  0.45853805  1
  S  S29  1  0.81690943  0.51805277  0.55021209  1
  S  S30  1  0.43369181  0.44190618  0.80316013  1
  S  S31  1  0.55739485  0.46093860  0.18417749  1
  S  S32  1  0.91309916  0.51167347  0.98957925  1
  S  S33  1  0.08411251  0.44930812  0.02638233  1
  S  S34  1  0.65616988  0.48560798  0.87866018  1
  S  S35  1  0.33153129  0.44198993  0.10214832  1
  S  S36  1  0.59855619  0.00508158  0.64591013  1
  S  S37  1  0.40108401  0.05439689  0.35084162  1
  S  S38  1  0.24487140  0.52477593  0.32544895  1
  S  S39  1  0.75960094  0.44288771  0.69776502  1
  S  S40  1  0.66982329  0.96164208  0.45072634  1
  S  S41  1  0.33238247  0.93766349  0.55297717  1
