# generated using pymatgen
data_Pr2Mn3(SbS3)4
_symmetry_space_group_name_H-M   'P 1'
_cell_length_a   20.02960800
_cell_length_b   3.90410600
_cell_length_c   14.95364829
_cell_angle_alpha   90.00000000
_cell_angle_beta   126.33350609
_cell_angle_gamma   90.00000000
_symmetry_Int_Tables_number   1
_chemical_formula_structural   Pr2Mn3(SbS3)4
_chemical_formula_sum   'Pr4 Mn6 Sb8 S24'
_cell_volume   942.00006694
_cell_formula_units_Z   2
loop_
 _symmetry_equiv_pos_site_id
 _symmetry_equiv_pos_as_xyz
  1  'x, y, z'
loop_
 _atom_site_type_symbol
 _atom_site_label
 _atom_site_symmetry_multiplicity
 _atom_site_fract_x
 _atom_site_fract_y
 _atom_site_fract_z
 _atom_site_occupancy
  Pr  Pr0  1  0.27257220  0.48760555  0.87274714  1
  Pr  Pr1  1  0.72952881  0.49323605  0.13561605  1
  Pr  Pr2  1  0.76584132  0.00923009  0.87035053  1
  Pr  Pr3  1  0.23233253  0.95264495  0.13062585  1
  Mn  Mn4  1  0.30434145  0.42942816  0.61501251  1
  Mn  Mn5  1  0.70772311  0.53329143  0.37331670  1
  Mn  Mn6  1  0.99491520  0.97598944  0.99760975  1
  Mn  Mn7  1  0.79871527  0.04644144  0.62314051  1
  Mn  Mn8  1  0.21223666  0.08196708  0.39580920  1
  Mn  Mn9  1  0.50285717  0.50809111  0.99786286  1
  Sb  Sb10  1  0.88316407  0.87998815  0.45495675  1
  Sb  Sb11  1  0.11085246  0.99504745  0.54034263  1
  Sb  Sb12  1  0.03352337  0.48876529  0.82467758  1
  Sb  Sb13  1  0.96164874  0.48667531  0.19747302  1
  Sb  Sb14  1  0.40619416  0.58073282  0.46454942  1
  Sb  Sb15  1  0.60627159  0.56968165  0.53410295  1
  Sb  Sb16  1  0.52028876  0.94960992  0.79828578  1
  Sb  Sb17  1  0.46816730  0.98435271  0.19405581  1
  S  S18  1  0.93267118  0.98302839  0.80059790  1
  S  S19  1  0.06763610  0.99654257  0.21792130  1
  S  S20  1  0.41120257  0.96554605  0.98133856  1
  S  S21  1  0.58129411  0.97871448  0.00296067  1
  S  S22  1  0.17117277  0.94741390  0.89503571  1
  S  S23  1  0.82515397  0.05188372  0.11039674  1
  S  S24  1  0.10257108  0.47169578  0.65285102  1
  S  S25  1  0.90766712  0.48451669  0.35492781  1
  S  S26  1  0.73519913  0.06322537  0.30611842  1
  S  S27  1  0.26325555  0.96055994  0.68676671  1
  S  S28  1  0.18108988  0.52837404  0.45835454  1
  S  S29  1  0.81650608  0.51702631  0.55048539  1
  S  S30  1  0.43387944  0.44050810  0.80321933  1
  S  S31  1  0.55732016  0.46152270  0.18420112  1
  S  S32  1  0.91333135  0.51088153  0.98970660  1
  S  S33  1  0.08433199  0.45117575  0.02646469  1
  S  S34  1  0.65600835  0.48699032  0.87839103  1
  S  S35  1  0.33163230  0.44233633  0.10198349  1
  S  S36  1  0.59850936  0.00456435  0.64594194  1
  S  S37  1  0.40127736  0.05536744  0.35087943  1
  S  S38  1  0.24478318  0.52444366  0.32542326  1
  S  S39  1  0.75985750  0.44268336  0.69820634  1
  S  S40  1  0.66971758  0.96162473  0.45102182  1
  S  S41  1  0.33213493  0.93677918  0.55266791  1
