# generated using pymatgen
data_Pr2Mn3(SbS3)4
_symmetry_space_group_name_H-M   'P 1'
_cell_length_a   20.02960800
_cell_length_b   3.90410600
_cell_length_c   14.95364829
_cell_angle_alpha   90.00000000
_cell_angle_beta   126.33350609
_cell_angle_gamma   90.00000000
_symmetry_Int_Tables_number   1
_chemical_formula_structural   Pr2Mn3(SbS3)4
_chemical_formula_sum   'Pr4 Mn6 Sb8 S24'
_cell_volume   942.00006694
_cell_formula_units_Z   2
loop_
 _symmetry_equiv_pos_site_id
 _symmetry_equiv_pos_as_xyz
  1  'x, y, z'
loop_
 _atom_site_type_symbol
 _atom_site_label
 _atom_site_symmetry_multiplicity
 _atom_site_fract_x
 _atom_site_fract_y
 _atom_site_fract_z
 _atom_site_occupancy
  Pr  Pr0  1  0.27260553  0.48730330  0.87263378  1
  Pr  Pr1  1  0.72945367  0.49314072  0.13566843  1
  Pr  Pr2  1  0.76584075  0.00894858  0.87047946  1
  Pr  Pr3  1  0.23236867  0.95208078  0.13054913  1
  Mn  Mn4  1  0.30436769  0.42968593  0.61539438  1
  Mn  Mn5  1  0.70796307  0.53308400  0.37325812  1
  Mn  Mn6  1  0.99492653  0.97578980  0.99768727  1
  Mn  Mn7  1  0.79868116  0.04602974  0.62310938  1
  Mn  Mn8  1  0.21236362  0.08174303  0.39590307  1
  Mn  Mn9  1  0.50247580  0.50758237  0.99775661  1
  Sb  Sb10  1  0.88319594  0.87985593  0.45503092  1
  Sb  Sb11  1  0.11082308  0.99494754  0.54036613  1
  Sb  Sb12  1  0.03352823  0.48884391  0.82469515  1
  Sb  Sb13  1  0.96179449  0.48669776  0.19773231  1
  Sb  Sb14  1  0.40611848  0.58097658  0.46456749  1
  Sb  Sb15  1  0.60639912  0.56972811  0.53428967  1
  Sb  Sb16  1  0.52055826  0.94990764  0.79844151  1
  Sb  Sb17  1  0.46819200  0.98398754  0.19399291  1
  S  S18  1  0.93282675  0.98365685  0.80041512  1
  S  S19  1  0.06767049  0.99644732  0.21769552  1
  S  S20  1  0.41159343  0.96566249  0.98162956  1
  S  S21  1  0.58130533  0.97842641  0.00269869  1
  S  S22  1  0.17107860  0.94783102  0.89499180  1
  S  S23  1  0.82532323  0.05096231  0.11052970  1
  S  S24  1  0.10239345  0.47160443  0.65272670  1
  S  S25  1  0.90772868  0.48379960  0.35504839  1
  S  S26  1  0.73518674  0.06257503  0.30666073  1
  S  S27  1  0.26318480  0.96138974  0.68664635  1
  S  S28  1  0.18128516  0.52837362  0.45828257  1
  S  S29  1  0.81617851  0.51576471  0.55068280  1
  S  S30  1  0.43406165  0.43921338  0.80341996  1
  S  S31  1  0.55728983  0.46215671  0.18451758  1
  S  S32  1  0.91337129  0.51049051  0.98961763  1
  S  S33  1  0.08457821  0.45349273  0.02668982  1
  S  S34  1  0.65585946  0.48800649  0.87814893  1
  S  S35  1  0.33171795  0.44292292  0.10188716  1
  S  S36  1  0.59842930  0.00497650  0.64593917  1
  S  S37  1  0.40142599  0.05623398  0.35090429  1
  S  S38  1  0.24468725  0.52428086  0.32548751  1
  S  S39  1  0.76013160  0.44230897  0.69877082  1
  S  S40  1  0.66968928  0.96124116  0.45129527  1
  S  S41  1  0.33203881  0.93610309  0.55250612  1
