# generated using pymatgen
data_Pr2Mn3(SbS3)4
_symmetry_space_group_name_H-M   'P 1'
_cell_length_a   20.02960800
_cell_length_b   3.90410600
_cell_length_c   14.95364829
_cell_angle_alpha   90.00000000
_cell_angle_beta   126.33350609
_cell_angle_gamma   90.00000000
_symmetry_Int_Tables_number   1
_chemical_formula_structural   Pr2Mn3(SbS3)4
_chemical_formula_sum   'Pr4 Mn6 Sb8 S24'
_cell_volume   942.00006694
_cell_formula_units_Z   2
loop_
 _symmetry_equiv_pos_site_id
 _symmetry_equiv_pos_as_xyz
  1  'x, y, z'
loop_
 _atom_site_type_symbol
 _atom_site_label
 _atom_site_symmetry_multiplicity
 _atom_site_fract_x
 _atom_site_fract_y
 _atom_site_fract_z
 _atom_site_occupancy
  Pr  Pr0  1  0.27262265  0.48679233  0.87248318  1
  Pr  Pr1  1  0.72942938  0.49329804  0.13575994  1
  Pr  Pr2  1  0.76580256  0.00857292  0.87061071  1
  Pr  Pr3  1  0.23241938  0.95166486  0.13047582  1
  Mn  Mn4  1  0.30439620  0.42973770  0.61576109  1
  Mn  Mn5  1  0.70821590  0.53280882  0.37330403  1
  Mn  Mn6  1  0.99490339  0.97566156  0.99782276  1
  Mn  Mn7  1  0.79864199  0.04559940  0.62301637  1
  Mn  Mn8  1  0.21250981  0.08185046  0.39598302  1
  Mn  Mn9  1  0.50213300  0.50761797  0.99767406  1
  Sb  Sb10  1  0.88326977  0.87993141  0.45518350  1
  Sb  Sb11  1  0.11080139  0.99504420  0.54036818  1
  Sb  Sb12  1  0.03348462  0.48877906  0.82469240  1
  Sb  Sb13  1  0.96192425  0.48665335  0.19791222  1
  Sb  Sb14  1  0.40604714  0.58129405  0.46462827  1
  Sb  Sb15  1  0.60651195  0.56952699  0.53443693  1
  Sb  Sb16  1  0.52087328  0.95026450  0.79868633  1
  Sb  Sb17  1  0.46825734  0.98368861  0.19394819  1
  S  S18  1  0.93307115  0.98391375  0.80039171  1
  S  S19  1  0.06779593  0.99634670  0.21768003  1
  S  S20  1  0.41195748  0.96575503  0.98189290  1
  S  S21  1  0.58116377  0.97819590  0.00235587  1
  S  S22  1  0.17103594  0.94825117  0.89504103  1
  S  S23  1  0.82556285  0.04998766  0.11075762  1
  S  S24  1  0.10216788  0.47124020  0.65262424  1
  S  S25  1  0.90779503  0.48358232  0.35520508  1
  S  S26  1  0.73521632  0.06169766  0.30721697  1
  S  S27  1  0.26315755  0.96247093  0.68647306  1
  S  S28  1  0.18147408  0.52828242  0.45818274  1
  S  S29  1  0.81605295  0.51447465  0.55101282  1
  S  S30  1  0.43445194  0.43788595  0.80365845  1
  S  S31  1  0.55721381  0.46269875  0.18478954  1
  S  S32  1  0.91338956  0.51006294  0.98956371  1
  S  S33  1  0.08469654  0.45558513  0.02691276  1
  S  S34  1  0.65567449  0.48887056  0.87782069  1
  S  S35  1  0.33198703  0.44383852  0.10182791  1
  S  S36  1  0.59831813  0.00525973  0.64600814  1
  S  S37  1  0.40163054  0.05686760  0.35100687  1
  S  S38  1  0.24457964  0.52397236  0.32547056  1
  S  S39  1  0.76030701  0.44199886  0.69927628  1
  S  S40  1  0.66973686  0.96095386  0.45152108  1
  S  S41  1  0.33211097  0.93551804  0.55253003  1
