# generated using pymatgen
data_Pr2Mn3(SbS3)4
_symmetry_space_group_name_H-M   'P 1'
_cell_length_a   20.02960800
_cell_length_b   3.90410600
_cell_length_c   14.95364829
_cell_angle_alpha   90.00000000
_cell_angle_beta   126.33350609
_cell_angle_gamma   90.00000000
_symmetry_Int_Tables_number   1
_chemical_formula_structural   Pr2Mn3(SbS3)4
_chemical_formula_sum   'Pr4 Mn6 Sb8 S24'
_cell_volume   942.00006694
_cell_formula_units_Z   2
loop_
 _symmetry_equiv_pos_site_id
 _symmetry_equiv_pos_as_xyz
  1  'x, y, z'
loop_
 _atom_site_type_symbol
 _atom_site_label
 _atom_site_symmetry_multiplicity
 _atom_site_fract_x
 _atom_site_fract_y
 _atom_site_fract_z
 _atom_site_occupancy
  Pr  Pr0  1  0.27267311  0.48605081  0.87232349  1
  Pr  Pr1  1  0.72945533  0.49338792  0.13587034  1
  Pr  Pr2  1  0.76577856  0.00832332  0.87073263  1
  Pr  Pr3  1  0.23252441  0.95119355  0.13049508  1
  Mn  Mn4  1  0.30446573  0.42999831  0.61607677  1
  Mn  Mn5  1  0.70848336  0.53248721  0.37323795  1
  Mn  Mn6  1  0.99483616  0.97521172  0.99793379  1
  Mn  Mn7  1  0.79864137  0.04495590  0.62303881  1
  Mn  Mn8  1  0.21261860  0.08159511  0.39605323  1
  Mn  Mn9  1  0.50186806  0.50781272  0.99754412  1
  Sb  Sb10  1  0.88334984  0.87989231  0.45530221  1
  Sb  Sb11  1  0.11076518  0.99480208  0.54044278  1
  Sb  Sb12  1  0.03339984  0.48868374  0.82462561  1
  Sb  Sb13  1  0.96213749  0.48652175  0.19814988  1
  Sb  Sb14  1  0.40600559  0.58159162  0.46468155  1
  Sb  Sb15  1  0.60660346  0.56918704  0.53457951  1
  Sb  Sb16  1  0.52115337  0.95061802  0.79894872  1
  Sb  Sb17  1  0.46832110  0.98339629  0.19388482  1
  S  S18  1  0.93316950  0.98430159  0.80030816  1
  S  S19  1  0.06798409  0.99618684  0.21766703  1
  S  S20  1  0.41232343  0.96588589  0.98225301  1
  S  S21  1  0.58123262  0.97786538  0.00221137  1
  S  S22  1  0.17096896  0.94892212  0.89506284  1
  S  S23  1  0.82573292  0.04934481  0.11088513  1
  S  S24  1  0.10186267  0.47125492  0.65233112  1
  S  S25  1  0.90776119  0.48334405  0.35520071  1
  S  S26  1  0.73521647  0.06096710  0.30771914  1
  S  S27  1  0.26306346  0.96357061  0.68638191  1
  S  S28  1  0.18165216  0.52845986  0.45794678  1
  S  S29  1  0.81592703  0.51373606  0.55124971  1
  S  S30  1  0.43478910  0.43659428  0.80383051  1
  S  S31  1  0.55713662  0.46319578  0.18483984  1
  S  S32  1  0.91347374  0.50956891  0.98951532  1
  S  S33  1  0.08482471  0.45756241  0.02709265  1
  S  S34  1  0.65549527  0.48959280  0.87754702  1
  S  S35  1  0.33215584  0.44486270  0.10158836  1
  S  S36  1  0.59819486  0.00611202  0.64594152  1
  S  S37  1  0.40184837  0.05721010  0.35109816  1
  S  S38  1  0.24432370  0.52400876  0.32529188  1
  S  S39  1  0.76053067  0.44119511  0.69966359  1
  S  S40  1  0.66971983  0.96128801  0.45173457  1
  S  S41  1  0.33220100  0.93489937  0.55264806  1
