# generated using pymatgen
data_Pr2Mn3(SbS3)4
_symmetry_space_group_name_H-M   'P 1'
_cell_length_a   20.02960800
_cell_length_b   3.90410600
_cell_length_c   14.95364829
_cell_angle_alpha   90.00000000
_cell_angle_beta   126.33350609
_cell_angle_gamma   90.00000000
_symmetry_Int_Tables_number   1
_chemical_formula_structural   Pr2Mn3(SbS3)4
_chemical_formula_sum   'Pr4 Mn6 Sb8 S24'
_cell_volume   942.00006694
_cell_formula_units_Z   2
loop_
 _symmetry_equiv_pos_site_id
 _symmetry_equiv_pos_as_xyz
  1  'x, y, z'
loop_
 _atom_site_type_symbol
 _atom_site_label
 _atom_site_symmetry_multiplicity
 _atom_site_fract_x
 _atom_site_fract_y
 _atom_site_fract_z
 _atom_site_occupancy
  Pr  Pr0  1  0.27277273  0.48524661  0.87222578  1
  Pr  Pr1  1  0.72948438  0.49348246  0.13593900  1
  Pr  Pr2  1  0.76580943  0.00800914  0.87085100  1
  Pr  Pr3  1  0.23264143  0.95066526  0.13050322  1
  Mn  Mn4  1  0.30446778  0.43067777  0.61631377  1
  Mn  Mn5  1  0.70876315  0.53192680  0.37318320  1
  Mn  Mn6  1  0.99475949  0.97523448  0.99809092  1
  Mn  Mn7  1  0.79872964  0.04421945  0.62311108  1
  Mn  Mn8  1  0.21272379  0.08130763  0.39609206  1
  Mn  Mn9  1  0.50162894  0.50770506  0.99746330  1
  Sb  Sb10  1  0.88338179  0.87976700  0.45537506  1
  Sb  Sb11  1  0.11071374  0.99471973  0.54055891  1
  Sb  Sb12  1  0.03335019  0.48868037  0.82458715  1
  Sb  Sb13  1  0.96235690  0.48638837  0.19836959  1
  Sb  Sb14  1  0.40594378  0.58180689  0.46473222  1
  Sb  Sb15  1  0.60660296  0.56898497  0.53455993  1
  Sb  Sb16  1  0.52149153  0.95097545  0.79932667  1
  Sb  Sb17  1  0.46845704  0.98298496  0.19395229  1
  S  S18  1  0.93320459  0.98448849  0.80029632  1
  S  S19  1  0.06819311  0.99640307  0.21773454  1
  S  S20  1  0.41264382  0.96615205  0.98246985  1
  S  S21  1  0.58118150  0.97728335  0.00193529  1
  S  S22  1  0.17084118  0.94951526  0.89493557  1
  S  S23  1  0.82594068  0.04894230  0.11107756  1
  S  S24  1  0.10169104  0.47214251  0.65230239  1
  S  S25  1  0.90784493  0.48288996  0.35525803  1
  S  S26  1  0.73521706  0.06025192  0.30824456  1
  S  S27  1  0.26295266  0.96426315  0.68622765  1
  S  S28  1  0.18187145  0.52812661  0.45786818  1
  S  S29  1  0.81579044  0.51270327  0.55140989  1
  S  S30  1  0.43511223  0.43584756  0.80389115  1
  S  S31  1  0.55707475  0.46305103  0.18490606  1
  S  S32  1  0.91353317  0.50938440  0.98966847  1
  S  S33  1  0.08496333  0.45915023  0.02725497  1
  S  S34  1  0.65539879  0.49049129  0.87730982  1
  S  S35  1  0.33228249  0.44608475  0.10129725  1
  S  S36  1  0.59801916  0.00684314  0.64579269  1
  S  S37  1  0.40205796  0.05681635  0.35110351  1
  S  S38  1  0.24414116  0.52425016  0.32501103  1
  S  S39  1  0.76085344  0.44019389  0.70005459  1
  S  S40  1  0.66960592  0.96105880  0.45182448  1
  S  S41  1  0.33242368  0.93422886  0.55288638  1
