# generated using pymatgen
data_Pr2Mn3(SbS3)4
_symmetry_space_group_name_H-M   'P 1'
_cell_length_a   20.02960800
_cell_length_b   3.90410600
_cell_length_c   14.95364829
_cell_angle_alpha   90.00000000
_cell_angle_beta   126.33350609
_cell_angle_gamma   90.00000000
_symmetry_Int_Tables_number   1
_chemical_formula_structural   Pr2Mn3(SbS3)4
_chemical_formula_sum   'Pr4 Mn6 Sb8 S24'
_cell_volume   942.00006694
_cell_formula_units_Z   2
loop_
 _symmetry_equiv_pos_site_id
 _symmetry_equiv_pos_as_xyz
  1  'x, y, z'
loop_
 _atom_site_type_symbol
 _atom_site_label
 _atom_site_symmetry_multiplicity
 _atom_site_fract_x
 _atom_site_fract_y
 _atom_site_fract_z
 _atom_site_occupancy
  Pr  Pr0  1  0.26637574  0.48229035  0.86374627  1
  Pr  Pr1  1  0.73579179  0.51377256  0.13566223  1
  Pr  Pr2  1  0.76318699  0.01570475  0.86296190  1
  Pr  Pr3  1  0.23613529  0.00667392  0.13672483  1
  Mn  Mn4  1  0.29026218  0.47742082  0.59824761  1
  Mn  Mn5  1  0.68998828  0.49639858  0.37480632  1
  Mn  Mn6  1  0.00894091  0.99039203  0.01696048  1
  Mn  Mn7  1  0.80383215  0.01631867  0.61510555  1
  Mn  Mn8  1  0.19812257  0.97938631  0.37815903  1
  Mn  Mn9  1  0.49282297  0.47381872  0.98973510  1
  Sb  Sb10  1  0.89000752  0.98132858  0.44980512  1
  Sb  Sb11  1  0.11248797  0.97610517  0.54782137  1
  Sb  Sb12  1  0.04036780  0.51909853  0.82251867  1
  Sb  Sb13  1  0.96521469  0.50186469  0.18443602  1
  Sb  Sb14  1  0.39612828  0.50831356  0.45285293  1
  Sb  Sb15  1  0.60587254  0.47171912  0.54726005  1
  Sb  Sb16  1  0.53404468  0.00052206  0.80998398  1
  Sb  Sb17  1  0.46182771  0.01517470  0.18330106  1
  S  S18  1  0.93734295  0.99604866  0.80444660  1
  S  S19  1  0.06696018  0.98503421  0.19909410  1
  S  S20  1  0.40872902  0.97304008  0.98206308  1
  S  S21  1  0.58070532  0.98933644  0.01083409  1
  S  S22  1  0.17167635  0.02642123  0.89887282  1
  S  S23  1  0.82440253  0.04738154  0.09604844  1
  S  S24  1  0.09597042  0.47437051  0.64714637  1
  S  S25  1  0.91165699  0.47696770  0.35437811  1
  S  S26  1  0.74096802  0.94630831  0.30259251  1
  S  S27  1  0.26360473  0.00405763  0.71144692  1
  S  S28  1  0.15898396  0.48075579  0.43092394  1
  S  S29  1  0.82616824  0.48500993  0.54837195  1
  S  S30  1  0.43243143  0.49920835  0.79939216  1
  S  S31  1  0.55995896  0.50793611  0.18440531  1
  S  S32  1  0.91039893  0.48700297  0.98809530  1
  S  S33  1  0.08905693  0.46483599  0.02324507  1
  S  S34  1  0.66459871  0.51138629  0.88710630  1
  S  S35  1  0.33067284  0.51682178  0.09550611  1
  S  S36  1  0.59535793  0.98309852  0.65376056  1
  S  S37  1  0.40664428  0.98481010  0.35108382  1
  S  S38  1  0.24134233  0.45994329  0.31017712  1
  S  S39  1  0.76335244  0.50069038  0.69987783  1
  S  S40  1  0.66904644  0.02881328  0.45557719  1
  S  S41  1  0.32206718  0.97421159  0.54750639  1
