# generated using pymatgen
data_Pr2Mn3(SbS3)4
_symmetry_space_group_name_H-M   'P 1'
_cell_length_a   20.02960800
_cell_length_b   3.90410600
_cell_length_c   14.95364829
_cell_angle_alpha   90.00000000
_cell_angle_beta   126.33350609
_cell_angle_gamma   90.00000000
_symmetry_Int_Tables_number   1
_chemical_formula_structural   Pr2Mn3(SbS3)4
_chemical_formula_sum   'Pr4 Mn6 Sb8 S24'
_cell_volume   942.00006694
_cell_formula_units_Z   2
loop_
 _symmetry_equiv_pos_site_id
 _symmetry_equiv_pos_as_xyz
  1  'x, y, z'
loop_
 _atom_site_type_symbol
 _atom_site_label
 _atom_site_symmetry_multiplicity
 _atom_site_fract_x
 _atom_site_fract_y
 _atom_site_fract_z
 _atom_site_occupancy
  Pr  Pr0  1  0.27286045  0.48461908  0.87214182  1
  Pr  Pr1  1  0.72951815  0.49359808  0.13598996  1
  Pr  Pr2  1  0.76581568  0.00771132  0.87089005  1
  Pr  Pr3  1  0.23277337  0.95020422  0.13051752  1
  Mn  Mn4  1  0.30448023  0.43158899  0.61651710  1
  Mn  Mn5  1  0.70896645  0.53149531  0.37314230  1
  Mn  Mn6  1  0.99478948  0.97538915  0.99825067  1
  Mn  Mn7  1  0.79879805  0.04382037  0.62315045  1
  Mn  Mn8  1  0.21290562  0.08110354  0.39615873  1
  Mn  Mn9  1  0.50139733  0.50783992  0.99737196  1
  Sb  Sb10  1  0.88339978  0.87988534  0.45543857  1
  Sb  Sb11  1  0.11074240  0.99467387  0.54068489  1
  Sb  Sb12  1  0.03336681  0.48865644  0.82453199  1
  Sb  Sb13  1  0.96255041  0.48637369  0.19851267  1
  Sb  Sb14  1  0.40588872  0.58195918  0.46489793  1
  Sb  Sb15  1  0.60665167  0.56877873  0.53460196  1
  Sb  Sb16  1  0.52182480  0.95124975  0.79961116  1
  Sb  Sb17  1  0.46856212  0.98245829  0.19399317  1
  S  S18  1  0.93322464  0.98494694  0.80027281  1
  S  S19  1  0.06843182  0.99631518  0.21780198  1
  S  S20  1  0.41286056  0.96622667  0.98247420  1
  S  S21  1  0.58107951  0.97703601  0.00155525  1
  S  S22  1  0.17082622  0.95018387  0.89487095  1
  S  S23  1  0.82610080  0.04836426  0.11119541  1
  S  S24  1  0.10142476  0.47244047  0.65216063  1
  S  S25  1  0.90797724  0.48242079  0.35541416  1
  S  S26  1  0.73526074  0.05974377  0.30882104  1
  S  S27  1  0.26278484  0.96508468  0.68604371  1
  S  S28  1  0.18201599  0.52833068  0.45777922  1
  S  S29  1  0.81566504  0.51154521  0.55154123  1
  S  S30  1  0.43535630  0.43574166  0.80387660  1
  S  S31  1  0.55707562  0.46338034  0.18504526  1
  S  S32  1  0.91357605  0.50988457  0.98969419  1
  S  S33  1  0.08509337  0.46027458  0.02738657  1
  S  S34  1  0.65525079  0.49151825  0.87709788  1
  S  S35  1  0.33246566  0.44652746  0.10094326  1
  S  S36  1  0.59777267  0.00727275  0.64553736  1
  S  S37  1  0.40226496  0.05693554  0.35112996  1
  S  S38  1  0.24388963  0.52413401  0.32478833  1
  S  S39  1  0.76108788  0.43904911  0.70036584  1
  S  S40  1  0.66948789  0.96078830  0.45187203  1
  S  S41  1  0.33254937  0.93308252  0.55322076  1
