# generated using pymatgen
data_Pr2Mn3(SbS3)4
_symmetry_space_group_name_H-M   'P 1'
_cell_length_a   20.02960800
_cell_length_b   3.90410600
_cell_length_c   14.95364829
_cell_angle_alpha   90.00000000
_cell_angle_beta   126.33350609
_cell_angle_gamma   90.00000000
_symmetry_Int_Tables_number   1
_chemical_formula_structural   Pr2Mn3(SbS3)4
_chemical_formula_sum   'Pr4 Mn6 Sb8 S24'
_cell_volume   942.00006694
_cell_formula_units_Z   2
loop_
 _symmetry_equiv_pos_site_id
 _symmetry_equiv_pos_as_xyz
  1  'x, y, z'
loop_
 _atom_site_type_symbol
 _atom_site_label
 _atom_site_symmetry_multiplicity
 _atom_site_fract_x
 _atom_site_fract_y
 _atom_site_fract_z
 _atom_site_occupancy
  Pr  Pr0  1  0.27297581  0.48406332  0.87210258  1
  Pr  Pr1  1  0.72955345  0.49367762  0.13605972  1
  Pr  Pr2  1  0.76578415  0.00765386  0.87090086  1
  Pr  Pr3  1  0.23297157  0.94986146  0.13056308  1
  Mn  Mn4  1  0.30448758  0.43248286  0.61668247  1
  Mn  Mn5  1  0.70911928  0.53114445  0.37306306  1
  Mn  Mn6  1  0.99482087  0.97545416  0.99841835  1
  Mn  Mn7  1  0.79894676  0.04322009  0.62325245  1
  Mn  Mn8  1  0.21305379  0.08090807  0.39624850  1
  Mn  Mn9  1  0.50120450  0.50792747  0.99724749  1
  Sb  Sb10  1  0.88350757  0.88005849  0.45560458  1
  Sb  Sb11  1  0.11079641  0.99440145  0.54077816  1
  Sb  Sb12  1  0.03334744  0.48886184  0.82445094  1
  Sb  Sb13  1  0.96262831  0.48641070  0.19856189  1
  Sb  Sb14  1  0.40590566  0.58208662  0.46505697  1
  Sb  Sb15  1  0.60666387  0.56865995  0.53461882  1
  Sb  Sb16  1  0.52215553  0.95156358  0.79987473  1
  Sb  Sb17  1  0.46862570  0.98197837  0.19400237  1
  S  S18  1  0.93323663  0.98504613  0.80030626  1
  S  S19  1  0.06863629  0.99675872  0.21781068  1
  S  S20  1  0.41305898  0.96699289  0.98257686  1
  S  S21  1  0.58093391  0.97696358  0.00126657  1
  S  S22  1  0.17086497  0.95025267  0.89488285  1
  S  S23  1  0.82630163  0.04776497  0.11150018  1
  S  S24  1  0.10113690  0.47289438  0.65188747  1
  S  S25  1  0.90807325  0.48201092  0.35544532  1
  S  S26  1  0.73527193  0.05923536  0.30922155  1
  S  S27  1  0.26260205  0.96546877  0.68578295  1
  S  S28  1  0.18218641  0.52842009  0.45780937  1
  S  S29  1  0.81562809  0.50996084  0.55180019  1
  S  S30  1  0.43546466  0.43585090  0.80373505  1
  S  S31  1  0.55693526  0.46344037  0.18495528  1
  S  S32  1  0.91372600  0.51031899  0.98984793  1
  S  S33  1  0.08519247  0.46146607  0.02743249  1
  S  S34  1  0.65514764  0.49251774  0.87688026  1
  S  S35  1  0.33256013  0.44715720  0.10067849  1
  S  S36  1  0.59764889  0.00763410  0.64526689  1
  S  S37  1  0.40247740  0.05728383  0.35114887  1
  S  S38  1  0.24367319  0.52389516  0.32461836  1
  S  S39  1  0.76137032  0.43822554  0.70075608  1
  S  S40  1  0.66940359  0.96063280  0.45191099  1
  S  S41  1  0.33265454  0.93210306  0.55350828  1
