# generated using pymatgen
data_Pr2Mn3(SbS3)4
_symmetry_space_group_name_H-M   'P 1'
_cell_length_a   20.02960800
_cell_length_b   3.90410600
_cell_length_c   14.95364829
_cell_angle_alpha   90.00000000
_cell_angle_beta   126.33350609
_cell_angle_gamma   90.00000000
_symmetry_Int_Tables_number   1
_chemical_formula_structural   Pr2Mn3(SbS3)4
_chemical_formula_sum   'Pr4 Mn6 Sb8 S24'
_cell_volume   942.00006694
_cell_formula_units_Z   2
loop_
 _symmetry_equiv_pos_site_id
 _symmetry_equiv_pos_as_xyz
  1  'x, y, z'
loop_
 _atom_site_type_symbol
 _atom_site_label
 _atom_site_symmetry_multiplicity
 _atom_site_fract_x
 _atom_site_fract_y
 _atom_site_fract_z
 _atom_site_occupancy
  Pr  Pr0  1  0.27309101  0.48368749  0.87212972  1
  Pr  Pr1  1  0.72956520  0.49380540  0.13605327  1
  Pr  Pr2  1  0.76575190  0.00770180  0.87096497  1
  Pr  Pr3  1  0.23314881  0.94937737  0.13061541  1
  Mn  Mn4  1  0.30447602  0.43325831  0.61687788  1
  Mn  Mn5  1  0.70919575  0.53104987  0.37286087  1
  Mn  Mn6  1  0.99482120  0.97569102  0.99854270  1
  Mn  Mn7  1  0.79906937  0.04240012  0.62340266  1
  Mn  Mn8  1  0.21316068  0.08091126  0.39627045  1
  Mn  Mn9  1  0.50105471  0.50768341  0.99712697  1
  Sb  Sb10  1  0.88360892  0.88015906  0.45578924  1
  Sb  Sb11  1  0.11079519  0.99409916  0.54080670  1
  Sb  Sb12  1  0.03336146  0.48900753  0.82439154  1
  Sb  Sb13  1  0.96267901  0.48630446  0.19854901  1
  Sb  Sb14  1  0.40600848  0.58234379  0.46527886  1
  Sb  Sb15  1  0.60669295  0.56849709  0.53461194  1
  Sb  Sb16  1  0.52253777  0.95171442  0.80021168  1
  Sb  Sb17  1  0.46873307  0.98151329  0.19404810  1
  S  S18  1  0.93322357  0.98525898  0.80034900  1
  S  S19  1  0.06881630  0.99777830  0.21774637  1
  S  S20  1  0.41327043  0.96758832  0.98277662  1
  S  S21  1  0.58085485  0.97753971  0.00111815  1
  S  S22  1  0.17094454  0.95045817  0.89506090  1
  S  S23  1  0.82653639  0.04671978  0.11193033  1
  S  S24  1  0.10096079  0.47310117  0.65153848  1
  S  S25  1  0.90826177  0.48123886  0.35561190  1
  S  S26  1  0.73530550  0.05904162  0.30966317  1
  S  S27  1  0.26239114  0.96531438  0.68552751  1
  S  S28  1  0.18242987  0.52867579  0.45785112  1
  S  S29  1  0.81558254  0.50820536  0.55214309  1
  S  S30  1  0.43559267  0.43645727  0.80361365  1
  S  S31  1  0.55678236  0.46310701  0.18480319  1
  S  S32  1  0.91394612  0.51053732  0.99004948  1
  S  S33  1  0.08522325  0.46243337  0.02745739  1
  S  S34  1  0.65491192  0.49325427  0.87651238  1
  S  S35  1  0.33261239  0.44764052  0.10043929  1
  S  S36  1  0.59750774  0.00767379  0.64495926  1
  S  S37  1  0.40257401  0.05770380  0.35117515  1
  S  S38  1  0.24355222  0.52396485  0.32439042  1
  S  S39  1  0.76170574  0.43747582  0.70114665  1
  S  S40  1  0.66940942  0.96014503  0.45206205  1
  S  S41  1  0.33270488  0.93120837  0.55370914  1
