# generated using pymatgen
data_Pr2Mn3(SbS3)4
_symmetry_space_group_name_H-M   'P 1'
_cell_length_a   20.02960800
_cell_length_b   3.90410600
_cell_length_c   14.95364829
_cell_angle_alpha   90.00000000
_cell_angle_beta   126.33350609
_cell_angle_gamma   90.00000000
_symmetry_Int_Tables_number   1
_chemical_formula_structural   Pr2Mn3(SbS3)4
_chemical_formula_sum   'Pr4 Mn6 Sb8 S24'
_cell_volume   942.00006694
_cell_formula_units_Z   2
loop_
 _symmetry_equiv_pos_site_id
 _symmetry_equiv_pos_as_xyz
  1  'x, y, z'
loop_
 _atom_site_type_symbol
 _atom_site_label
 _atom_site_symmetry_multiplicity
 _atom_site_fract_x
 _atom_site_fract_y
 _atom_site_fract_z
 _atom_site_occupancy
  Pr  Pr0  1  0.27322340  0.48326448  0.87217131  1
  Pr  Pr1  1  0.72962841  0.49416081  0.13612499  1
  Pr  Pr2  1  0.76577528  0.00774914  0.87109997  1
  Pr  Pr3  1  0.23329595  0.94907964  0.13067200  1
  Mn  Mn4  1  0.30450734  0.43399717  0.61716852  1
  Mn  Mn5  1  0.70923637  0.53077558  0.37251708  1
  Mn  Mn6  1  0.99491049  0.97598195  0.99877087  1
  Mn  Mn7  1  0.79914600  0.04176037  0.62366133  1
  Mn  Mn8  1  0.21323604  0.08042099  0.39627510  1
  Mn  Mn9  1  0.50085313  0.50735065  0.99695429  1
  Sb  Sb10  1  0.88367245  0.88034807  0.45598960  1
  Sb  Sb11  1  0.11078775  0.99403916  0.54088240  1
  Sb  Sb12  1  0.03335155  0.48919744  0.82425243  1
  Sb  Sb13  1  0.96282334  0.48613359  0.19863565  1
  Sb  Sb14  1  0.40608112  0.58262053  0.46546773  1
  Sb  Sb15  1  0.60668577  0.56843998  0.53457460  1
  Sb  Sb16  1  0.52286969  0.95210655  0.80046963  1
  Sb  Sb17  1  0.46883120  0.98116580  0.19405609  1
  S  S18  1  0.93320915  0.98508612  0.80040393  1
  S  S19  1  0.06893334  0.99881625  0.21761941  1
  S  S20  1  0.41355239  0.96746437  0.98316406  1
  S  S21  1  0.58084267  0.97854533  0.00107380  1
  S  S22  1  0.17095398  0.95067925  0.89519696  1
  S  S23  1  0.82671801  0.04552811  0.11233365  1
  S  S24  1  0.10075830  0.47345030  0.65127081  1
  S  S25  1  0.90843031  0.48059954  0.35582799  1
  S  S26  1  0.73526415  0.05947600  0.30998409  1
  S  S27  1  0.26223001  0.96516199  0.68543110  1
  S  S28  1  0.18262467  0.52865804  0.45777012  1
  S  S29  1  0.81565416  0.50739865  0.55260942  1
  S  S30  1  0.43571161  0.43662330  0.80342586  1
  S  S31  1  0.55662390  0.46290419  0.18460754  1
  S  S32  1  0.91427835  0.51032622  0.99034141  1
  S  S33  1  0.08520724  0.46393328  0.02740965  1
  S  S34  1  0.65479256  0.49370993  0.87640031  1
  S  S35  1  0.33259599  0.44825293  0.10004705  1
  S  S36  1  0.59731193  0.00788598  0.64457291  1
  S  S37  1  0.40267690  0.05788609  0.35123774  1
  S  S38  1  0.24339286  0.52405325  0.32416391  1
  S  S39  1  0.76196236  0.43638925  0.70139450  1
  S  S40  1  0.66951513  0.95947207  0.45216088  1
  S  S41  1  0.33269257  0.93065373  0.55370641  1
