# generated using pymatgen
data_Pr2Mn3(SbS3)4
_symmetry_space_group_name_H-M   'P 1'
_cell_length_a   20.02960800
_cell_length_b   3.90410600
_cell_length_c   14.95364829
_cell_angle_alpha   90.00000000
_cell_angle_beta   126.33350609
_cell_angle_gamma   90.00000000
_symmetry_Int_Tables_number   1
_chemical_formula_structural   Pr2Mn3(SbS3)4
_chemical_formula_sum   'Pr4 Mn6 Sb8 S24'
_cell_volume   942.00006694
_cell_formula_units_Z   2
loop_
 _symmetry_equiv_pos_site_id
 _symmetry_equiv_pos_as_xyz
  1  'x, y, z'
loop_
 _atom_site_type_symbol
 _atom_site_label
 _atom_site_symmetry_multiplicity
 _atom_site_fract_x
 _atom_site_fract_y
 _atom_site_fract_z
 _atom_site_occupancy
  Pr  Pr0  1  0.27329432  0.48299081  0.87212772  1
  Pr  Pr1  1  0.72961748  0.49450302  0.13621709  1
  Pr  Pr2  1  0.76583957  0.00775032  0.87128336  1
  Pr  Pr3  1  0.23341501  0.94881376  0.13071200  1
  Mn  Mn4  1  0.30448386  0.43483228  0.61730328  1
  Mn  Mn5  1  0.70930766  0.53044594  0.37223930  1
  Mn  Mn6  1  0.99501107  0.97657144  0.99898184  1
  Mn  Mn7  1  0.79919829  0.04116795  0.62389817  1
  Mn  Mn8  1  0.21332462  0.08032357  0.39610561  1
  Mn  Mn9  1  0.50077401  0.50678835  0.99682307  1
  Sb  Sb10  1  0.88368467  0.88046657  0.45610137  1
  Sb  Sb11  1  0.11073540  0.99387110  0.54091128  1
  Sb  Sb12  1  0.03331276  0.48928564  0.82414104  1
  Sb  Sb13  1  0.96291949  0.48610414  0.19870831  1
  Sb  Sb14  1  0.40611603  0.58277290  0.46560662  1
  Sb  Sb15  1  0.60667077  0.56823059  0.53456735  1
  Sb  Sb16  1  0.52311457  0.95249936  0.80062586  1
  Sb  Sb17  1  0.46892278  0.98072133  0.19408404  1
  S  S18  1  0.93326539  0.98484293  0.80057682  1
  S  S19  1  0.06905909  0.99994665  0.21761319  1
  S  S20  1  0.41373300  0.96685656  0.98350321  1
  S  S21  1  0.58085557  0.97951597  0.00100610  1
  S  S22  1  0.17097431  0.95125006  0.89529189  1
  S  S23  1  0.82684645  0.04433325  0.11263717  1
  S  S24  1  0.10052481  0.47404752  0.65088747  1
  S  S25  1  0.90852398  0.47981564  0.35588137  1
  S  S26  1  0.73530368  0.05955075  0.31043796  1
  S  S27  1  0.26217378  0.96482020  0.68551448  1
  S  S28  1  0.18282354  0.52898716  0.45775402  1
  S  S29  1  0.81582897  0.50670428  0.55325629  1
  S  S30  1  0.43574028  0.43747613  0.80312124  1
  S  S31  1  0.55638028  0.46263921  0.18451334  1
  S  S32  1  0.91459063  0.50979143  0.99052457  1
  S  S33  1  0.08512585  0.46532602  0.02731562  1
  S  S34  1  0.65469600  0.49432833  0.87641716  1
  S  S35  1  0.33261374  0.44865650  0.09974259  1
  S  S36  1  0.59696209  0.00782486  0.64416555  1
  S  S37  1  0.40265858  0.05780376  0.35118662  1
  S  S38  1  0.24316208  0.52459670  0.32396188  1
  S  S39  1  0.76208027  0.43527026  0.70147602  1
  S  S40  1  0.66958586  0.95880332  0.45223857  1
  S  S41  1  0.33285293  0.92988457  0.55378265  1
