# generated using pymatgen
data_Pr2Mn3(SbS3)4
_symmetry_space_group_name_H-M   'P 1'
_cell_length_a   20.02960800
_cell_length_b   3.90410600
_cell_length_c   14.95364829
_cell_angle_alpha   90.00000000
_cell_angle_beta   126.33350609
_cell_angle_gamma   90.00000000
_symmetry_Int_Tables_number   1
_chemical_formula_structural   Pr2Mn3(SbS3)4
_chemical_formula_sum   'Pr4 Mn6 Sb8 S24'
_cell_volume   942.00006694
_cell_formula_units_Z   2
loop_
 _symmetry_equiv_pos_site_id
 _symmetry_equiv_pos_as_xyz
  1  'x, y, z'
loop_
 _atom_site_type_symbol
 _atom_site_label
 _atom_site_symmetry_multiplicity
 _atom_site_fract_x
 _atom_site_fract_y
 _atom_site_fract_z
 _atom_site_occupancy
  Pr  Pr0  1  0.27337125  0.48279845  0.87208414  1
  Pr  Pr1  1  0.72963661  0.49464755  0.13630645  1
  Pr  Pr2  1  0.76589156  0.00771944  0.87142701  1
  Pr  Pr3  1  0.23352496  0.94870403  0.13077424  1
  Mn  Mn4  1  0.30447888  0.43556963  0.61745042  1
  Mn  Mn5  1  0.70947340  0.53014475  0.37207050  1
  Mn  Mn6  1  0.99505807  0.97697174  0.99922252  1
  Mn  Mn7  1  0.79918545  0.04037466  0.62404895  1
  Mn  Mn8  1  0.21333422  0.08012330  0.39584776  1
  Mn  Mn9  1  0.50059872  0.50634001  0.99661721  1
  Sb  Sb10  1  0.88367789  0.88047846  0.45611409  1
  Sb  Sb11  1  0.11075254  0.99389822  0.54097713  1
  Sb  Sb12  1  0.03332255  0.48949476  0.82404138  1
  Sb  Sb13  1  0.96305294  0.48608112  0.19883928  1
  Sb  Sb14  1  0.40620229  0.58309235  0.46582933  1
  Sb  Sb15  1  0.60666001  0.56791751  0.53451864  1
  Sb  Sb16  1  0.52333464  0.95279463  0.80073737  1
  Sb  Sb17  1  0.46907082  0.98040776  0.19417852  1
  S  S18  1  0.93344842  0.98465158  0.80087143  1
  S  S19  1  0.06926747  0.00091849  0.21765667  1
  S  S20  1  0.41379003  0.96616242  0.98360253  1
  S  S21  1  0.58080174  0.97983306  0.00095351  1
  S  S22  1  0.17095678  0.95174019  0.89532669  1
  S  S23  1  0.82726469  0.04397431  0.11317013  1
  S  S24  1  0.10029412  0.47449872  0.65049338  1
  S  S25  1  0.90862347  0.47947107  0.35593867  1
  S  S26  1  0.73525246  0.06023002  0.31076218  1
  S  S27  1  0.26219731  0.96379259  0.68561713  1
  S  S28  1  0.18306211  0.52939539  0.45790832  1
  S  S29  1  0.81593990  0.50609685  0.55392075  1
  S  S30  1  0.43580094  0.43797622  0.80283158  1
  S  S31  1  0.55624757  0.46261231  0.18433796  1
  S  S32  1  0.91484237  0.50903363  0.99056600  1
  S  S33  1  0.08513574  0.46612459  0.02726421  1
  S  S34  1  0.65461878  0.49498201  0.87650929  1
  S  S35  1  0.33260159  0.44911796  0.09955623  1
  S  S36  1  0.59682241  0.00779602  0.64387472  1
  S  S37  1  0.40261608  0.05777845  0.35114214  1
  S  S38  1  0.24297765  0.52488973  0.32391503  1
  S  S39  1  0.76223903  0.43469351  0.70164532  1
  S  S40  1  0.66966948  0.95851734  0.45229945  1
  S  S41  1  0.33307419  0.92874265  0.55403078  1
