# generated using pymatgen
data_Pr2Mn3(SbS3)4
_symmetry_space_group_name_H-M   'P 1'
_cell_length_a   20.02960800
_cell_length_b   3.90410600
_cell_length_c   14.95364829
_cell_angle_alpha   90.00000000
_cell_angle_beta   126.33350609
_cell_angle_gamma   90.00000000
_symmetry_Int_Tables_number   1
_chemical_formula_structural   Pr2Mn3(SbS3)4
_chemical_formula_sum   'Pr4 Mn6 Sb8 S24'
_cell_volume   942.00006694
_cell_formula_units_Z   2
loop_
 _symmetry_equiv_pos_site_id
 _symmetry_equiv_pos_as_xyz
  1  'x, y, z'
loop_
 _atom_site_type_symbol
 _atom_site_label
 _atom_site_symmetry_multiplicity
 _atom_site_fract_x
 _atom_site_fract_y
 _atom_site_fract_z
 _atom_site_occupancy
  Pr  Pr0  1  0.27348252  0.48272114  0.87207828  1
  Pr  Pr1  1  0.72965258  0.49451428  0.13639784  1
  Pr  Pr2  1  0.76596835  0.00777851  0.87163928  1
  Pr  Pr3  1  0.23360972  0.94852418  0.13083074  1
  Mn  Mn4  1  0.30448678  0.43602963  0.61759170  1
  Mn  Mn5  1  0.70965663  0.52952020  0.37194208  1
  Mn  Mn6  1  0.99511622  0.97742318  0.99947327  1
  Mn  Mn7  1  0.79916036  0.03932728  0.62426821  1
  Mn  Mn8  1  0.21340475  0.07973762  0.39569027  1
  Mn  Mn9  1  0.50043028  0.50588271  0.99641377  1
  Sb  Sb10  1  0.88363157  0.88024625  0.45612330  1
  Sb  Sb11  1  0.11078221  0.99400164  0.54101568  1
  Sb  Sb12  1  0.03335794  0.48928557  0.82394931  1
  Sb  Sb13  1  0.96306810  0.48593038  0.19890163  1
  Sb  Sb14  1  0.40622916  0.58341276  0.46594366  1
  Sb  Sb15  1  0.60669997  0.56775491  0.53454375  1
  Sb  Sb16  1  0.52349588  0.95292497  0.80080037  1
  Sb  Sb17  1  0.46918968  0.98031796  0.19423575  1
  S  S18  1  0.93362378  0.98435201  0.80126033  1
  S  S19  1  0.06944080  0.00212492  0.21759957  1
  S  S20  1  0.41390259  0.96522097  0.98378938  1
  S  S21  1  0.58088945  0.98035876  0.00096456  1
  S  S22  1  0.17088329  0.95190266  0.89538237  1
  S  S23  1  0.82769475  0.04297257  0.11375558  1
  S  S24  1  0.09996584  0.47506229  0.64994747  1
  S  S25  1  0.90880079  0.47964988  0.35600785  1
  S  S26  1  0.73517486  0.06021810  0.31103089  1
  S  S27  1  0.26214854  0.96257116  0.68570658  1
  S  S28  1  0.18325171  0.53050171  0.45803628  1
  S  S29  1  0.81614582  0.50553674  0.55449935  1
  S  S30  1  0.43589077  0.43867375  0.80269380  1
  S  S31  1  0.55619272  0.46235226  0.18425239  1
  S  S32  1  0.91504887  0.50869040  0.99060636  1
  S  S33  1  0.08523879  0.46696063  0.02718586  1
  S  S34  1  0.65459105  0.49538918  0.87654722  1
  S  S35  1  0.33280899  0.44972358  0.09966286  1
  S  S36  1  0.59660053  0.00776558  0.64341433  1
  S  S37  1  0.40271930  0.05752884  0.35124783  1
  S  S38  1  0.24281162  0.52567412  0.32380585  1
  S  S39  1  0.76246170  0.43415943  0.70200724  1
  S  S40  1  0.66973670  0.95845879  0.45247495  1
  S  S41  1  0.33329477  0.92775837  0.55418745  1
