# generated using pymatgen
data_Pr2Mn3(SbS3)4
_symmetry_space_group_name_H-M   'P 1'
_cell_length_a   20.02960800
_cell_length_b   3.90410600
_cell_length_c   14.95364829
_cell_angle_alpha   90.00000000
_cell_angle_beta   126.33350609
_cell_angle_gamma   90.00000000
_symmetry_Int_Tables_number   1
_chemical_formula_structural   Pr2Mn3(SbS3)4
_chemical_formula_sum   'Pr4 Mn6 Sb8 S24'
_cell_volume   942.00006694
_cell_formula_units_Z   2
loop_
 _symmetry_equiv_pos_site_id
 _symmetry_equiv_pos_as_xyz
  1  'x, y, z'
loop_
 _atom_site_type_symbol
 _atom_site_label
 _atom_site_symmetry_multiplicity
 _atom_site_fract_x
 _atom_site_fract_y
 _atom_site_fract_z
 _atom_site_occupancy
  Pr  Pr0  1  0.27357804  0.48272806  0.87208091  1
  Pr  Pr1  1  0.72971774  0.49448690  0.13650023  1
  Pr  Pr2  1  0.76602112  0.00789774  0.87179969  1
  Pr  Pr3  1  0.23365201  0.94813362  0.13087905  1
  Mn  Mn4  1  0.30453038  0.43652547  0.61779878  1
  Mn  Mn5  1  0.70991895  0.52910769  0.37183522  1
  Mn  Mn6  1  0.99511580  0.97800378  0.99964482  1
  Mn  Mn7  1  0.79917378  0.03857500  0.62435092  1
  Mn  Mn8  1  0.21347357  0.07912969  0.39558999  1
  Mn  Mn9  1  0.50028024  0.50538611  0.99614771  1
  Sb  Sb10  1  0.88359861  0.88003418  0.45615230  1
  Sb  Sb11  1  0.11079870  0.99416335  0.54109817  1
  Sb  Sb12  1  0.03339436  0.48887324  0.82390252  1
  Sb  Sb13  1  0.96310254  0.48552206  0.19897939  1
  Sb  Sb14  1  0.40621637  0.58364360  0.46605947  1
  Sb  Sb15  1  0.60673773  0.56752362  0.53458460  1
  Sb  Sb16  1  0.52364382  0.95291083  0.80086873  1
  Sb  Sb17  1  0.46920477  0.98040000  0.19426139  1
  S  S18  1  0.93388361  0.98473216  0.80169940  1
  S  S19  1  0.06965992  0.00407262  0.21746997  1
  S  S20  1  0.41399925  0.96414699  0.98391744  1
  S  S21  1  0.58109134  0.98052458  0.00117493  1
  S  S22  1  0.17076496  0.95182310  0.89544834  1
  S  S23  1  0.82808707  0.04254412  0.11429135  1
  S  S24  1  0.09973141  0.47560519  0.64930536  1
  S  S25  1  0.90898685  0.47934939  0.35593844  1
  S  S26  1  0.73514220  0.05988280  0.31125060  1
  S  S27  1  0.26210547  0.96184080  0.68579067  1
  S  S28  1  0.18353684  0.53131969  0.45817058  1
  S  S29  1  0.81640212  0.50530384  0.55499760  1
  S  S30  1  0.43588454  0.43918759  0.80261085  1
  S  S31  1  0.55608728  0.46241656  0.18412536  1
  S  S32  1  0.91524358  0.50844400  0.99084856  1
  S  S33  1  0.08533096  0.46808493  0.02711975  1
  S  S34  1  0.65470579  0.49552384  0.87669375  1
  S  S35  1  0.33296785  0.45058671  0.09983816  1
  S  S36  1  0.59640648  0.00804190  0.64300557  1
  S  S37  1  0.40281478  0.05762200  0.35131961  1
  S  S38  1  0.24271748  0.52589560  0.32377997  1
  S  S39  1  0.76264364  0.43344727  0.70237867  1
  S  S40  1  0.66966023  0.95873608  0.45245590  1
  S  S41  1  0.33356928  0.92713727  0.55443694  1
