# generated using pymatgen
data_Pr2Mn3(SbS3)4
_symmetry_space_group_name_H-M   'P 1'
_cell_length_a   20.02960800
_cell_length_b   3.90410600
_cell_length_c   14.95364829
_cell_angle_alpha   90.00000000
_cell_angle_beta   126.33350609
_cell_angle_gamma   90.00000000
_symmetry_Int_Tables_number   1
_chemical_formula_structural   Pr2Mn3(SbS3)4
_chemical_formula_sum   'Pr4 Mn6 Sb8 S24'
_cell_volume   942.00006694
_cell_formula_units_Z   2
loop_
 _symmetry_equiv_pos_site_id
 _symmetry_equiv_pos_as_xyz
  1  'x, y, z'
loop_
 _atom_site_type_symbol
 _atom_site_label
 _atom_site_symmetry_multiplicity
 _atom_site_fract_x
 _atom_site_fract_y
 _atom_site_fract_z
 _atom_site_occupancy
  Pr  Pr0  1  0.27363755  0.48292158  0.87203453  1
  Pr  Pr1  1  0.72975179  0.49440292  0.13657967  1
  Pr  Pr2  1  0.76608007  0.00781159  0.87197275  1
  Pr  Pr3  1  0.23374751  0.94783921  0.13098524  1
  Mn  Mn4  1  0.30456666  0.43687318  0.61801558  1
  Mn  Mn5  1  0.71010806  0.52905963  0.37172772  1
  Mn  Mn6  1  0.99516538  0.97846156  0.99986875  1
  Mn  Mn7  1  0.79903094  0.03773310  0.62431159  1
  Mn  Mn8  1  0.21348723  0.07869670  0.39545369  1
  Mn  Mn9  1  0.50015751  0.50476605  0.99589938  1
  Sb  Sb10  1  0.88362513  0.88009886  0.45619237  1
  Sb  Sb11  1  0.11079305  0.99419033  0.54113787  1
  Sb  Sb12  1  0.03344690  0.48849767  0.82386260  1
  Sb  Sb13  1  0.96313723  0.48520120  0.19907188  1
  Sb  Sb14  1  0.40616561  0.58383186  0.46607328  1
  Sb  Sb15  1  0.60686928  0.56752224  0.53463593  1
  Sb  Sb16  1  0.52384568  0.95298664  0.80107881  1
  Sb  Sb17  1  0.46922823  0.98055121  0.19430731  1
  S  S18  1  0.93420499  0.98548075  0.80232325  1
  S  S19  1  0.06976001  0.00577210  0.21728760  1
  S  S20  1  0.41425050  0.96342319  0.98415820  1
  S  S21  1  0.58142122  0.98073686  0.00170448  1
  S  S22  1  0.17074217  0.95144222  0.89572625  1
  S  S23  1  0.82847223  0.04196964  0.11472099  1
  S  S24  1  0.09945813  0.47620678  0.64865855  1
  S  S25  1  0.90917829  0.47859157  0.35600520  1
  S  S26  1  0.73513906  0.05965578  0.31132623  1
  S  S27  1  0.26211144  0.96166814  0.68590346  1
  S  S28  1  0.18378622  0.53235397  0.45824794  1
  S  S29  1  0.81659652  0.50453445  0.55532605  1
  S  S30  1  0.43584542  0.43983228  0.80260059  1
  S  S31  1  0.55588533  0.46266919  0.18399007  1
  S  S32  1  0.91541422  0.50796010  0.99112203  1
  S  S33  1  0.08525166  0.46926450  0.02699819  1
  S  S34  1  0.65483409  0.49565163  0.87684916  1
  S  S35  1  0.33316566  0.45174394  0.09995196  1
  S  S36  1  0.59627423  0.00798261  0.64271494  1
  S  S37  1  0.40284725  0.05801199  0.35125627  1
  S  S38  1  0.24262306  0.52650845  0.32372693  1
  S  S39  1  0.76270766  0.43247923  0.70253800  1
  S  S40  1  0.66954545  0.95934586  0.45249025  1
  S  S41  1  0.33379265  0.92667413  0.55466916  1
