# generated using pymatgen
data_Pr2Mn3(SbS3)4
_symmetry_space_group_name_H-M   'P 1'
_cell_length_a   20.02960800
_cell_length_b   3.90410600
_cell_length_c   14.95364829
_cell_angle_alpha   90.00000000
_cell_angle_beta   126.33350609
_cell_angle_gamma   90.00000000
_symmetry_Int_Tables_number   1
_chemical_formula_structural   Pr2Mn3(SbS3)4
_chemical_formula_sum   'Pr4 Mn6 Sb8 S24'
_cell_volume   942.00006694
_cell_formula_units_Z   2
loop_
 _symmetry_equiv_pos_site_id
 _symmetry_equiv_pos_as_xyz
  1  'x, y, z'
loop_
 _atom_site_type_symbol
 _atom_site_label
 _atom_site_symmetry_multiplicity
 _atom_site_fract_x
 _atom_site_fract_y
 _atom_site_fract_z
 _atom_site_occupancy
  Pr  Pr0  1  0.27364812  0.48312616  0.87201542  1
  Pr  Pr1  1  0.72974530  0.49439433  0.13662455  1
  Pr  Pr2  1  0.76609296  0.00759257  0.87213252  1
  Pr  Pr3  1  0.23386608  0.94757138  0.13107092  1
  Mn  Mn4  1  0.30456587  0.43749987  0.61815644  1
  Mn  Mn5  1  0.71023151  0.52923122  0.37163178  1
  Mn  Mn6  1  0.99519855  0.97883532  0.00000210  1
  Mn  Mn7  1  0.79881595  0.03637738  0.62428500  1
  Mn  Mn8  1  0.21354583  0.07863609  0.39541780  1
  Mn  Mn9  1  0.49998388  0.50427640  0.99563524  1
  Sb  Sb10  1  0.88370482  0.88022905  0.45627626  1
  Sb  Sb11  1  0.11078138  0.99414735  0.54120838  1
  Sb  Sb12  1  0.03353045  0.48820347  0.82384305  1
  Sb  Sb13  1  0.96316043  0.48488625  0.19911095  1
  Sb  Sb14  1  0.40610426  0.58396663  0.46602562  1
  Sb  Sb15  1  0.60700454  0.56768119  0.53469161  1
  Sb  Sb16  1  0.52406604  0.95298147  0.80123531  1
  Sb  Sb17  1  0.46925733  0.98068770  0.19435363  1
  S  S18  1  0.93447595  0.98591770  0.80280596  1
  S  S19  1  0.06977253  0.00758442  0.21707669  1
  S  S20  1  0.41448691  0.96278644  0.98442213  1
  S  S21  1  0.58169772  0.98112972  0.00223413  1
  S  S22  1  0.17086016  0.95063385  0.89611040  1
  S  S23  1  0.82891809  0.04150414  0.11501292  1
  S  S24  1  0.09917187  0.47670116  0.64801696  1
  S  S25  1  0.90944087  0.47805097  0.35619365  1
  S  S26  1  0.73520187  0.05958160  0.31158865  1
  S  S27  1  0.26207760  0.96191155  0.68593675  1
  S  S28  1  0.18407403  0.53269000  0.45847380  1
  S  S29  1  0.81669041  0.50381211  0.55556687  1
  S  S30  1  0.43589769  0.44054778  0.80275238  1
  S  S31  1  0.55574669  0.46292060  0.18396694  1
  S  S32  1  0.91560821  0.50758201  0.99135479  1
  S  S33  1  0.08514380  0.47054847  0.02686834  1
  S  S34  1  0.65485872  0.49606135  0.87693210  1
  S  S35  1  0.33338482  0.45370594  0.09998096  1
  S  S36  1  0.59629372  0.00712907  0.64254064  1
  S  S37  1  0.40299796  0.05856396  0.35111630  1
  S  S38  1  0.24254413  0.52703021  0.32362202  1
  S  S39  1  0.76271147  0.43170527  0.70249923  1
  S  S40  1  0.66941422  0.95975416  0.45242593  1
  S  S41  1  0.33402589  0.92601526  0.55484301  1
