# generated using pymatgen
data_Pr2Mn3(SbS3)4
_symmetry_space_group_name_H-M   'P 1'
_cell_length_a   20.02960800
_cell_length_b   3.90410600
_cell_length_c   14.95364829
_cell_angle_alpha   90.00000000
_cell_angle_beta   126.33350609
_cell_angle_gamma   90.00000000
_symmetry_Int_Tables_number   1
_chemical_formula_structural   Pr2Mn3(SbS3)4
_chemical_formula_sum   'Pr4 Mn6 Sb8 S24'
_cell_volume   942.00006694
_cell_formula_units_Z   2
loop_
 _symmetry_equiv_pos_site_id
 _symmetry_equiv_pos_as_xyz
  1  'x, y, z'
loop_
 _atom_site_type_symbol
 _atom_site_label
 _atom_site_symmetry_multiplicity
 _atom_site_fract_x
 _atom_site_fract_y
 _atom_site_fract_z
 _atom_site_occupancy
  Pr  Pr0  1  0.26156512  0.49789271  0.86474053  1
  Pr  Pr1  1  0.73996091  0.49974165  0.13720001  1
  Pr  Pr2  1  0.76044166  0.00587607  0.86231905  1
  Pr  Pr3  1  0.24012899  0.99186351  0.13800045  1
  Mn  Mn4  1  0.29968382  0.50589660  0.62033531  1
  Mn  Mn5  1  0.69734260  0.50041572  0.37880458  1
  Mn  Mn6  1  0.00041557  0.99742578  0.00088655  1
  Mn  Mn7  1  0.80221551  0.99446879  0.61968189  1
  Mn  Mn8  1  0.19909344  0.99507968  0.37899044  1
  Mn  Mn9  1  0.49972935  0.48788031  0.00114721  1
  Sb  Sb10  1  0.89481020  0.00412099  0.45375614  1
  Sb  Sb11  1  0.10657982  0.99439219  0.54922068  1
  Sb  Sb12  1  0.03793650  0.49488909  0.81409851  1
  Sb  Sb13  1  0.96260499  0.49703508  0.18769945  1
  Sb  Sb14  1  0.39460810  0.49279074  0.45551421  1
  Sb  Sb15  1  0.60575580  0.49636802  0.54767900  1
  Sb  Sb16  1  0.53853640  0.99786493  0.81488129  1
  Sb  Sb17  1  0.46268319  0.99970052  0.18537475  1
  S  S18  1  0.93971411  0.99753777  0.79813526  1
  S  S19  1  0.05755232  0.99335415  0.19512451  1
  S  S20  1  0.40228213  0.98327736  0.98005521  1
  S  S21  1  0.59875649  0.99740380  0.01864558  1
  S  S22  1  0.16881942  0.99022088  0.89869601  1
  S  S23  1  0.82895595  0.00510410  0.10345343  1
  S  S24  1  0.08853522  0.49316926  0.64824550  1
  S  S25  1  0.91016510  0.49359277  0.34908099  1
  S  S26  1  0.74395065  0.98588786  0.29610498  1
  S  S27  1  0.25616197  0.00995992  0.70244009  1
  S  S28  1  0.15725944  0.49194635  0.44922785  1
  S  S29  1  0.83894757  0.50139841  0.54656788  1
  S  S30  1  0.44109170  0.49550739  0.79892261  1
  S  S31  1  0.56043194  0.49377538  0.19986338  1
  S  S32  1  0.90263892  0.48978531  0.97932464  1
  S  S33  1  0.09643960  0.49045892  0.02040733  1
  S  S34  1  0.66589460  0.50937230  0.89531418  1
  S  S35  1  0.33430426  0.49968108  0.10634705  1
  S  S36  1  0.58828895  0.01462546  0.64737060  1
  S  S37  1  0.41332665  0.99435886  0.35497863  1
  S  S38  1  0.24340545  0.48474152  0.29157636  1
  S  S39  1  0.76099963  0.49946236  0.70670427  1
  S  S40  1  0.65805581  0.99508149  0.45407000  1
  S  S41  1  0.34191462  0.99278839  0.54579831  1
