# generated using pymatgen
data_Pr2Mn3(SbS3)4
_symmetry_space_group_name_H-M   'P 1'
_cell_length_a   20.02960800
_cell_length_b   3.90410600
_cell_length_c   14.95364829
_cell_angle_alpha   90.00000000
_cell_angle_beta   126.33350609
_cell_angle_gamma   90.00000000
_symmetry_Int_Tables_number   1
_chemical_formula_structural   Pr2Mn3(SbS3)4
_chemical_formula_sum   'Pr4 Mn6 Sb8 S24'
_cell_volume   942.00006694
_cell_formula_units_Z   2
loop_
 _symmetry_equiv_pos_site_id
 _symmetry_equiv_pos_as_xyz
  1  'x, y, z'
loop_
 _atom_site_type_symbol
 _atom_site_label
 _atom_site_symmetry_multiplicity
 _atom_site_fract_x
 _atom_site_fract_y
 _atom_site_fract_z
 _atom_site_occupancy
  Pr  Pr0  1  0.26650344  0.48285286  0.86380828  1
  Pr  Pr1  1  0.73587320  0.51361191  0.13569090  1
  Pr  Pr2  1  0.76308518  0.01533412  0.86283170  1
  Pr  Pr3  1  0.23591413  0.00668802  0.13660543  1
  Mn  Mn4  1  0.29010672  0.47716454  0.59810608  1
  Mn  Mn5  1  0.68996553  0.49579849  0.37464909  1
  Mn  Mn6  1  0.00895182  0.98989362  0.01726484  1
  Mn  Mn7  1  0.80390237  0.01614440  0.61547399  1
  Mn  Mn8  1  0.19817855  0.97961871  0.37800881  1
  Mn  Mn9  1  0.49297590  0.47453764  0.98991714  1
  Sb  Sb10  1  0.88997028  0.98140690  0.44982212  1
  Sb  Sb11  1  0.11250722  0.97585828  0.54780611  1
  Sb  Sb12  1  0.04040675  0.51960380  0.82263175  1
  Sb  Sb13  1  0.96512040  0.50132941  0.18420230  1
  Sb  Sb14  1  0.39621043  0.50804084  0.45277217  1
  Sb  Sb15  1  0.60578541  0.47187866  0.54719601  1
  Sb  Sb16  1  0.53390427  0.00024712  0.80977511  1
  Sb  Sb17  1  0.46200872  0.01537022  0.18363744  1
  S  S18  1  0.93755225  0.99640419  0.80459810  1
  S  S19  1  0.06685888  0.98446568  0.19930008  1
  S  S20  1  0.40891616  0.97193214  0.98184658  1
  S  S21  1  0.58036191  0.99117001  0.01059085  1
  S  S22  1  0.17180100  0.02669385  0.89921895  1
  S  S23  1  0.82442218  0.04768065  0.09611196  1
  S  S24  1  0.09601737  0.47538802  0.64699504  1
  S  S25  1  0.91180151  0.47682559  0.35453078  1
  S  S26  1  0.74094813  0.94637667  0.30271973  1
  S  S27  1  0.26339504  0.00442105  0.71101358  1
  S  S28  1  0.15869932  0.48119855  0.43046477  1
  S  S29  1  0.82606287  0.48528641  0.54850074  1
  S  S30  1  0.43246785  0.49886351  0.79952463  1
  S  S31  1  0.55984461  0.50901000  0.18439333  1
  S  S32  1  0.91004567  0.48619956  0.98784116  1
  S  S33  1  0.08931471  0.46495446  0.02363096  1
  S  S34  1  0.66464721  0.51105254  0.88682494  1
  S  S35  1  0.33079195  0.51510346  0.09570611  1
  S  S36  1  0.59537402  0.98281950  0.65369759  1
  S  S37  1  0.40627933  0.98475413  0.35106731  1
  S  S38  1  0.24113915  0.46052840  0.31018881  1
  S  S39  1  0.76317034  0.50091608  0.69966100  1
  S  S40  1  0.66884197  0.02826407  0.45541750  1
  S  S41  1  0.32211346  0.97355396  0.54777128  1
