# generated using pymatgen
data_Pr2Mn3(SbS3)4
_symmetry_space_group_name_H-M   'P 1'
_cell_length_a   20.02960800
_cell_length_b   3.90410600
_cell_length_c   14.95364829
_cell_angle_alpha   90.00000000
_cell_angle_beta   126.33350609
_cell_angle_gamma   90.00000000
_symmetry_Int_Tables_number   1
_chemical_formula_structural   Pr2Mn3(SbS3)4
_chemical_formula_sum   'Pr4 Mn6 Sb8 S24'
_cell_volume   942.00006694
_cell_formula_units_Z   2
loop_
 _symmetry_equiv_pos_site_id
 _symmetry_equiv_pos_as_xyz
  1  'x, y, z'
loop_
 _atom_site_type_symbol
 _atom_site_label
 _atom_site_symmetry_multiplicity
 _atom_site_fract_x
 _atom_site_fract_y
 _atom_site_fract_z
 _atom_site_occupancy
  Pr  Pr0  1  0.27363119  0.48331161  0.87197518  1
  Pr  Pr1  1  0.72980052  0.49428105  0.13671018  1
  Pr  Pr2  1  0.76616965  0.00759033  0.87226033  1
  Pr  Pr3  1  0.23388560  0.94780407  0.13102126  1
  Mn  Mn4  1  0.30457957  0.43777010  0.61822474  1
  Mn  Mn5  1  0.71030761  0.52962215  0.37157278  1
  Mn  Mn6  1  0.99526995  0.97896274  0.00006874  1
  Mn  Mn7  1  0.79865256  0.03501162  0.62423182  1
  Mn  Mn8  1  0.21368155  0.07844128  0.39543211  1
  Mn  Mn9  1  0.49983935  0.50363409  0.99538264  1
  Sb  Sb10  1  0.88381001  0.88030849  0.45643897  1
  Sb  Sb11  1  0.11077990  0.99421369  0.54134828  1
  Sb  Sb12  1  0.03361275  0.48815025  0.82386814  1
  Sb  Sb13  1  0.96314428  0.48462593  0.19913646  1
  Sb  Sb14  1  0.40607446  0.58437565  0.46596431  1
  Sb  Sb15  1  0.60708226  0.56826599  0.53466738  1
  Sb  Sb16  1  0.52426012  0.95321240  0.80141278  1
  Sb  Sb17  1  0.46924421  0.98072298  0.19434815  1
  S  S18  1  0.93463107  0.98648508  0.80321437  1
  S  S19  1  0.06973954  0.00926480  0.21672675  1
  S  S20  1  0.41471976  0.96189802  0.98468778  1
  S  S21  1  0.58181050  0.98111023  0.00261418  1
  S  S22  1  0.17095314  0.94960052  0.89647377  1
  S  S23  1  0.82929622  0.04093018  0.11522495  1
  S  S24  1  0.09899712  0.47730609  0.64760074  1
  S  S25  1  0.90960033  0.47751426  0.35640624  1
  S  S26  1  0.73537922  0.05945686  0.31194921  1
  S  S27  1  0.26198843  0.96152027  0.68606085  1
  S  S28  1  0.18422964  0.53321264  0.45867034  1
  S  S29  1  0.81666551  0.50348956  0.55575633  1
  S  S30  1  0.43589800  0.44113159  0.80299895  1
  S  S31  1  0.55568006  0.46328311  0.18395770  1
  S  S32  1  0.91577299  0.50809622  0.99153973  1
  S  S33  1  0.08502662  0.47216680  0.02669019  1
  S  S34  1  0.65488167  0.49650607  0.87693397  1
  S  S35  1  0.33376870  0.45591552  0.10022592  1
  S  S36  1  0.59648724  0.00648131  0.64260400  1
  S  S37  1  0.40299304  0.05911547  0.35073527  1
  S  S38  1  0.24244087  0.52726652  0.32341357  1
  S  S39  1  0.76275232  0.43072655  0.70242191  1
  S  S40  1  0.66928326  0.96025853  0.45224817  1
  S  S41  1  0.33430401  0.92554821  0.55504331  1
