# generated using pymatgen
data_Pr2Mn3(SbS3)4
_symmetry_space_group_name_H-M   'P 1'
_cell_length_a   20.02960800
_cell_length_b   3.90410600
_cell_length_c   14.95364829
_cell_angle_alpha   90.00000000
_cell_angle_beta   126.33350609
_cell_angle_gamma   90.00000000
_symmetry_Int_Tables_number   1
_chemical_formula_structural   Pr2Mn3(SbS3)4
_chemical_formula_sum   'Pr4 Mn6 Sb8 S24'
_cell_volume   942.00006694
_cell_formula_units_Z   2
loop_
 _symmetry_equiv_pos_site_id
 _symmetry_equiv_pos_as_xyz
  1  'x, y, z'
loop_
 _atom_site_type_symbol
 _atom_site_label
 _atom_site_symmetry_multiplicity
 _atom_site_fract_x
 _atom_site_fract_y
 _atom_site_fract_z
 _atom_site_occupancy
  Pr  Pr0  1  0.27361208  0.48368731  0.87198272  1
  Pr  Pr1  1  0.72983623  0.49429440  0.13677448  1
  Pr  Pr2  1  0.76626693  0.00774161  0.87238187  1
  Pr  Pr3  1  0.23391738  0.94801886  0.13099400  1
  Mn  Mn4  1  0.30458384  0.43814310  0.61818314  1
  Mn  Mn5  1  0.71039888  0.53011786  0.37160215  1
  Mn  Mn6  1  0.99535839  0.97891471  0.00017358  1
  Mn  Mn7  1  0.79851331  0.03343855  0.62413245  1
  Mn  Mn8  1  0.21373605  0.07844400  0.39538772  1
  Mn  Mn9  1  0.49969447  0.50290189  0.99514834  1
  Sb  Sb10  1  0.88392571  0.88028465  0.45659479  1
  Sb  Sb11  1  0.11076141  0.99436852  0.54139202  1
  Sb  Sb12  1  0.03365552  0.48809456  0.82389447  1
  Sb  Sb13  1  0.96307240  0.48442274  0.19907443  1
  Sb  Sb14  1  0.40605862  0.58444722  0.46588696  1
  Sb  Sb15  1  0.60719560  0.56875080  0.53475378  1
  Sb  Sb16  1  0.52436876  0.95347676  0.80151994  1
  Sb  Sb17  1  0.46923996  0.98077234  0.19433182  1
  S  S18  1  0.93474483  0.98683271  0.80365560  1
  S  S19  1  0.06967227  0.01079832  0.21644164  1
  S  S20  1  0.41495582  0.96091680  0.98489881  1
  S  S21  1  0.58183226  0.98154515  0.00293828  1
  S  S22  1  0.17096958  0.94903869  0.89666251  1
  S  S23  1  0.82968127  0.04015676  0.11549065  1
  S  S24  1  0.09889867  0.47786844  0.64723437  1
  S  S25  1  0.90979393  0.47707795  0.35659959  1
  S  S26  1  0.73561023  0.05926535  0.31225748  1
  S  S27  1  0.26181914  0.96106419  0.68598365  1
  S  S28  1  0.18438068  0.53367555  0.45876979  1
  S  S29  1  0.81665055  0.50323998  0.55587278  1
  S  S30  1  0.43585129  0.44177792  0.80335572  1
  S  S31  1  0.55553695  0.46338211  0.18381720  1
  S  S32  1  0.91598886  0.50874052  0.99174672  1
  S  S33  1  0.08497015  0.47334616  0.02660450  1
  S  S34  1  0.65489699  0.49716437  0.87676966  1
  S  S35  1  0.33403758  0.45757988  0.10037508  1
  S  S36  1  0.59661564  0.00581771  0.64262351  1
  S  S37  1  0.40304974  0.05909340  0.35048364  1
  S  S38  1  0.24245192  0.52719373  0.32326719  1
  S  S39  1  0.76277686  0.42996685  0.70225116  1
  S  S40  1  0.66917168  0.96055319  0.45199106  1
  S  S41  1  0.33457527  0.92594194  0.55524818  1
