# generated using pymatgen
data_Pr2Mn3(SbS3)4
_symmetry_space_group_name_H-M   'P 1'
_cell_length_a   20.02960800
_cell_length_b   3.90410600
_cell_length_c   14.95364829
_cell_angle_alpha   90.00000000
_cell_angle_beta   126.33350609
_cell_angle_gamma   90.00000000
_symmetry_Int_Tables_number   1
_chemical_formula_structural   Pr2Mn3(SbS3)4
_chemical_formula_sum   'Pr4 Mn6 Sb8 S24'
_cell_volume   942.00006694
_cell_formula_units_Z   2
loop_
 _symmetry_equiv_pos_site_id
 _symmetry_equiv_pos_as_xyz
  1  'x, y, z'
loop_
 _atom_site_type_symbol
 _atom_site_label
 _atom_site_symmetry_multiplicity
 _atom_site_fract_x
 _atom_site_fract_y
 _atom_site_fract_z
 _atom_site_occupancy
  Pr  Pr0  1  0.27358227  0.48388300  0.87199781  1
  Pr  Pr1  1  0.72986014  0.49440954  0.13683425  1
  Pr  Pr2  1  0.76631354  0.00800538  0.87246287  1
  Pr  Pr3  1  0.23398461  0.94832992  0.13104633  1
  Mn  Mn4  1  0.30471025  0.43858531  0.61831581  1
  Mn  Mn5  1  0.71050646  0.53039142  0.37164064  1
  Mn  Mn6  1  0.99542643  0.97891908  0.00022034  1
  Mn  Mn7  1  0.79842015  0.03206967  0.62406313  1
  Mn  Mn8  1  0.21376254  0.07876711  0.39532192  1
  Mn  Mn9  1  0.49949500  0.50211193  0.99490300  1
  Sb  Sb10  1  0.88402705  0.88055553  0.45679830  1
  Sb  Sb11  1  0.11077101  0.99424553  0.54140316  1
  Sb  Sb12  1  0.03367425  0.48793470  0.82386340  1
  Sb  Sb13  1  0.96297736  0.48420379  0.19902914  1
  Sb  Sb14  1  0.40605281  0.58444074  0.46579773  1
  Sb  Sb15  1  0.60733498  0.56914283  0.53483396  1
  Sb  Sb16  1  0.52446889  0.95377357  0.80164833  1
  Sb  Sb17  1  0.46925460  0.98090788  0.19431774  1
  S  S18  1  0.93503635  0.98713585  0.80418254  1
  S  S19  1  0.06969124  0.01211593  0.21629815  1
  S  S20  1  0.41502070  0.95976727  0.98513762  1
  S  S21  1  0.58177101  0.98209559  0.00315748  1
  S  S22  1  0.17112048  0.94894711  0.89677665  1
  S  S23  1  0.83013084  0.03936644  0.11580065  1
  S  S24  1  0.09889225  0.47791346  0.64696589  1
  S  S25  1  0.90986669  0.47677945  0.35673541  1
  S  S26  1  0.73577880  0.05871156  0.31252370  1
  S  S27  1  0.26162586  0.96064903  0.68584030  1
  S  S28  1  0.18465016  0.53445062  0.45889484  1
  S  S29  1  0.81668925  0.50324643  0.55593056  1
  S  S30  1  0.43576312  0.44302642  0.80372556  1
  S  S31  1  0.55528147  0.46381847  0.18358406  1
  S  S32  1  0.91617218  0.50897866  0.99189970  1
  S  S33  1  0.08492040  0.47428487  0.02639967  1
  S  S34  1  0.65488519  0.49749408  0.87659962  1
  S  S35  1  0.33421623  0.45894823  0.10039988  1
  S  S36  1  0.59675572  0.00542358  0.64271135  1
  S  S37  1  0.40310764  0.05947123  0.35020384  1
  S  S38  1  0.24246850  0.52724852  0.32294355  1
  S  S39  1  0.76270085  0.42860218  0.70200486  1
  S  S40  1  0.66901076  0.96122552  0.45169601  1
  S  S41  1  0.33493647  0.92669525  0.55554147  1
