# generated using pymatgen
data_Pr2Mn3(SbS3)4
_symmetry_space_group_name_H-M   'P 1'
_cell_length_a   20.02960800
_cell_length_b   3.90410600
_cell_length_c   14.95364829
_cell_angle_alpha   90.00000000
_cell_angle_beta   126.33350609
_cell_angle_gamma   90.00000000
_symmetry_Int_Tables_number   1
_chemical_formula_structural   Pr2Mn3(SbS3)4
_chemical_formula_sum   'Pr4 Mn6 Sb8 S24'
_cell_volume   942.00006694
_cell_formula_units_Z   2
loop_
 _symmetry_equiv_pos_site_id
 _symmetry_equiv_pos_as_xyz
  1  'x, y, z'
loop_
 _atom_site_type_symbol
 _atom_site_label
 _atom_site_symmetry_multiplicity
 _atom_site_fract_x
 _atom_site_fract_y
 _atom_site_fract_z
 _atom_site_occupancy
  Pr  Pr0  1  0.27353629  0.48380103  0.87199598  1
  Pr  Pr1  1  0.72988913  0.49425646  0.13683388  1
  Pr  Pr2  1  0.76634521  0.00801337  0.87249880  1
  Pr  Pr3  1  0.23402385  0.94882677  0.13107777  1
  Mn  Mn4  1  0.30491137  0.43946820  0.61853626  1
  Mn  Mn5  1  0.71051696  0.53032278  0.37158143  1
  Mn  Mn6  1  0.99549589  0.97899496  0.00037638  1
  Mn  Mn7  1  0.79828197  0.03074110  0.62398057  1
  Mn  Mn8  1  0.21370440  0.07930665  0.39524099  1
  Mn  Mn9  1  0.49931109  0.50107691  0.99469679  1
  Sb  Sb10  1  0.88418714  0.88078203  0.45706922  1
  Sb  Sb11  1  0.11075777  0.99430907  0.54136417  1
  Sb  Sb12  1  0.03376834  0.48794139  0.82391133  1
  Sb  Sb13  1  0.96288813  0.48387379  0.19896830  1
  Sb  Sb14  1  0.40607796  0.58427271  0.46577139  1
  Sb  Sb15  1  0.60742431  0.56940654  0.53484474  1
  Sb  Sb16  1  0.52458409  0.95410066  0.80179631  1
  Sb  Sb17  1  0.46925752  0.98132057  0.19431631  1
  S  S18  1  0.93531382  0.98786579  0.80470856  1
  S  S19  1  0.06972405  0.01290374  0.21610854  1
  S  S20  1  0.41518946  0.95906723  0.98541337  1
  S  S21  1  0.58174819  0.98296625  0.00334916  1
  S  S22  1  0.17130509  0.94890501  0.89688835  1
  S  S23  1  0.83060606  0.03860977  0.11608249  1
  S  S24  1  0.09888324  0.47755504  0.64662217  1
  S  S25  1  0.91004496  0.47638885  0.35712586  1
  S  S26  1  0.73601844  0.05822959  0.31264536  1
  S  S27  1  0.26147081  0.96127492  0.68572715  1
  S  S28  1  0.18483062  0.53551840  0.45902676  1
  S  S29  1  0.81682127  0.50342025  0.55597963  1
  S  S30  1  0.43560264  0.44451166  0.80400165  1
  S  S31  1  0.55496733  0.46442408  0.18336141  1
  S  S32  1  0.91631356  0.50910187  0.99202521  1
  S  S33  1  0.08485281  0.47533538  0.02610092  1
  S  S34  1  0.65494169  0.49748939  0.87654004  1
  S  S35  1  0.33425514  0.46086462  0.10029957  1
  S  S36  1  0.59686452  0.00524646  0.64283070  1
  S  S37  1  0.40319796  0.05950718  0.35004384  1
  S  S38  1  0.24234207  0.52756787  0.32274424  1
  S  S39  1  0.76245996  0.42737541  0.70163353  1
  S  S40  1  0.66891629  0.96212878  0.45146067  1
  S  S41  1  0.33525048  0.92747565  0.55575759  1
