# generated using pymatgen
data_Pr2Mn3(SbS3)4
_symmetry_space_group_name_H-M   'P 1'
_cell_length_a   20.02960800
_cell_length_b   3.90410600
_cell_length_c   14.95364829
_cell_angle_alpha   90.00000000
_cell_angle_beta   126.33350609
_cell_angle_gamma   90.00000000
_symmetry_Int_Tables_number   1
_chemical_formula_structural   Pr2Mn3(SbS3)4
_chemical_formula_sum   'Pr4 Mn6 Sb8 S24'
_cell_volume   942.00006694
_cell_formula_units_Z   2
loop_
 _symmetry_equiv_pos_site_id
 _symmetry_equiv_pos_as_xyz
  1  'x, y, z'
loop_
 _atom_site_type_symbol
 _atom_site_label
 _atom_site_symmetry_multiplicity
 _atom_site_fract_x
 _atom_site_fract_y
 _atom_site_fract_z
 _atom_site_occupancy
  Pr  Pr0  1  0.27346103  0.48401993  0.87197180  1
  Pr  Pr1  1  0.72990767  0.49416497  0.13685090  1
  Pr  Pr2  1  0.76632290  0.00830890  0.87251941  1
  Pr  Pr3  1  0.23412872  0.94923969  0.13116151  1
  Mn  Mn4  1  0.30511414  0.43999079  0.61865750  1
  Mn  Mn5  1  0.71046262  0.53046131  0.37156452  1
  Mn  Mn6  1  0.99556451  0.97928562  0.00054224  1
  Mn  Mn7  1  0.79815084  0.02947900  0.62389935  1
  Mn  Mn8  1  0.21356617  0.07967585  0.39515970  1
  Mn  Mn9  1  0.49915113  0.50012041  0.99441709  1
  Sb  Sb10  1  0.88437923  0.88108216  0.45735446  1
  Sb  Sb11  1  0.11066111  0.99454954  0.54125067  1
  Sb  Sb12  1  0.03389977  0.48807316  0.82399067  1
  Sb  Sb13  1  0.96276110  0.48359997  0.19889953  1
  Sb  Sb14  1  0.40607054  0.58437165  0.46578820  1
  Sb  Sb15  1  0.60755020  0.56971469  0.53486595  1
  Sb  Sb16  1  0.52476625  0.95474169  0.80199657  1
  Sb  Sb17  1  0.46924845  0.98161266  0.19426977  1
  S  S18  1  0.93556653  0.98875899  0.80513985  1
  S  S19  1  0.06971705  0.01335218  0.21593774  1
  S  S20  1  0.41540715  0.95852482  0.98567565  1
  S  S21  1  0.58171696  0.98405005  0.00345105  1
  S  S22  1  0.17150511  0.94904818  0.89685802  1
  S  S23  1  0.83095324  0.03765759  0.11636571  1
  S  S24  1  0.09886469  0.47765801  0.64640777  1
  S  S25  1  0.91024511  0.47575189  0.35759841  1
  S  S26  1  0.73620575  0.05723722  0.31267417  1
  S  S27  1  0.26138264  0.96207263  0.68563145  1
  S  S28  1  0.18485700  0.53645118  0.45902998  1
  S  S29  1  0.81696628  0.50331062  0.55603830  1
  S  S30  1  0.43545291  0.44629613  0.80425294  1
  S  S31  1  0.55480202  0.46544174  0.18322310  1
  S  S32  1  0.91645766  0.50931154  0.99233563  1
  S  S33  1  0.08461419  0.47637289  0.02576502  1
  S  S34  1  0.65502263  0.49809525  0.87656476  1
  S  S35  1  0.33425641  0.46235075  0.10030581  1
  S  S36  1  0.59704128  0.00495295  0.64299725  1
  S  S37  1  0.40327290  0.05991639  0.34986009  1
  S  S38  1  0.24229588  0.52791368  0.32266189  1
  S  S39  1  0.76235001  0.42586055  0.70129653  1
  S  S40  1  0.66882242  0.96292631  0.45119752  1
  S  S41  1  0.33554356  0.92857365  0.55598005  1
