# generated using pymatgen
data_Pr2Mn3(SbS3)4
_symmetry_space_group_name_H-M   'P 1'
_cell_length_a   20.02960800
_cell_length_b   3.90410600
_cell_length_c   14.95364829
_cell_angle_alpha   90.00000000
_cell_angle_beta   126.33350609
_cell_angle_gamma   90.00000000
_symmetry_Int_Tables_number   1
_chemical_formula_structural   Pr2Mn3(SbS3)4
_chemical_formula_sum   'Pr4 Mn6 Sb8 S24'
_cell_volume   942.00006694
_cell_formula_units_Z   2
loop_
 _symmetry_equiv_pos_site_id
 _symmetry_equiv_pos_as_xyz
  1  'x, y, z'
loop_
 _atom_site_type_symbol
 _atom_site_label
 _atom_site_symmetry_multiplicity
 _atom_site_fract_x
 _atom_site_fract_y
 _atom_site_fract_z
 _atom_site_occupancy
  Pr  Pr0  1  0.27338669  0.48425920  0.87196000  1
  Pr  Pr1  1  0.72988016  0.49400939  0.13677895  1
  Pr  Pr2  1  0.76631720  0.00865853  0.87247789  1
  Pr  Pr3  1  0.23425034  0.94977625  0.13128090  1
  Mn  Mn4  1  0.30526895  0.43998249  0.61865307  1
  Mn  Mn5  1  0.71040035  0.53044665  0.37147933  1
  Mn  Mn6  1  0.99570589  0.97957593  0.00077164  1
  Mn  Mn7  1  0.79804255  0.02836576  0.62387254  1
  Mn  Mn8  1  0.21349180  0.08002395  0.39515405  1
  Mn  Mn9  1  0.49901086  0.49898762  0.99413346  1
  Sb  Sb10  1  0.88455933  0.88135982  0.45756771  1
  Sb  Sb11  1  0.11056563  0.99444508  0.54110358  1
  Sb  Sb12  1  0.03400461  0.48807793  0.82405367  1
  Sb  Sb13  1  0.96259971  0.48343733  0.19878653  1
  Sb  Sb14  1  0.40607104  0.58448335  0.46578777  1
  Sb  Sb15  1  0.60770196  0.56998513  0.53495742  1
  Sb  Sb16  1  0.52491260  0.95537457  0.80213334  1
  Sb  Sb17  1  0.46927462  0.98217792  0.19431308  1
  S  S18  1  0.93581420  0.98958220  0.80544037  1
  S  S19  1  0.06963245  0.01373634  0.21566132  1
  S  S20  1  0.41547498  0.95846102  0.98591543  1
  S  S21  1  0.58167033  0.98483620  0.00348421  1
  S  S22  1  0.17175982  0.94837529  0.89678767  1
  S  S23  1  0.83121036  0.03693028  0.11651308  1
  S  S24  1  0.09878755  0.47764551  0.64628756  1
  S  S25  1  0.91041349  0.47517114  0.35797954  1
  S  S26  1  0.73639608  0.05571991  0.31271377  1
  S  S27  1  0.26134623  0.96304977  0.68558975  1
  S  S28  1  0.18491729  0.53698199  0.45887939  1
  S  S29  1  0.81709841  0.50374203  0.55609773  1
  S  S30  1  0.43535210  0.44810577  0.80449128  1
  S  S31  1  0.55452870  0.46618127  0.18299137  1
  S  S32  1  0.91663417  0.50886721  0.99264359  1
  S  S33  1  0.08438563  0.47756339  0.02540077  1
  S  S34  1  0.65513540  0.49824686  0.87662511  1
  S  S35  1  0.33417407  0.46371174  0.10036265  1
  S  S36  1  0.59713263  0.00416892  0.64314524  1
  S  S37  1  0.40333842  0.05996941  0.34971039  1
  S  S38  1  0.24227189  0.52862119  0.32252419  1
  S  S39  1  0.76214119  0.42412368  0.70094434  1
  S  S40  1  0.66871247  0.96339371  0.45084782  1
  S  S41  1  0.33577910  0.92947931  0.55607308  1
