# generated using pymatgen
data_Pr2Mn3(SbS3)4
_symmetry_space_group_name_H-M   'P 1'
_cell_length_a   20.02960800
_cell_length_b   3.90410600
_cell_length_c   14.95364829
_cell_angle_alpha   90.00000000
_cell_angle_beta   126.33350609
_cell_angle_gamma   90.00000000
_symmetry_Int_Tables_number   1
_chemical_formula_structural   Pr2Mn3(SbS3)4
_chemical_formula_sum   'Pr4 Mn6 Sb8 S24'
_cell_volume   942.00006694
_cell_formula_units_Z   2
loop_
 _symmetry_equiv_pos_site_id
 _symmetry_equiv_pos_as_xyz
  1  'x, y, z'
loop_
 _atom_site_type_symbol
 _atom_site_label
 _atom_site_symmetry_multiplicity
 _atom_site_fract_x
 _atom_site_fract_y
 _atom_site_fract_z
 _atom_site_occupancy
  Pr  Pr0  1  0.27336049  0.48466071  0.87197918  1
  Pr  Pr1  1  0.72983568  0.49389159  0.13677540  1
  Pr  Pr2  1  0.76633125  0.00914654  0.87246717  1
  Pr  Pr3  1  0.23432933  0.95011675  0.13131141  1
  Mn  Mn4  1  0.30533253  0.43985085  0.61859156  1
  Mn  Mn5  1  0.71025310  0.53019658  0.37135733  1
  Mn  Mn6  1  0.99586526  0.97980226  0.00098939  1
  Mn  Mn7  1  0.79801125  0.02752681  0.62383244  1
  Mn  Mn8  1  0.21337830  0.08043862  0.39504794  1
  Mn  Mn9  1  0.49897744  0.49793070  0.99401792  1
  Sb  Sb10  1  0.88467976  0.88155444  0.45767154  1
  Sb  Sb11  1  0.11041732  0.99428877  0.54091642  1
  Sb  Sb12  1  0.03407584  0.48825874  0.82411164  1
  Sb  Sb13  1  0.96246254  0.48331939  0.19866246  1
  Sb  Sb14  1  0.40605461  0.58456291  0.46571709  1
  Sb  Sb15  1  0.60783625  0.57022978  0.53495359  1
  Sb  Sb16  1  0.52503069  0.95597439  0.80231942  1
  Sb  Sb17  1  0.46933476  0.98263173  0.19441398  1
  S  S18  1  0.93602963  0.99018925  0.80574770  1
  S  S19  1  0.06963186  0.01443528  0.21559116  1
  S  S20  1  0.41558159  0.95848058  0.98624393  1
  S  S21  1  0.58161795  0.98612470  0.00345338  1
  S  S22  1  0.17190368  0.94787417  0.89658090  1
  S  S23  1  0.83145615  0.03587891  0.11661694  1
  S  S24  1  0.09879352  0.47739699  0.64614320  1
  S  S25  1  0.91060470  0.47431808  0.35844236  1
  S  S26  1  0.73662207  0.05434608  0.31276485  1
  S  S27  1  0.26128879  0.96334978  0.68556755  1
  S  S28  1  0.18494898  0.53727560  0.45877390  1
  S  S29  1  0.81720718  0.50430486  0.55608982  1
  S  S30  1  0.43538293  0.44988643  0.80478426  1
  S  S31  1  0.55433195  0.46670615  0.18289588  1
  S  S32  1  0.91680772  0.50841672  0.99282967  1
  S  S33  1  0.08416987  0.47875095  0.02505972  1
  S  S34  1  0.65522830  0.49741902  0.87680617  1
  S  S35  1  0.33413881  0.46470029  0.10038697  1
  S  S36  1  0.59721781  0.00356100  0.64324043  1
  S  S37  1  0.40345693  0.05972246  0.34973022  1
  S  S38  1  0.24230210  0.52983231  0.32250541  1
  S  S39  1  0.76199254  0.42227854  0.70066509  1
  S  S40  1  0.66867589  0.96405265  0.45056363  1
  S  S41  1  0.33598562  0.93036507  0.55599187  1
