# generated using pymatgen
data_Pr2Mn3(SbS3)4
_symmetry_space_group_name_H-M   'P 1'
_cell_length_a   20.02960800
_cell_length_b   3.90410600
_cell_length_c   14.95364829
_cell_angle_alpha   90.00000000
_cell_angle_beta   126.33350609
_cell_angle_gamma   90.00000000
_symmetry_Int_Tables_number   1
_chemical_formula_structural   Pr2Mn3(SbS3)4
_chemical_formula_sum   'Pr4 Mn6 Sb8 S24'
_cell_volume   942.00006694
_cell_formula_units_Z   2
loop_
 _symmetry_equiv_pos_site_id
 _symmetry_equiv_pos_as_xyz
  1  'x, y, z'
loop_
 _atom_site_type_symbol
 _atom_site_label
 _atom_site_symmetry_multiplicity
 _atom_site_fract_x
 _atom_site_fract_y
 _atom_site_fract_z
 _atom_site_occupancy
  Pr  Pr0  1  0.27336000  0.48496068  0.87201202  1
  Pr  Pr1  1  0.72978312  0.49368115  0.13672069  1
  Pr  Pr2  1  0.76630605  0.00943996  0.87250507  1
  Pr  Pr3  1  0.23434235  0.95031632  0.13123106  1
  Mn  Mn4  1  0.30542653  0.43992757  0.61839333  1
  Mn  Mn5  1  0.71008713  0.52995724  0.37121963  1
  Mn  Mn6  1  0.99607736  0.98026851  0.00122801  1
  Mn  Mn7  1  0.79799502  0.02660955  0.62364909  1
  Mn  Mn8  1  0.21322983  0.08073441  0.39490219  1
  Mn  Mn9  1  0.49891619  0.49682216  0.99393492  1
  Sb  Sb10  1  0.88471252  0.88189739  0.45775192  1
  Sb  Sb11  1  0.11025471  0.99422017  0.54080765  1
  Sb  Sb12  1  0.03415829  0.48862173  0.82418458  1
  Sb  Sb13  1  0.96227887  0.48326457  0.19845546  1
  Sb  Sb14  1  0.40600394  0.58478622  0.46564380  1
  Sb  Sb15  1  0.60792713  0.57077938  0.53499391  1
  Sb  Sb16  1  0.52519061  0.95644529  0.80243680  1
  Sb  Sb17  1  0.46941177  0.98295743  0.19455229  1
  S  S18  1  0.93631290  0.99136592  0.80621615  1
  S  S19  1  0.06954646  0.01494780  0.21539011  1
  S  S20  1  0.41556000  0.95851981  0.98634101  1
  S  S21  1  0.58146064  0.98797666  0.00337261  1
  S  S22  1  0.17210211  0.94687083  0.89666174  1
  S  S23  1  0.83172780  0.03488417  0.11682306  1
  S  S24  1  0.09878875  0.47700958  0.64596962  1
  S  S25  1  0.91070819  0.47294536  0.35897708  1
  S  S26  1  0.73684557  0.05288746  0.31290029  1
  S  S27  1  0.26128017  0.96369072  0.68555889  1
  S  S28  1  0.18488959  0.53796528  0.45865361  1
  S  S29  1  0.81725889  0.50510979  0.55613368  1
  S  S30  1  0.43541486  0.45177329  0.80500825  1
  S  S31  1  0.55426434  0.46792144  0.18289208  1
  S  S32  1  0.91692072  0.50825155  0.99288599  1
  S  S33  1  0.08405161  0.47954290  0.02474822  1
  S  S34  1  0.65546747  0.49669806  0.87715877  1
  S  S35  1  0.33399341  0.46593087  0.10031487  1
  S  S36  1  0.59750171  0.00262986  0.64346658  1
  S  S37  1  0.40362159  0.05946178  0.34983454  1
  S  S38  1  0.24237228  0.53043557  0.32233183  1
  S  S39  1  0.76184048  0.42113948  0.70024967  1
  S  S40  1  0.66849956  0.96432525  0.45035308  1
  S  S41  1  0.33622206  0.93147834  0.55592885  1
