# generated using pymatgen
data_Pr2Mn3(SbS3)4
_symmetry_space_group_name_H-M   'P 1'
_cell_length_a   20.02960800
_cell_length_b   3.90410600
_cell_length_c   14.95364829
_cell_angle_alpha   90.00000000
_cell_angle_beta   126.33350609
_cell_angle_gamma   90.00000000
_symmetry_Int_Tables_number   1
_chemical_formula_structural   Pr2Mn3(SbS3)4
_chemical_formula_sum   'Pr4 Mn6 Sb8 S24'
_cell_volume   942.00006694
_cell_formula_units_Z   2
loop_
 _symmetry_equiv_pos_site_id
 _symmetry_equiv_pos_as_xyz
  1  'x, y, z'
loop_
 _atom_site_type_symbol
 _atom_site_label
 _atom_site_symmetry_multiplicity
 _atom_site_fract_x
 _atom_site_fract_y
 _atom_site_fract_z
 _atom_site_occupancy
  Pr  Pr0  1  0.27337349  0.48520290  0.87203300  1
  Pr  Pr1  1  0.72976592  0.49355956  0.13672210  1
  Pr  Pr2  1  0.76625435  0.00964283  0.87247835  1
  Pr  Pr3  1  0.23446783  0.95041961  0.13125813  1
  Mn  Mn4  1  0.30560194  0.43979775  0.61833254  1
  Mn  Mn5  1  0.70991759  0.52942133  0.37111581  1
  Mn  Mn6  1  0.99630124  0.98088542  0.00150919  1
  Mn  Mn7  1  0.79795314  0.02574734  0.62349249  1
  Mn  Mn8  1  0.21302609  0.08043510  0.39464757  1
  Mn  Mn9  1  0.49880278  0.49635677  0.99376313  1
  Sb  Sb10  1  0.88479325  0.88202297  0.45789918  1
  Sb  Sb11  1  0.11006701  0.99426378  0.54062981  1
  Sb  Sb12  1  0.03416468  0.48888874  0.82423825  1
  Sb  Sb13  1  0.96213357  0.48315661  0.19831591  1
  Sb  Sb14  1  0.40597786  0.58513744  0.46568345  1
  Sb  Sb15  1  0.60799571  0.57130413  0.53500710  1
  Sb  Sb16  1  0.52542107  0.95685939  0.80263331  1
  Sb  Sb17  1  0.46942074  0.98341675  0.19460606  1
  S  S18  1  0.93665004  0.99254617  0.80659655  1
  S  S19  1  0.06949874  0.01597198  0.21520715  1
  S  S20  1  0.41546588  0.95837827  0.98631548  1
  S  S21  1  0.58141638  0.98968591  0.00337545  1
  S  S22  1  0.17226354  0.94593268  0.89682385  1
  S  S23  1  0.83210284  0.03384698  0.11704949  1
  S  S24  1  0.09874357  0.47675492  0.64594603  1
  S  S25  1  0.91081029  0.47148915  0.35944686  1
  S  S26  1  0.73691754  0.05156778  0.31304488  1
  S  S27  1  0.26128605  0.96450791  0.68559424  1
  S  S28  1  0.18483748  0.53889524  0.45864886  1
  S  S29  1  0.81746563  0.50559827  0.55639845  1
  S  S30  1  0.43551469  0.45374603  0.80533363  1
  S  S31  1  0.55427447  0.46863069  0.18293297  1
  S  S32  1  0.91692273  0.50828633  0.99284444  1
  S  S33  1  0.08389176  0.48031583  0.02440265  1
  S  S34  1  0.65564414  0.49599483  0.87747012  1
  S  S35  1  0.33387831  0.46676947  0.10031623  1
  S  S36  1  0.59768777  0.00156199  0.64365979  1
  S  S37  1  0.40393834  0.05917379  0.35025752  1
  S  S38  1  0.24238549  0.53091612  0.32223916  1
  S  S39  1  0.76181055  0.42030506  0.69996674  1
  S  S40  1  0.66838633  0.96426428  0.45012093  1
  S  S41  1  0.33641514  0.93299693  0.55585658  1
