# generated using pymatgen
data_Pr2Mn3(SbS3)4
_symmetry_space_group_name_H-M   'P 1'
_cell_length_a   20.02960800
_cell_length_b   3.90410600
_cell_length_c   14.95364829
_cell_angle_alpha   90.00000000
_cell_angle_beta   126.33350609
_cell_angle_gamma   90.00000000
_symmetry_Int_Tables_number   1
_chemical_formula_structural   Pr2Mn3(SbS3)4
_chemical_formula_sum   'Pr4 Mn6 Sb8 S24'
_cell_volume   942.00006694
_cell_formula_units_Z   2
loop_
 _symmetry_equiv_pos_site_id
 _symmetry_equiv_pos_as_xyz
  1  'x, y, z'
loop_
 _atom_site_type_symbol
 _atom_site_label
 _atom_site_symmetry_multiplicity
 _atom_site_fract_x
 _atom_site_fract_y
 _atom_site_fract_z
 _atom_site_occupancy
  Pr  Pr0  1  0.27338220  0.48547841  0.87202448  1
  Pr  Pr1  1  0.72976112  0.49315828  0.13679458  1
  Pr  Pr2  1  0.76620454  0.00972199  0.87248753  1
  Pr  Pr3  1  0.23457767  0.95059837  0.13133155  1
  Mn  Mn4  1  0.30573499  0.43979682  0.61819761  1
  Mn  Mn5  1  0.70971049  0.52922813  0.37100728  1
  Mn  Mn6  1  0.99642304  0.98114120  0.00171061  1
  Mn  Mn7  1  0.79798958  0.02511310  0.62346968  1
  Mn  Mn8  1  0.21284011  0.07999377  0.39441804  1
  Mn  Mn9  1  0.49863722  0.49580788  0.99355316  1
  Sb  Sb10  1  0.88490377  0.88222287  0.45805382  1
  Sb  Sb11  1  0.10989794  0.99438970  0.54045976  1
  Sb  Sb12  1  0.03418388  0.48933200  0.82439386  1
  Sb  Sb13  1  0.96201748  0.48311349  0.19824831  1
  Sb  Sb14  1  0.40596589  0.58566147  0.46573722  1
  Sb  Sb15  1  0.60805835  0.57173295  0.53497578  1
  Sb  Sb16  1  0.52560838  0.95694034  0.80277357  1
  Sb  Sb17  1  0.46946117  0.98375802  0.19465806  1
  S  S18  1  0.93695139  0.99370148  0.80696412  1
  S  S19  1  0.06963842  0.01691115  0.21527886  1
  S  S20  1  0.41532758  0.95842629  0.98626129  1
  S  S21  1  0.58135705  0.99059060  0.00349525  1
  S  S22  1  0.17248164  0.94478309  0.89702347  1
  S  S23  1  0.83244445  0.03253026  0.11721813  1
  S  S24  1  0.09863473  0.47629658  0.64583906  1
  S  S25  1  0.91100688  0.46942842  0.36001326  1
  S  S26  1  0.73689728  0.05007270  0.31297938  1
  S  S27  1  0.26124879  0.96483066  0.68552125  1
  S  S28  1  0.18473536  0.53978208  0.45867231  1
  S  S29  1  0.81762089  0.50610709  0.55658548  1
  S  S30  1  0.43556699  0.45498291  0.80551125  1
  S  S31  1  0.55437860  0.46940583  0.18293615  1
  S  S32  1  0.91700955  0.50838972  0.99290586  1
  S  S33  1  0.08364982  0.48065089  0.02406410  1
  S  S34  1  0.65573572  0.49567010  0.87772676  1
  S  S35  1  0.33363663  0.46779674  0.10028710  1
  S  S36  1  0.59788534  0.00044516  0.64383828  1
  S  S37  1  0.40421045  0.05915422  0.35051956  1
  S  S38  1  0.24237988  0.53134226  0.32207016  1
  S  S39  1  0.76183081  0.41960247  0.69986204  1
  S  S40  1  0.66831153  0.96398767  0.44987028  1
  S  S41  1  0.33657821  0.93478534  0.55576316  1
