# generated using pymatgen
data_Pr2Mn3(SbS3)4
_symmetry_space_group_name_H-M   'P 1'
_cell_length_a   20.02960800
_cell_length_b   3.90410600
_cell_length_c   14.95364829
_cell_angle_alpha   90.00000000
_cell_angle_beta   126.33350609
_cell_angle_gamma   90.00000000
_symmetry_Int_Tables_number   1
_chemical_formula_structural   Pr2Mn3(SbS3)4
_chemical_formula_sum   'Pr4 Mn6 Sb8 S24'
_cell_volume   942.00006694
_cell_formula_units_Z   2
loop_
 _symmetry_equiv_pos_site_id
 _symmetry_equiv_pos_as_xyz
  1  'x, y, z'
loop_
 _atom_site_type_symbol
 _atom_site_label
 _atom_site_symmetry_multiplicity
 _atom_site_fract_x
 _atom_site_fract_y
 _atom_site_fract_z
 _atom_site_occupancy
  Pr  Pr0  1  0.26655166  0.48366626  0.86382321  1
  Pr  Pr1  1  0.73588020  0.51324711  0.13565930  1
  Pr  Pr2  1  0.76301660  0.01503154  0.86270234  1
  Pr  Pr3  1  0.23573703  0.00651683  0.13653068  1
  Mn  Mn4  1  0.28992302  0.47703495  0.59787755  1
  Mn  Mn5  1  0.68998973  0.49541346  0.37455612  1
  Mn  Mn6  1  0.00894175  0.98991551  0.01758150  1
  Mn  Mn7  1  0.80399680  0.01559632  0.61589451  1
  Mn  Mn8  1  0.19814088  0.98015593  0.37781254  1
  Mn  Mn9  1  0.49304848  0.47507205  0.99000779  1
  Sb  Sb10  1  0.88992118  0.98168881  0.44981268  1
  Sb  Sb11  1  0.11250324  0.97561259  0.54783849  1
  Sb  Sb12  1  0.04044810  0.51981379  0.82268557  1
  Sb  Sb13  1  0.96497704  0.50068976  0.18395924  1
  Sb  Sb14  1  0.39621834  0.50765679  0.45260237  1
  Sb  Sb15  1  0.60568791  0.47207490  0.54712646  1
  Sb  Sb16  1  0.53376587  0.99993933  0.80959190  1
  Sb  Sb17  1  0.46216975  0.01562172  0.18400005  1
  S  S18  1  0.93769812  0.99606944  0.80478977  1
  S  S19  1  0.06679452  0.98426949  0.19966745  1
  S  S20  1  0.40922316  0.97115679  0.98168677  1
  S  S21  1  0.57995241  0.99318085  0.01026098  1
  S  S22  1  0.17186874  0.02697949  0.89952695  1
  S  S23  1  0.82432032  0.04814220  0.09609347  1
  S  S24  1  0.09591513  0.47680333  0.64683247  1
  S  S25  1  0.91197603  0.47708194  0.35481290  1
  S  S26  1  0.74092383  0.94680499  0.30280575  1
  S  S27  1  0.26335423  0.00441752  0.71068757  1
  S  S28  1  0.15839666  0.48166513  0.43012551  1
  S  S29  1  0.82596494  0.48576431  0.54863964  1
  S  S30  1  0.43240998  0.49857735  0.79962974  1
  S  S31  1  0.55959300  0.50974160  0.18425860  1
  S  S32  1  0.90980570  0.48578873  0.98768837  1
  S  S33  1  0.08950860  0.46498244  0.02382169  1
  S  S34  1  0.66462532  0.51056637  0.88648927  1
  S  S35  1  0.33081640  0.51351406  0.09583721  1
  S  S36  1  0.59548082  0.98288081  0.65374709  1
  S  S37  1  0.40594939  0.98489634  0.35096218  1
  S  S38  1  0.24086112  0.46141441  0.31001741  1
  S  S39  1  0.76298520  0.50100245  0.69947094  1
  S  S40  1  0.66857371  0.02796536  0.45520654  1
  S  S41  1  0.32224461  0.97336543  0.54803411  1
