# generated using pymatgen
data_Pr2Mn3(SbS3)4
_symmetry_space_group_name_H-M   'P 1'
_cell_length_a   20.02960800
_cell_length_b   3.90410600
_cell_length_c   14.95364829
_cell_angle_alpha   90.00000000
_cell_angle_beta   126.33350609
_cell_angle_gamma   90.00000000
_symmetry_Int_Tables_number   1
_chemical_formula_structural   Pr2Mn3(SbS3)4
_chemical_formula_sum   'Pr4 Mn6 Sb8 S24'
_cell_volume   942.00006694
_cell_formula_units_Z   2
loop_
 _symmetry_equiv_pos_site_id
 _symmetry_equiv_pos_as_xyz
  1  'x, y, z'
loop_
 _atom_site_type_symbol
 _atom_site_label
 _atom_site_symmetry_multiplicity
 _atom_site_fract_x
 _atom_site_fract_y
 _atom_site_fract_z
 _atom_site_occupancy
  Pr  Pr0  1  0.27334653  0.48557664  0.87198209  1
  Pr  Pr1  1  0.72974669  0.49309382  0.13682183  1
  Pr  Pr2  1  0.76616314  0.00969255  0.87250348  1
  Pr  Pr3  1  0.23471515  0.95087482  0.13142081  1
  Mn  Mn4  1  0.30587902  0.43936105  0.61811037  1
  Mn  Mn5  1  0.70953427  0.52930798  0.37094595  1
  Mn  Mn6  1  0.99659737  0.98165513  0.00193043  1
  Mn  Mn7  1  0.79801104  0.02455020  0.62348123  1
  Mn  Mn8  1  0.21262424  0.07979613  0.39413558  1
  Mn  Mn9  1  0.49852110  0.49512383  0.99333101  1
  Sb  Sb10  1  0.88500209  0.88235956  0.45817957  1
  Sb  Sb11  1  0.10976615  0.99473199  0.54028979  1
  Sb  Sb12  1  0.03417439  0.48960316  0.82453440  1
  Sb  Sb13  1  0.96189264  0.48314850  0.19810954  1
  Sb  Sb14  1  0.40594106  0.58616619  0.46574072  1
  Sb  Sb15  1  0.60811587  0.57182923  0.53491984  1
  Sb  Sb16  1  0.52581452  0.95706362  0.80289984  1
  Sb  Sb17  1  0.46953751  0.98435826  0.19472491  1
  S  S18  1  0.93721411  0.99437761  0.80729794  1
  S  S19  1  0.06964831  0.01755958  0.21531084  1
  S  S20  1  0.41526468  0.95846946  0.98624391  1
  S  S21  1  0.58140088  0.99167153  0.00368862  1
  S  S22  1  0.17265961  0.94364451  0.89727876  1
  S  S23  1  0.83269250  0.03107602  0.11729552  1
  S  S24  1  0.09860423  0.47593176  0.64581250  1
  S  S25  1  0.91117448  0.46754960  0.36052098  1
  S  S26  1  0.73702077  0.04791555  0.31306674  1
  S  S27  1  0.26129603  0.96499090  0.68542398  1
  S  S28  1  0.18456444  0.54045239  0.45869396  1
  S  S29  1  0.81792609  0.50698117  0.55690954  1
  S  S30  1  0.43563575  0.45602534  0.80565222  1
  S  S31  1  0.55436670  0.46974861  0.18286857  1
  S  S32  1  0.91712691  0.50913739  0.99294146  1
  S  S33  1  0.08340464  0.48112389  0.02376279  1
  S  S34  1  0.65587593  0.49545064  0.87797400  1
  S  S35  1  0.33325945  0.46856442  0.10004437  1
  S  S36  1  0.59825864  0.99985142  0.64411180  1
  S  S37  1  0.40431382  0.05963639  0.35068613  1
  S  S38  1  0.24240545  0.53156298  0.32198955  1
  S  S39  1  0.76198062  0.41912223  0.69980815  1
  S  S40  1  0.66817963  0.96357423  0.44950370  1
  S  S41  1  0.33663976  0.93685275  0.55549104  1
