# generated using pymatgen
data_Pr2Mn3(SbS3)4
_symmetry_space_group_name_H-M   'P 1'
_cell_length_a   20.02960800
_cell_length_b   3.90410600
_cell_length_c   14.95364829
_cell_angle_alpha   90.00000000
_cell_angle_beta   126.33350609
_cell_angle_gamma   90.00000000
_symmetry_Int_Tables_number   1
_chemical_formula_structural   Pr2Mn3(SbS3)4
_chemical_formula_sum   'Pr4 Mn6 Sb8 S24'
_cell_volume   942.00006694
_cell_formula_units_Z   2
loop_
 _symmetry_equiv_pos_site_id
 _symmetry_equiv_pos_as_xyz
  1  'x, y, z'
loop_
 _atom_site_type_symbol
 _atom_site_label
 _atom_site_symmetry_multiplicity
 _atom_site_fract_x
 _atom_site_fract_y
 _atom_site_fract_z
 _atom_site_occupancy
  Pr  Pr0  1  0.27333713  0.48571104  0.87196831  1
  Pr  Pr1  1  0.72972723  0.49310255  0.13685236  1
  Pr  Pr2  1  0.76610911  0.00971591  0.87248528  1
  Pr  Pr3  1  0.23481761  0.95127271  0.13151389  1
  Mn  Mn4  1  0.30600670  0.43879391  0.61798380  1
  Mn  Mn5  1  0.70939099  0.52929905  0.37089136  1
  Mn  Mn6  1  0.99671591  0.98207047  0.00206054  1
  Mn  Mn7  1  0.79797283  0.02429500  0.62347754  1
  Mn  Mn8  1  0.21242539  0.07957389  0.39380062  1
  Mn  Mn9  1  0.49839205  0.49512020  0.99305394  1
  Sb  Sb10  1  0.88506324  0.88288504  0.45828512  1
  Sb  Sb11  1  0.10969754  0.99501887  0.54021890  1
  Sb  Sb12  1  0.03423729  0.49005543  0.82469677  1
  Sb  Sb13  1  0.96174535  0.48319094  0.19802405  1
  Sb  Sb14  1  0.40596531  0.58645643  0.46576034  1
  Sb  Sb15  1  0.60815554  0.57189734  0.53495968  1
  Sb  Sb16  1  0.52597196  0.95713322  0.80301392  1
  Sb  Sb17  1  0.46956605  0.98479791  0.19475652  1
  S  S18  1  0.93747322  0.99529363  0.80768169  1
  S  S19  1  0.06959168  0.01852979  0.21519100  1
  S  S20  1  0.41519224  0.95861697  0.98621717  1
  S  S21  1  0.58146054  0.99266857  0.00402828  1
  S  S22  1  0.17288073  0.94271017  0.89765125  1
  S  S23  1  0.83271613  0.02979698  0.11714786  1
  S  S24  1  0.09858109  0.47590564  0.64561998  1
  S  S25  1  0.91123988  0.46524156  0.36091708  1
  S  S26  1  0.73693628  0.04559477  0.31296811  1
  S  S27  1  0.26131832  0.96493979  0.68523470  1
  S  S28  1  0.18443263  0.54090453  0.45855199  1
  S  S29  1  0.81818363  0.50818995  0.55719323  1
  S  S30  1  0.43572488  0.45729341  0.80585724  1
  S  S31  1  0.55436524  0.46973424  0.18272758  1
  S  S32  1  0.91711572  0.50986672  0.99288938  1
  S  S33  1  0.08328894  0.48138615  0.02347966  1
  S  S34  1  0.65597346  0.49550285  0.87825745  1
  S  S35  1  0.33293246  0.46963370  0.09979955  1
  S  S36  1  0.59863763  0.99948029  0.64428491  1
  S  S37  1  0.40442986  0.06049457  0.35074472  1
  S  S38  1  0.24252528  0.53196569  0.32191065  1
  S  S39  1  0.76214167  0.41851178  0.69981376  1
  S  S40  1  0.66804814  0.96330722  0.44935579  1
  S  S41  1  0.33674590  0.93910285  0.55526913  1
