# generated using pymatgen
data_Pr2Mn3(SbS3)4
_symmetry_space_group_name_H-M   'P 1'
_cell_length_a   20.02960800
_cell_length_b   3.90410600
_cell_length_c   14.95364829
_cell_angle_alpha   90.00000000
_cell_angle_beta   126.33350609
_cell_angle_gamma   90.00000000
_symmetry_Int_Tables_number   1
_chemical_formula_structural   Pr2Mn3(SbS3)4
_chemical_formula_sum   'Pr4 Mn6 Sb8 S24'
_cell_volume   942.00006694
_cell_formula_units_Z   2
loop_
 _symmetry_equiv_pos_site_id
 _symmetry_equiv_pos_as_xyz
  1  'x, y, z'
loop_
 _atom_site_type_symbol
 _atom_site_label
 _atom_site_symmetry_multiplicity
 _atom_site_fract_x
 _atom_site_fract_y
 _atom_site_fract_z
 _atom_site_occupancy
  Pr  Pr0  1  0.27334056  0.48595167  0.87189737  1
  Pr  Pr1  1  0.72976335  0.49315851  0.13688560  1
  Pr  Pr2  1  0.76605710  0.00992048  0.87250388  1
  Pr  Pr3  1  0.23494172  0.95162495  0.13157991  1
  Mn  Mn4  1  0.30601074  0.43828690  0.61773963  1
  Mn  Mn5  1  0.70917963  0.52940392  0.37072171  1
  Mn  Mn6  1  0.99679625  0.98263258  0.00209232  1
  Mn  Mn7  1  0.79792202  0.02352907  0.62340557  1
  Mn  Mn8  1  0.21220991  0.07901127  0.39354216  1
  Mn  Mn9  1  0.49824312  0.49481915  0.99283415  1
  Sb  Sb10  1  0.88514482  0.88341545  0.45840580  1
  Sb  Sb11  1  0.10965140  0.99521107  0.54021568  1
  Sb  Sb12  1  0.03425238  0.49054069  0.82479266  1
  Sb  Sb13  1  0.96165283  0.48333475  0.19801103  1
  Sb  Sb14  1  0.40597790  0.58688160  0.46577168  1
  Sb  Sb15  1  0.60818959  0.57219745  0.53499443  1
  Sb  Sb16  1  0.52611452  0.95737640  0.80303163  1
  Sb  Sb17  1  0.46955958  0.98508645  0.19468532  1
  S  S18  1  0.93772175  0.99604029  0.80814636  1
  S  S19  1  0.06945830  0.01987327  0.21495599  1
  S  S20  1  0.41507439  0.95885155  0.98611041  1
  S  S21  1  0.58149675  0.99333063  0.00434735  1
  S  S22  1  0.17305816  0.94155272  0.89809418  1
  S  S23  1  0.83271324  0.02817508  0.11685046  1
  S  S24  1  0.09855882  0.47612899  0.64539456  1
  S  S25  1  0.91120720  0.46298881  0.36108477  1
  S  S26  1  0.73687737  0.04333042  0.31296678  1
  S  S27  1  0.26138380  0.96487211  0.68511411  1
  S  S28  1  0.18428619  0.54204639  0.45842612  1
  S  S29  1  0.81845760  0.50995740  0.55753713  1
  S  S30  1  0.43573918  0.45861473  0.80600458  1
  S  S31  1  0.55440381  0.47003643  0.18262458  1
  S  S32  1  0.91701148  0.51045504  0.99275452  1
  S  S33  1  0.08324428  0.48159532  0.02331873  1
  S  S34  1  0.65618183  0.49555712  0.87858529  1
  S  S35  1  0.33259071  0.47084961  0.09957555  1
  S  S36  1  0.59884036  0.99878647  0.64425192  1
  S  S37  1  0.40450576  0.06101711  0.35088035  1
  S  S38  1  0.24270203  0.53246508  0.32191537  1
  S  S39  1  0.76229604  0.41804055  0.69991931  1
  S  S40  1  0.66785552  0.96321585  0.44924508  1
  S  S41  1  0.33684107  0.94077918  0.55492004  1
