# generated using pymatgen
data_Pr2Mn3(SbS3)4
_symmetry_space_group_name_H-M   'P 1'
_cell_length_a   20.02960800
_cell_length_b   3.90410600
_cell_length_c   14.95364829
_cell_angle_alpha   90.00000000
_cell_angle_beta   126.33350609
_cell_angle_gamma   90.00000000
_symmetry_Int_Tables_number   1
_chemical_formula_structural   Pr2Mn3(SbS3)4
_chemical_formula_sum   'Pr4 Mn6 Sb8 S24'
_cell_volume   942.00006694
_cell_formula_units_Z   2
loop_
 _symmetry_equiv_pos_site_id
 _symmetry_equiv_pos_as_xyz
  1  'x, y, z'
loop_
 _atom_site_type_symbol
 _atom_site_label
 _atom_site_symmetry_multiplicity
 _atom_site_fract_x
 _atom_site_fract_y
 _atom_site_fract_z
 _atom_site_occupancy
  Pr  Pr0  1  0.27334306  0.48629052  0.87179074  1
  Pr  Pr1  1  0.72983002  0.49305778  0.13700225  1
  Pr  Pr2  1  0.76599978  0.00999594  0.87260822  1
  Pr  Pr3  1  0.23507379  0.95193537  0.13163645  1
  Mn  Mn4  1  0.30606230  0.43745814  0.61754671  1
  Mn  Mn5  1  0.70897623  0.52981576  0.37054720  1
  Mn  Mn6  1  0.99698117  0.98294731  0.00219390  1
  Mn  Mn7  1  0.79787789  0.02293100  0.62331802  1
  Mn  Mn8  1  0.21196482  0.07822948  0.39332880  1
  Mn  Mn9  1  0.49814549  0.49453550  0.99259425  1
  Sb  Sb10  1  0.88520352  0.88410842  0.45854174  1
  Sb  Sb11  1  0.10968941  0.99542661  0.54021038  1
  Sb  Sb12  1  0.03430569  0.49078085  0.82488587  1
  Sb  Sb13  1  0.96159029  0.48355019  0.19807350  1
  Sb  Sb14  1  0.40599462  0.58704158  0.46584244  1
  Sb  Sb15  1  0.60818207  0.57227499  0.53499583  1
  Sb  Sb16  1  0.52629130  0.95756389  0.80312016  1
  Sb  Sb17  1  0.46961365  0.98538041  0.19461562  1
  S  S18  1  0.93803963  0.99664405  0.80854597  1
  S  S19  1  0.06920639  0.02148010  0.21456492  1
  S  S20  1  0.41491639  0.95915165  0.98584837  1
  S  S21  1  0.58163831  0.99391859  0.00480918  1
  S  S22  1  0.17334169  0.94059167  0.89867694  1
  S  S23  1  0.83258521  0.02641371  0.11647673  1
  S  S24  1  0.09849380  0.47627027  0.64514807  1
  S  S25  1  0.91116031  0.46106024  0.36128128  1
  S  S26  1  0.73673969  0.04174039  0.31285332  1
  S  S27  1  0.26139729  0.96491728  0.68486646  1
  S  S28  1  0.18421942  0.54274522  0.45838107  1
  S  S29  1  0.81857115  0.51179885  0.55764163  1
  S  S30  1  0.43585314  0.45986497  0.80611815  1
  S  S31  1  0.55441872  0.47007217  0.18268213  1
  S  S32  1  0.91717723  0.51034644  0.99277610  1
  S  S33  1  0.08320680  0.48203402  0.02315159  1
  S  S34  1  0.65637602  0.49587273  0.87878398  1
  S  S35  1  0.33219230  0.47175843  0.09931502  1
  S  S36  1  0.59896009  0.99851701  0.64411504  1
  S  S37  1  0.40453784  0.06151499  0.35085404  1
  S  S38  1  0.24292889  0.53222518  0.32197456  1
  S  S39  1  0.76242043  0.41776283  0.70001413  1
  S  S40  1  0.66766319  0.96320677  0.44907734  1
  S  S41  1  0.33692415  0.94273550  0.55444685  1
