# generated using pymatgen
data_Pr2Mn3(SbS3)4
_symmetry_space_group_name_H-M   'P 1'
_cell_length_a   20.02960800
_cell_length_b   3.90410600
_cell_length_c   14.95364829
_cell_angle_alpha   90.00000000
_cell_angle_beta   126.33350609
_cell_angle_gamma   90.00000000
_symmetry_Int_Tables_number   1
_chemical_formula_structural   Pr2Mn3(SbS3)4
_chemical_formula_sum   'Pr4 Mn6 Sb8 S24'
_cell_volume   942.00006694
_cell_formula_units_Z   2
loop_
 _symmetry_equiv_pos_site_id
 _symmetry_equiv_pos_as_xyz
  1  'x, y, z'
loop_
 _atom_site_type_symbol
 _atom_site_label
 _atom_site_symmetry_multiplicity
 _atom_site_fract_x
 _atom_site_fract_y
 _atom_site_fract_z
 _atom_site_occupancy
  Pr  Pr0  1  0.27334034  0.48644503  0.87172206  1
  Pr  Pr1  1  0.72989673  0.49299549  0.13713403  1
  Pr  Pr2  1  0.76600718  0.00995051  0.87276426  1
  Pr  Pr3  1  0.23520440  0.95242994  0.13166901  1
  Mn  Mn4  1  0.30613898  0.43689562  0.61732721  1
  Mn  Mn5  1  0.70872932  0.52977287  0.37038708  1
  Mn  Mn6  1  0.99711537  0.98326807  0.00226773  1
  Mn  Mn7  1  0.79786058  0.02252877  0.62324799  1
  Mn  Mn8  1  0.21173514  0.07787753  0.39311577  1
  Mn  Mn9  1  0.49810609  0.49436320  0.99237815  1
  Sb  Sb10  1  0.88524252  0.88445107  0.45859990  1
  Sb  Sb11  1  0.10965873  0.99541602  0.54014375  1
  Sb  Sb12  1  0.03439384  0.49077647  0.82500119  1
  Sb  Sb13  1  0.96155174  0.48381444  0.19812417  1
  Sb  Sb14  1  0.40603019  0.58710372  0.46587729  1
  Sb  Sb15  1  0.60815823  0.57220532  0.53506770  1
  Sb  Sb16  1  0.52648244  0.95781534  0.80323696  1
  Sb  Sb17  1  0.46974293  0.98582674  0.19459068  1
  S  S18  1  0.93833083  0.99695564  0.80892154  1
  S  S19  1  0.06904523  0.02324366  0.21415703  1
  S  S20  1  0.41478173  0.95975307  0.98563033  1
  S  S21  1  0.58163420  0.99427578  0.00506788  1
  S  S22  1  0.17356771  0.93975186  0.89916745  1
  S  S23  1  0.83233819  0.02536232  0.11602958  1
  S  S24  1  0.09843714  0.47644555  0.64496333  1
  S  S25  1  0.91115945  0.45996311  0.36157024  1
  S  S26  1  0.73655844  0.03999311  0.31258917  1
  S  S27  1  0.26135634  0.96519259  0.68462329  1
  S  S28  1  0.18406254  0.54325181  0.45831328  1
  S  S29  1  0.81878970  0.51398437  0.55782035  1
  S  S30  1  0.43597150  0.46080716  0.80632583  1
  S  S31  1  0.55453237  0.47050609  0.18290598  1
  S  S32  1  0.91721411  0.51005833  0.99276307  1
  S  S33  1  0.08326931  0.48251441  0.02301970  1
  S  S34  1  0.65650164  0.49612797  0.87886779  1
  S  S35  1  0.33187188  0.47213598  0.09908838  1
  S  S36  1  0.59902310  0.99845571  0.64393437  1
  S  S37  1  0.40450009  0.06167663  0.35080706  1
  S  S38  1  0.24312357  0.53224977  0.32206292  1
  S  S39  1  0.76260961  0.41746557  0.70009802  1
  S  S40  1  0.66750627  0.96308953  0.44889403  1
  S  S41  1  0.33694129  0.94455665  0.55409427  1
