# generated using pymatgen
data_Pr2Mn3(SbS3)4
_symmetry_space_group_name_H-M   'P 1'
_cell_length_a   20.02960800
_cell_length_b   3.90410600
_cell_length_c   14.95364829
_cell_angle_alpha   90.00000000
_cell_angle_beta   126.33350609
_cell_angle_gamma   90.00000000
_symmetry_Int_Tables_number   1
_chemical_formula_structural   Pr2Mn3(SbS3)4
_chemical_formula_sum   'Pr4 Mn6 Sb8 S24'
_cell_volume   942.00006694
_cell_formula_units_Z   2
loop_
 _symmetry_equiv_pos_site_id
 _symmetry_equiv_pos_as_xyz
  1  'x, y, z'
loop_
 _atom_site_type_symbol
 _atom_site_label
 _atom_site_symmetry_multiplicity
 _atom_site_fract_x
 _atom_site_fract_y
 _atom_site_fract_z
 _atom_site_occupancy
  Pr  Pr0  1  0.27330643  0.48660023  0.87155909  1
  Pr  Pr1  1  0.72996743  0.49281744  0.13721981  1
  Pr  Pr2  1  0.76601876  0.00972555  0.87300383  1
  Pr  Pr3  1  0.23536452  0.95271890  0.13176362  1
  Mn  Mn4  1  0.30618966  0.43651044  0.61703846  1
  Mn  Mn5  1  0.70850490  0.52991095  0.37029491  1
  Mn  Mn6  1  0.99727029  0.98369032  0.00237795  1
  Mn  Mn7  1  0.79784402  0.02187644  0.62324824  1
  Mn  Mn8  1  0.21157628  0.07760610  0.39296757  1
  Mn  Mn9  1  0.49801075  0.49446644  0.99210892  1
  Sb  Sb10  1  0.88532323  0.88477720  0.45866691  1
  Sb  Sb11  1  0.10962407  0.99538310  0.54005814  1
  Sb  Sb12  1  0.03447625  0.49073939  0.82506257  1
  Sb  Sb13  1  0.96146661  0.48416695  0.19811783  1
  Sb  Sb14  1  0.40606457  0.58683162  0.46592528  1
  Sb  Sb15  1  0.60811243  0.57221787  0.53514366  1
  Sb  Sb16  1  0.52659137  0.95808781  0.80331436  1
  Sb  Sb17  1  0.46987182  0.98617868  0.19457089  1
  S  S18  1  0.93864777  0.99680395  0.80929107  1
  S  S19  1  0.06889241  0.02522912  0.21377022  1
  S  S20  1  0.41466283  0.95997401  0.98547807  1
  S  S21  1  0.58157226  0.99453544  0.00527207  1
  S  S22  1  0.17381788  0.93976553  0.89962366  1
  S  S23  1  0.83209376  0.02418499  0.11560671  1
  S  S24  1  0.09837380  0.47679042  0.64483140  1
  S  S25  1  0.91111811  0.45892494  0.36188714  1
  S  S26  1  0.73629736  0.03844308  0.31240694  1
  S  S27  1  0.26131266  0.96567511  0.68431355  1
  S  S28  1  0.18387748  0.54325278  0.45823214  1
  S  S29  1  0.81889691  0.51607550  0.55784259  1
  S  S30  1  0.43607965  0.46101842  0.80646941  1
  S  S31  1  0.55488965  0.47160678  0.18323290  1
  S  S32  1  0.91717779  0.50971980  0.99269024  1
  S  S33  1  0.08330526  0.48303325  0.02283210  1
  S  S34  1  0.65661044  0.49631803  0.87897196  1
  S  S35  1  0.33163020  0.47208229  0.09898032  1
  S  S36  1  0.59900933  0.99907926  0.64371370  1
  S  S37  1  0.40443890  0.06181010  0.35063388  1
  S  S38  1  0.24312282  0.53215581  0.32209982  1
  S  S39  1  0.76278864  0.41719153  0.70019116  1
  S  S40  1  0.66741166  0.96329598  0.44881049  1
  S  S41  1  0.33697762  0.94612384  0.55379694  1
