# generated using pymatgen
data_Pr2Mn3(SbS3)4
_symmetry_space_group_name_H-M   'P 1'
_cell_length_a   20.02960800
_cell_length_b   3.90410600
_cell_length_c   14.95364829
_cell_angle_alpha   90.00000000
_cell_angle_beta   126.33350609
_cell_angle_gamma   90.00000000
_symmetry_Int_Tables_number   1
_chemical_formula_structural   Pr2Mn3(SbS3)4
_chemical_formula_sum   'Pr4 Mn6 Sb8 S24'
_cell_volume   942.00006694
_cell_formula_units_Z   2
loop_
 _symmetry_equiv_pos_site_id
 _symmetry_equiv_pos_as_xyz
  1  'x, y, z'
loop_
 _atom_site_type_symbol
 _atom_site_label
 _atom_site_symmetry_multiplicity
 _atom_site_fract_x
 _atom_site_fract_y
 _atom_site_fract_z
 _atom_site_occupancy
  Pr  Pr0  1  0.27321534  0.48659060  0.87131615  1
  Pr  Pr1  1  0.73005589  0.49248715  0.13727952  1
  Pr  Pr2  1  0.76599702  0.00956193  0.87319678  1
  Pr  Pr3  1  0.23544931  0.95295564  0.13179919  1
  Mn  Mn4  1  0.30618354  0.43613573  0.61670274  1
  Mn  Mn5  1  0.70827545  0.53006290  0.37009913  1
  Mn  Mn6  1  0.99738057  0.98416494  0.00244944  1
  Mn  Mn7  1  0.79781053  0.02150290  0.62313125  1
  Mn  Mn8  1  0.21141225  0.07744177  0.39278255  1
  Mn  Mn9  1  0.49792338  0.49447943  0.99195459  1
  Sb  Sb10  1  0.88541568  0.88504884  0.45871316  1
  Sb  Sb11  1  0.10956088  0.99540273  0.53993229  1
  Sb  Sb12  1  0.03454638  0.49065868  0.82511578  1
  Sb  Sb13  1  0.96139527  0.48447776  0.19809900  1
  Sb  Sb14  1  0.40607595  0.58657601  0.46597428  1
  Sb  Sb15  1  0.60814156  0.57254614  0.53524557  1
  Sb  Sb16  1  0.52666660  0.95831970  0.80338696  1
  Sb  Sb17  1  0.46997854  0.98652236  0.19455472  1
  S  S18  1  0.93893877  0.99629114  0.80960137  1
  S  S19  1  0.06886174  0.02677628  0.21359266  1
  S  S20  1  0.41459199  0.96122295  0.98546327  1
  S  S21  1  0.58158623  0.99517360  0.00553464  1
  S  S22  1  0.17402605  0.94009086  0.90001002  1
  S  S23  1  0.83187756  0.02319381  0.11531578  1
  S  S24  1  0.09821114  0.47725760  0.64461396  1
  S  S25  1  0.91107064  0.45752420  0.36213704  1
  S  S26  1  0.73606493  0.03676870  0.31223094  1
  S  S27  1  0.26125030  0.96582430  0.68400820  1
  S  S28  1  0.18371351  0.54315296  0.45816350  1
  S  S29  1  0.81899218  0.51812397  0.55795016  1
  S  S30  1  0.43629694  0.46099727  0.80679530  1
  S  S31  1  0.55530251  0.47226091  0.18365263  1
  S  S32  1  0.91717267  0.50914099  0.99249850  1
  S  S33  1  0.08327787  0.48347490  0.02269002  1
  S  S34  1  0.65671701  0.49660617  0.87909649  1
  S  S35  1  0.33155494  0.47242449  0.09891636  1
  S  S36  1  0.59892314  0.99959727  0.64339469  1
  S  S37  1  0.40435886  0.06202962  0.35064418  1
  S  S38  1  0.24319320  0.53181752  0.32207720  1
  S  S39  1  0.76286915  0.41678544  0.70005529  1
  S  S40  1  0.66729442  0.96367362  0.44875618  1
  S  S41  1  0.33690927  0.94749105  0.55339962  1
