# generated using pymatgen
data_Pr2Mn3(SbS3)4
_symmetry_space_group_name_H-M   'P 1'
_cell_length_a   20.02960800
_cell_length_b   3.90410600
_cell_length_c   14.95364829
_cell_angle_alpha   90.00000000
_cell_angle_beta   126.33350609
_cell_angle_gamma   90.00000000
_symmetry_Int_Tables_number   1
_chemical_formula_structural   Pr2Mn3(SbS3)4
_chemical_formula_sum   'Pr4 Mn6 Sb8 S24'
_cell_volume   942.00006694
_cell_formula_units_Z   2
loop_
 _symmetry_equiv_pos_site_id
 _symmetry_equiv_pos_as_xyz
  1  'x, y, z'
loop_
 _atom_site_type_symbol
 _atom_site_label
 _atom_site_symmetry_multiplicity
 _atom_site_fract_x
 _atom_site_fract_y
 _atom_site_fract_z
 _atom_site_occupancy
  Pr  Pr0  1  0.27311597  0.48676344  0.87107228  1
  Pr  Pr1  1  0.73015627  0.49190066  0.13728121  1
  Pr  Pr2  1  0.76593944  0.00926828  0.87333087  1
  Pr  Pr3  1  0.23553929  0.95313062  0.13180746  1
  Mn  Mn4  1  0.30614789  0.43600126  0.61642005  1
  Mn  Mn5  1  0.70811826  0.53023752  0.36987701  1
  Mn  Mn6  1  0.99751511  0.98440017  0.00254947  1
  Mn  Mn7  1  0.79779364  0.02074195  0.62299546  1
  Mn  Mn8  1  0.21129493  0.07729635  0.39264720  1
  Mn  Mn9  1  0.49781044  0.49475467  0.99197815  1
  Sb  Sb10  1  0.88554615  0.88541881  0.45877026  1
  Sb  Sb11  1  0.10947910  0.99529739  0.53982156  1
  Sb  Sb12  1  0.03457153  0.49035515  0.82508496  1
  Sb  Sb13  1  0.96129455  0.48469453  0.19802012  1
  Sb  Sb14  1  0.40607743  0.58644057  0.46602467  1
  Sb  Sb15  1  0.60818672  0.57290178  0.53531255  1
  Sb  Sb16  1  0.52672731  0.95867461  0.80344469  1
  Sb  Sb17  1  0.47007548  0.98687482  0.19460036  1
  S  S18  1  0.93916569  0.99609596  0.80988781  1
  S  S19  1  0.06883175  0.02804095  0.21338494  1
  S  S20  1  0.41467405  0.96293511  0.98568134  1
  S  S21  1  0.58167699  0.99511522  0.00583198  1
  S  S22  1  0.17426032  0.93993027  0.90033266  1
  S  S23  1  0.83171044  0.02202238  0.11503836  1
  S  S24  1  0.09812807  0.47763230  0.64451040  1
  S  S25  1  0.91099816  0.45619847  0.36242550  1
  S  S26  1  0.73589586  0.03499114  0.31213054  1
  S  S27  1  0.26125269  0.96601435  0.68376975  1
  S  S28  1  0.18356245  0.54305221  0.45794339  1
  S  S29  1  0.81913616  0.51964842  0.55798692  1
  S  S30  1  0.43651886  0.46179521  0.80702614  1
  S  S31  1  0.55559006  0.47220284  0.18396292  1
  S  S32  1  0.91723510  0.50887253  0.99237065  1
  S  S33  1  0.08326602  0.48394717  0.02246244  1
  S  S34  1  0.65681228  0.49705190  0.87926281  1
  S  S35  1  0.33163529  0.47224725  0.09896639  1
  S  S36  1  0.59884424  0.99982696  0.64311639  1
  S  S37  1  0.40422302  0.06252514  0.35056809  1
  S  S38  1  0.24338135  0.53134117  0.32219382  1
  S  S39  1  0.76298927  0.41640905  0.70001499  1
  S  S40  1  0.66708745  0.96330218  0.44859724  1
  S  S41  1  0.33683101  0.94907051  0.55311444  1
