# generated using pymatgen
data_Pr2Mn3(SbS3)4
_symmetry_space_group_name_H-M   'P 1'
_cell_length_a   20.02960800
_cell_length_b   3.90410600
_cell_length_c   14.95364829
_cell_angle_alpha   90.00000000
_cell_angle_beta   126.33350609
_cell_angle_gamma   90.00000000
_symmetry_Int_Tables_number   1
_chemical_formula_structural   Pr2Mn3(SbS3)4
_chemical_formula_sum   'Pr4 Mn6 Sb8 S24'
_cell_volume   942.00006694
_cell_formula_units_Z   2
loop_
 _symmetry_equiv_pos_site_id
 _symmetry_equiv_pos_as_xyz
  1  'x, y, z'
loop_
 _atom_site_type_symbol
 _atom_site_label
 _atom_site_symmetry_multiplicity
 _atom_site_fract_x
 _atom_site_fract_y
 _atom_site_fract_z
 _atom_site_occupancy
  Pr  Pr0  1  0.27304574  0.48709887  0.87089839  1
  Pr  Pr1  1  0.73029430  0.49118164  0.13733796  1
  Pr  Pr2  1  0.76587378  0.00909192  0.87343383  1
  Pr  Pr3  1  0.23560266  0.95318523  0.13182581  1
  Mn  Mn4  1  0.30610001  0.43587476  0.61623297  1
  Mn  Mn5  1  0.70799003  0.53062819  0.36966227  1
  Mn  Mn6  1  0.99769909  0.98498057  0.00266112  1
  Mn  Mn7  1  0.79780132  0.02052061  0.62301284  1
  Mn  Mn8  1  0.21102442  0.07705886  0.39235327  1
  Mn  Mn9  1  0.49771675  0.49471966  0.99200881  1
  Sb  Sb10  1  0.88569048  0.88548620  0.45883007  1
  Sb  Sb11  1  0.10941082  0.99504725  0.53967532  1
  Sb  Sb12  1  0.03457675  0.49004391  0.82509286  1
  Sb  Sb13  1  0.96114582  0.48460367  0.19787022  1
  Sb  Sb14  1  0.40607948  0.58612881  0.46609540  1
  Sb  Sb15  1  0.60822155  0.57320811  0.53539152  1
  Sb  Sb16  1  0.52686161  0.95884845  0.80356992  1
  Sb  Sb17  1  0.47010696  0.98711250  0.19460573  1
  S  S18  1  0.93933476  0.99572820  0.81006308  1
  S  S19  1  0.06871241  0.02890313  0.21308749  1
  S  S20  1  0.41453876  0.96505546  0.98570977  1
  S  S21  1  0.58180603  0.99477880  0.00614637  1
  S  S22  1  0.17436790  0.94045708  0.90062004  1
  S  S23  1  0.83151220  0.02104702  0.11476965  1
  S  S24  1  0.09820924  0.47769797  0.64449019  1
  S  S25  1  0.91087821  0.45503982  0.36264926  1
  S  S26  1  0.73574972  0.03367586  0.31200137  1
  S  S27  1  0.26127022  0.96572848  0.68351083  1
  S  S28  1  0.18346538  0.54347216  0.45782022  1
  S  S29  1  0.81929981  0.52073621  0.55805401  1
  S  S30  1  0.43671317  0.46245817  0.80732854  1
  S  S31  1  0.55583746  0.47219241  0.18433314  1
  S  S32  1  0.91736989  0.50878192  0.99237087  1
  S  S33  1  0.08320040  0.48448277  0.02231065  1
  S  S34  1  0.65687724  0.49750229  0.87932357  1
  S  S35  1  0.33159260  0.47179844  0.09891079  1
  S  S36  1  0.59885892  0.00020800  0.64299054  1
  S  S37  1  0.40399775  0.06301368  0.35032825  1
  S  S38  1  0.24350882  0.53097019  0.32220461  1
  S  S39  1  0.76297198  0.41586217  0.69984517  1
  S  S40  1  0.66690076  0.96320380  0.44843313  1
  S  S41  1  0.33673716  0.95038731  0.55294600  1
