# generated using pymatgen
data_Pr2Mn3(SbS3)4
_symmetry_space_group_name_H-M   'P 1'
_cell_length_a   20.02960800
_cell_length_b   3.90410600
_cell_length_c   14.95364829
_cell_angle_alpha   90.00000000
_cell_angle_beta   126.33350609
_cell_angle_gamma   90.00000000
_symmetry_Int_Tables_number   1
_chemical_formula_structural   Pr2Mn3(SbS3)4
_chemical_formula_sum   'Pr4 Mn6 Sb8 S24'
_cell_volume   942.00006694
_cell_formula_units_Z   2
loop_
 _symmetry_equiv_pos_site_id
 _symmetry_equiv_pos_as_xyz
  1  'x, y, z'
loop_
 _atom_site_type_symbol
 _atom_site_label
 _atom_site_symmetry_multiplicity
 _atom_site_fract_x
 _atom_site_fract_y
 _atom_site_fract_z
 _atom_site_occupancy
  Pr  Pr0  1  0.27300585  0.48753401  0.87077350  1
  Pr  Pr1  1  0.73039153  0.49065538  0.13735062  1
  Pr  Pr2  1  0.76585274  0.00891833  0.87353746  1
  Pr  Pr3  1  0.23564842  0.95338281  0.13183619  1
  Mn  Mn4  1  0.30611149  0.43596993  0.61615960  1
  Mn  Mn5  1  0.70788993  0.53112662  0.36939979  1
  Mn  Mn6  1  0.99783436  0.98542082  0.00277305  1
  Mn  Mn7  1  0.79784031  0.02079018  0.62306252  1
  Mn  Mn8  1  0.21076260  0.07667428  0.39205144  1
  Mn  Mn9  1  0.49773530  0.49455253  0.99217354  1
  Sb  Sb10  1  0.88571548  0.88529921  0.45881089  1
  Sb  Sb11  1  0.10933179  0.99492140  0.53954648  1
  Sb  Sb12  1  0.03460824  0.48980384  0.82515522  1
  Sb  Sb13  1  0.96097150  0.48424594  0.19774356  1
  Sb  Sb14  1  0.40610008  0.58583646  0.46614013  1
  Sb  Sb15  1  0.60819127  0.57340363  0.53541064  1
  Sb  Sb16  1  0.52701138  0.95883661  0.80375520  1
  Sb  Sb17  1  0.47009879  0.98724931  0.19459730  1
  S  S18  1  0.93966159  0.99563703  0.81050407  1
  S  S19  1  0.06854541  0.02952320  0.21269329  1
  S  S20  1  0.41434655  0.96696655  0.98570097  1
  S  S21  1  0.58206566  0.99438615  0.00658989  1
  S  S22  1  0.17449858  0.94132813  0.90095194  1
  S  S23  1  0.83121369  0.02025492  0.11448023  1
  S  S24  1  0.09813369  0.47742821  0.64424486  1
  S  S25  1  0.91081953  0.45372339  0.36285939  1
  S  S26  1  0.73557640  0.03295234  0.31188124  1
  S  S27  1  0.26126374  0.96608305  0.68325568  1
  S  S28  1  0.18338370  0.54310621  0.45756129  1
  S  S29  1  0.81938410  0.52158803  0.55800369  1
  S  S30  1  0.43690489  0.46251157  0.80768152  1
  S  S31  1  0.55612168  0.47234085  0.18445439  1
  S  S32  1  0.91750838  0.50832199  0.99250859  1
  S  S33  1  0.08308182  0.48466575  0.02215755  1
  S  S34  1  0.65684300  0.49765408  0.87924800  1
  S  S35  1  0.33153822  0.47194537  0.09895490  1
  S  S36  1  0.59879080  0.00051302  0.64271506  1
  S  S37  1  0.40380449  0.06303087  0.35005212  1
  S  S38  1  0.24360750  0.53030191  0.32216270  1
  S  S39  1  0.76288072  0.41528235  0.69975389  1
  S  S40  1  0.66668534  0.96326959  0.44816661  1
  S  S41  1  0.33668139  0.95163772  0.55264688  1
