# generated using pymatgen
data_Pr2Mn3(SbS3)4
_symmetry_space_group_name_H-M   'P 1'
_cell_length_a   20.02960800
_cell_length_b   3.90410600
_cell_length_c   14.95364829
_cell_angle_alpha   90.00000000
_cell_angle_beta   126.33350609
_cell_angle_gamma   90.00000000
_symmetry_Int_Tables_number   1
_chemical_formula_structural   Pr2Mn3(SbS3)4
_chemical_formula_sum   'Pr4 Mn6 Sb8 S24'
_cell_volume   942.00006694
_cell_formula_units_Z   2
loop_
 _symmetry_equiv_pos_site_id
 _symmetry_equiv_pos_as_xyz
  1  'x, y, z'
loop_
 _atom_site_type_symbol
 _atom_site_label
 _atom_site_symmetry_multiplicity
 _atom_site_fract_x
 _atom_site_fract_y
 _atom_site_fract_z
 _atom_site_occupancy
  Pr  Pr0  1  0.26656911  0.48459328  0.86379484  1
  Pr  Pr1  1  0.73593432  0.51311419  0.13567309  1
  Pr  Pr2  1  0.76294196  0.01458371  0.86261734  1
  Pr  Pr3  1  0.23563246  0.00627780  0.13653436  1
  Mn  Mn4  1  0.28966186  0.47675010  0.59757743  1
  Mn  Mn5  1  0.68998947  0.49491347  0.37439615  1
  Mn  Mn6  1  0.00883421  0.98974848  0.01788826  1
  Mn  Mn7  1  0.80417974  0.01510273  0.61637481  1
  Mn  Mn8  1  0.19812608  0.98070362  0.37760480  1
  Mn  Mn9  1  0.49309995  0.47571002  0.99011360  1
  Sb  Sb10  1  0.88988923  0.98175460  0.44979213  1
  Sb  Sb11  1  0.11244647  0.97555570  0.54777394  1
  Sb  Sb12  1  0.04049852  0.51981485  0.82269862  1
  Sb  Sb13  1  0.96478855  0.50018569  0.18377688  1
  Sb  Sb14  1  0.39615885  0.50714202  0.45238509  1
  Sb  Sb15  1  0.60565246  0.47235541  0.54711239  1
  Sb  Sb16  1  0.53368260  0.99971599  0.80950686  1
  Sb  Sb17  1  0.46232787  0.01594762  0.18430221  1
  S  S18  1  0.93780124  0.99556474  0.80494162  1
  S  S19  1  0.06667497  0.98403769  0.20004105  1
  S  S20  1  0.40941236  0.97105324  0.98145251  1
  S  S21  1  0.57956982  0.99530558  0.00989164  1
  S  S22  1  0.17181595  0.02728530  0.89971255  1
  S  S23  1  0.82411205  0.04832126  0.09605376  1
  S  S24  1  0.09584400  0.47793727  0.64673924  1
  S  S25  1  0.91206790  0.47790820  0.35486582  1
  S  S26  1  0.74091493  0.94692062  0.30284854  1
  S  S27  1  0.26331305  0.00500114  0.71039958  1
  S  S28  1  0.15821778  0.48193070  0.42979442  1
  S  S29  1  0.82591811  0.48582167  0.54867390  1
  S  S30  1  0.43237596  0.49815348  0.79981500  1
  S  S31  1  0.55926775  0.51026344  0.18411814  1
  S  S32  1  0.90973860  0.48521298  0.98765410  1
  S  S33  1  0.08965603  0.46528822  0.02395542  1
  S  S34  1  0.66453392  0.51009633  0.88608494  1
  S  S35  1  0.33090545  0.51206892  0.09602989  1
  S  S36  1  0.59565702  0.98300171  0.65382329  1
  S  S37  1  0.40571906  0.98513589  0.35082062  1
  S  S38  1  0.24066305  0.46183614  0.30978451  1
  S  S39  1  0.76286244  0.50112511  0.69933699  1
  S  S40  1  0.66834198  0.02783230  0.45498699  1
  S  S41  1  0.32249119  0.97325043  0.54849319  1
