# generated using pymatgen
data_Pr2Mn3(SbS3)4
_symmetry_space_group_name_H-M   'P 1'
_cell_length_a   20.02960800
_cell_length_b   3.90410600
_cell_length_c   14.95364829
_cell_angle_alpha   90.00000000
_cell_angle_beta   126.33350609
_cell_angle_gamma   90.00000000
_symmetry_Int_Tables_number   1
_chemical_formula_structural   Pr2Mn3(SbS3)4
_chemical_formula_sum   'Pr4 Mn6 Sb8 S24'
_cell_volume   942.00006694
_cell_formula_units_Z   2
loop_
 _symmetry_equiv_pos_site_id
 _symmetry_equiv_pos_as_xyz
  1  'x, y, z'
loop_
 _atom_site_type_symbol
 _atom_site_label
 _atom_site_symmetry_multiplicity
 _atom_site_fract_x
 _atom_site_fract_y
 _atom_site_fract_z
 _atom_site_occupancy
  Pr  Pr0  1  0.27296828  0.48775424  0.87060191  1
  Pr  Pr1  1  0.73051698  0.49024519  0.13743652  1
  Pr  Pr2  1  0.76584394  0.00870980  0.87361582  1
  Pr  Pr3  1  0.23572643  0.95333289  0.13186542  1
  Mn  Mn4  1  0.30612162  0.43606377  0.61613843  1
  Mn  Mn5  1  0.70777043  0.53166748  0.36912414  1
  Mn  Mn6  1  0.99776048  0.98600953  0.00263025  1
  Mn  Mn7  1  0.79782158  0.02054845  0.62297882  1
  Mn  Mn8  1  0.21062376  0.07605920  0.39193395  1
  Mn  Mn9  1  0.49776844  0.49432712  0.99222375  1
  Sb  Sb10  1  0.88571810  0.88530604  0.45878249  1
  Sb  Sb11  1  0.10925203  0.99484586  0.53938339  1
  Sb  Sb12  1  0.03466038  0.48957996  0.82523609  1
  Sb  Sb13  1  0.96086458  0.48383902  0.19765436  1
  Sb  Sb14  1  0.40614797  0.58537985  0.46618568  1
  Sb  Sb15  1  0.60810801  0.57354739  0.53539947  1
  Sb  Sb16  1  0.52711880  0.95888988  0.80386027  1
  Sb  Sb17  1  0.47008800  0.98719164  0.19462959  1
  S  S18  1  0.93992144  0.99490598  0.81089708  1
  S  S19  1  0.06830237  0.02984213  0.21230488  1
  S  S20  1  0.41426456  0.96851861  0.98592688  1
  S  S21  1  0.58227025  0.99437300  0.00692919  1
  S  S22  1  0.17453802  0.94199082  0.90117770  1
  S  S23  1  0.83091521  0.01946859  0.11419575  1
  S  S24  1  0.09805974  0.47706208  0.64408349  1
  S  S25  1  0.91068019  0.45201838  0.36305333  1
  S  S26  1  0.73539247  0.03268559  0.31168274  1
  S  S27  1  0.26139929  0.96607593  0.68308419  1
  S  S28  1  0.18327861  0.54285282  0.45734833  1
  S  S29  1  0.81951186  0.52278957  0.55808531  1
  S  S30  1  0.43703087  0.46260014  0.80791636  1
  S  S31  1  0.55644381  0.47186395  0.18467095  1
  S  S32  1  0.91772996  0.50746407  0.99283796  1
  S  S33  1  0.08293492  0.48477646  0.02198539  1
  S  S34  1  0.65676843  0.49743091  0.87915876  1
  S  S35  1  0.33157040  0.47204816  0.09906129  1
  S  S36  1  0.59865681  0.00050365  0.64251730  1
  S  S37  1  0.40368137  0.06259516  0.34990562  1
  S  S38  1  0.24366064  0.53008479  0.32208562  1
  S  S39  1  0.76290377  0.41522594  0.69972782  1
  S  S40  1  0.66650532  0.96327264  0.44800032  1
  S  S41  1  0.33656079  0.95257546  0.55233143  1
