# generated using pymatgen
data_Pr2Mn3(SbS3)4
_symmetry_space_group_name_H-M   'P 1'
_cell_length_a   20.02960800
_cell_length_b   3.90410600
_cell_length_c   14.95364829
_cell_angle_alpha   90.00000000
_cell_angle_beta   126.33350609
_cell_angle_gamma   90.00000000
_symmetry_Int_Tables_number   1
_chemical_formula_structural   Pr2Mn3(SbS3)4
_chemical_formula_sum   'Pr4 Mn6 Sb8 S24'
_cell_volume   942.00006694
_cell_formula_units_Z   2
loop_
 _symmetry_equiv_pos_site_id
 _symmetry_equiv_pos_as_xyz
  1  'x, y, z'
loop_
 _atom_site_type_symbol
 _atom_site_label
 _atom_site_symmetry_multiplicity
 _atom_site_fract_x
 _atom_site_fract_y
 _atom_site_fract_z
 _atom_site_occupancy
  Pr  Pr0  1  0.27294723  0.48795856  0.87046150  1
  Pr  Pr1  1  0.73060367  0.48968922  0.13756900  1
  Pr  Pr2  1  0.76581985  0.00849291  0.87368518  1
  Pr  Pr3  1  0.23577191  0.95307727  0.13186858  1
  Mn  Mn4  1  0.30615917  0.43581100  0.61605196  1
  Mn  Mn5  1  0.70772283  0.53228438  0.36886516  1
  Mn  Mn6  1  0.99768728  0.98646304  0.00244556  1
  Mn  Mn7  1  0.79774779  0.02048804  0.62282220  1
  Mn  Mn8  1  0.21048558  0.07568566  0.39189517  1
  Mn  Mn9  1  0.49773640  0.49356484  0.99223343  1
  Sb  Sb10  1  0.88575645  0.88533388  0.45881549  1
  Sb  Sb11  1  0.10918180  0.99453887  0.53935301  1
  Sb  Sb12  1  0.03466665  0.48961288  0.82525997  1
  Sb  Sb13  1  0.96076873  0.48375494  0.19760699  1
  Sb  Sb14  1  0.40614200  0.58525188  0.46617191  1
  Sb  Sb15  1  0.60793843  0.57390709  0.53527108  1
  Sb  Sb16  1  0.52727284  0.95908125  0.80404226  1
  Sb  Sb17  1  0.47006276  0.98710477  0.19467780  1
  S  S18  1  0.94027919  0.99388744  0.81128699  1
  S  S19  1  0.06795820  0.03024555  0.21188754  1
  S  S20  1  0.41407354  0.96991372  0.98608901  1
  S  S21  1  0.58242707  0.99445679  0.00718094  1
  S  S22  1  0.17468005  0.94242876  0.90139600  1
  S  S23  1  0.83070753  0.01889774  0.11395909  1
  S  S24  1  0.09798453  0.47742758  0.64389626  1
  S  S25  1  0.91048622  0.45059328  0.36312646  1
  S  S26  1  0.73527037  0.03221909  0.31154456  1
  S  S27  1  0.26148829  0.96582143  0.68297781  1
  S  S28  1  0.18312464  0.54240773  0.45686464  1
  S  S29  1  0.81955367  0.52356764  0.55794852  1
  S  S30  1  0.43714083  0.46312638  0.80809331  1
  S  S31  1  0.55689380  0.47201748  0.18502166  1
  S  S32  1  0.91797405  0.50673725  0.99317674  1
  S  S33  1  0.08267204  0.48470904  0.02159777  1
  S  S34  1  0.65677316  0.49684566  0.87918981  1
  S  S35  1  0.33164405  0.47184542  0.09923536  1
  S  S36  1  0.59850997  0.00068694  0.64242880  1
  S  S37  1  0.40366878  0.06176737  0.34983181  1
  S  S38  1  0.24385398  0.52998419  0.32212703  1
  S  S39  1  0.76293682  0.41560489  0.69963065  1
  S  S40  1  0.66639257  0.96352826  0.44784358  1
  S  S41  1  0.33648044  0.95295061  0.55192032  1
