# generated using pymatgen
data_Pr2Mn3(SbS3)4
_symmetry_space_group_name_H-M   'P 1'
_cell_length_a   20.02960800
_cell_length_b   3.90410600
_cell_length_c   14.95364829
_cell_angle_alpha   90.00000000
_cell_angle_beta   126.33350609
_cell_angle_gamma   90.00000000
_symmetry_Int_Tables_number   1
_chemical_formula_structural   Pr2Mn3(SbS3)4
_chemical_formula_sum   'Pr4 Mn6 Sb8 S24'
_cell_volume   942.00006694
_cell_formula_units_Z   2
loop_
 _symmetry_equiv_pos_site_id
 _symmetry_equiv_pos_as_xyz
  1  'x, y, z'
loop_
 _atom_site_type_symbol
 _atom_site_label
 _atom_site_symmetry_multiplicity
 _atom_site_fract_x
 _atom_site_fract_y
 _atom_site_fract_z
 _atom_site_occupancy
  Pr  Pr0  1  0.27299216  0.48794656  0.87045649  1
  Pr  Pr1  1  0.73065827  0.48896940  0.13764002  1
  Pr  Pr2  1  0.76581576  0.00820886  0.87374951  1
  Pr  Pr3  1  0.23579951  0.95269100  0.13188831  1
  Mn  Mn4  1  0.30614351  0.43529355  0.61589489  1
  Mn  Mn5  1  0.70765829  0.53260283  0.36870342  1
  Mn  Mn6  1  0.99769204  0.98734488  0.00232513  1
  Mn  Mn7  1  0.79772258  0.02099802  0.62276673  1
  Mn  Mn8  1  0.21030722  0.07550695  0.39172177  1
  Mn  Mn9  1  0.49764042  0.49271096  0.99206508  1
  Sb  Sb10  1  0.88578254  0.88533867  0.45884782  1
  Sb  Sb11  1  0.10907846  0.99414630  0.53929249  1
  Sb  Sb12  1  0.03471306  0.48984061  0.82532120  1
  Sb  Sb13  1  0.96068414  0.48376240  0.19760543  1
  Sb  Sb14  1  0.40614950  0.58508041  0.46613484  1
  Sb  Sb15  1  0.60780230  0.57448226  0.53504254  1
  Sb  Sb16  1  0.52740274  0.95925828  0.80420673  1
  Sb  Sb17  1  0.47004973  0.98706377  0.19468005  1
  S  S18  1  0.94067742  0.99318709  0.81179773  1
  S  S19  1  0.06765671  0.03084403  0.21139381  1
  S  S20  1  0.41394955  0.97157433  0.98623667  1
  S  S21  1  0.58250844  0.99501858  0.00749359  1
  S  S22  1  0.17471215  0.94285678  0.90144400  1
  S  S23  1  0.83050692  0.01828867  0.11376439  1
  S  S24  1  0.09791372  0.47779632  0.64356576  1
  S  S25  1  0.91032930  0.44921399  0.36319498  1
  S  S26  1  0.73518156  0.03173837  0.31144555  1
  S  S27  1  0.26151490  0.96518709  0.68285795  1
  S  S28  1  0.18293673  0.54258519  0.45628636  1
  S  S29  1  0.81967556  0.52452832  0.55776333  1
  S  S30  1  0.43711953  0.46317226  0.80822770  1
  S  S31  1  0.55719502  0.47203665  0.18523743  1
  S  S32  1  0.91811862  0.50605217  0.99328957  1
  S  S33  1  0.08247365  0.48454590  0.02123795  1
  S  S34  1  0.65684768  0.49652087  0.87929199  1
  S  S35  1  0.33175371  0.47216172  0.09950653  1
  S  S36  1  0.59837837  0.00070089  0.64236822  1
  S  S37  1  0.40361700  0.06106026  0.34987367  1
  S  S38  1  0.24410811  0.52969557  0.32223048  1
  S  S39  1  0.76281654  0.41544934  0.69940588  1
  S  S40  1  0.66622983  0.96356320  0.44764595  1
  S  S41  1  0.33642268  0.95370477  0.55160675  1
