# generated using pymatgen
data_Pr2Mn3(SbS3)4
_symmetry_space_group_name_H-M   'P 1'
_cell_length_a   20.02960800
_cell_length_b   3.90410600
_cell_length_c   14.95364829
_cell_angle_alpha   90.00000000
_cell_angle_beta   126.33350609
_cell_angle_gamma   90.00000000
_symmetry_Int_Tables_number   1
_chemical_formula_structural   Pr2Mn3(SbS3)4
_chemical_formula_sum   'Pr4 Mn6 Sb8 S24'
_cell_volume   942.00006694
_cell_formula_units_Z   2
loop_
 _symmetry_equiv_pos_site_id
 _symmetry_equiv_pos_as_xyz
  1  'x, y, z'
loop_
 _atom_site_type_symbol
 _atom_site_label
 _atom_site_symmetry_multiplicity
 _atom_site_fract_x
 _atom_site_fract_y
 _atom_site_fract_z
 _atom_site_occupancy
  Pr  Pr0  1  0.27304115  0.48797442  0.87044938  1
  Pr  Pr1  1  0.73074863  0.48827032  0.13777179  1
  Pr  Pr2  1  0.76587383  0.00792699  0.87385173  1
  Pr  Pr3  1  0.23585263  0.95240890  0.13196100  1
  Mn  Mn4  1  0.30616429  0.43473466  0.61580943  1
  Mn  Mn5  1  0.70757092  0.53236780  0.36847452  1
  Mn  Mn6  1  0.99766118  0.98799389  0.00230353  1
  Mn  Mn7  1  0.79759825  0.02157535  0.62264320  1
  Mn  Mn8  1  0.21015697  0.07520486  0.39149643  1
  Mn  Mn9  1  0.49744806  0.49196868  0.99190780  1
  Sb  Sb10  1  0.88584663  0.88539180  0.45892031  1
  Sb  Sb11  1  0.10897465  0.99355538  0.53919243  1
  Sb  Sb12  1  0.03475931  0.49033180  0.82534653  1
  Sb  Sb13  1  0.96055721  0.48392355  0.19756283  1
  Sb  Sb14  1  0.40612590  0.58474839  0.46605687  1
  Sb  Sb15  1  0.60770844  0.57524917  0.53487765  1
  Sb  Sb16  1  0.52751948  0.95939587  0.80428881  1
  Sb  Sb17  1  0.47001558  0.98703307  0.19472944  1
  S  S18  1  0.94110826  0.99253155  0.81228578  1
  S  S19  1  0.06749402  0.03157773  0.21098650  1
  S  S20  1  0.41392093  0.97331489  0.98638841  1
  S  S21  1  0.58256671  0.99551841  0.00776454  1
  S  S22  1  0.17463856  0.94381265  0.90141425  1
  S  S23  1  0.83021645  0.01733830  0.11340125  1
  S  S24  1  0.09771944  0.47805341  0.64322740  1
  S  S25  1  0.91029615  0.44760000  0.36329477  1
  S  S26  1  0.73500762  0.03083770  0.31134167  1
  S  S27  1  0.26159529  0.96466787  0.68273482  1
  S  S28  1  0.18279094  0.54259076  0.45570470  1
  S  S29  1  0.81983500  0.52549707  0.55767815  1
  S  S30  1  0.43707805  0.46322462  0.80844189  1
  S  S31  1  0.55756355  0.47221835  0.18561579  1
  S  S32  1  0.91814294  0.50523398  0.99335795  1
  S  S33  1  0.08237845  0.48458840  0.02090676  1
  S  S34  1  0.65697780  0.49604238  0.87957165  1
  S  S35  1  0.33175816  0.47308013  0.09967966  1
  S  S36  1  0.59816698  0.00103179  0.64229681  1
  S  S37  1  0.40356572  0.06074531  0.34993539  1
  S  S38  1  0.24442459  0.52978098  0.32247529  1
  S  S39  1  0.76275821  0.41556602  0.69925306  1
  S  S40  1  0.66620630  0.96359585  0.44760173  1
  S  S41  1  0.33640991  0.95401622  0.55136761  1
