# generated using pymatgen
data_Pr2Mn3(SbS3)4
_symmetry_space_group_name_H-M   'P 1'
_cell_length_a   20.02960800
_cell_length_b   3.90410600
_cell_length_c   14.95364829
_cell_angle_alpha   90.00000000
_cell_angle_beta   126.33350609
_cell_angle_gamma   90.00000000
_symmetry_Int_Tables_number   1
_chemical_formula_structural   Pr2Mn3(SbS3)4
_chemical_formula_sum   'Pr4 Mn6 Sb8 S24'
_cell_volume   942.00006694
_cell_formula_units_Z   2
loop_
 _symmetry_equiv_pos_site_id
 _symmetry_equiv_pos_as_xyz
  1  'x, y, z'
loop_
 _atom_site_type_symbol
 _atom_site_label
 _atom_site_symmetry_multiplicity
 _atom_site_fract_x
 _atom_site_fract_y
 _atom_site_fract_z
 _atom_site_occupancy
  Pr  Pr0  1  0.27312573  0.48795002  0.87051117  1
  Pr  Pr1  1  0.73085620  0.48771814  0.13792029  1
  Pr  Pr2  1  0.76590817  0.00770201  0.87394327  1
  Pr  Pr3  1  0.23587426  0.95239600  0.13203916  1
  Mn  Mn4  1  0.30607980  0.43402367  0.61567602  1
  Mn  Mn5  1  0.70750596  0.53183047  0.36830327  1
  Mn  Mn6  1  0.99757539  0.98835648  0.00231156  1
  Mn  Mn7  1  0.79750851  0.02213739  0.62253053  1
  Mn  Mn8  1  0.21001827  0.07498124  0.39118262  1
  Mn  Mn9  1  0.49736012  0.49124111  0.99190634  1
  Sb  Sb10  1  0.88587068  0.88541065  0.45895574  1
  Sb  Sb11  1  0.10886670  0.99295210  0.53901928  1
  Sb  Sb12  1  0.03483012  0.49070344  0.82540827  1
  Sb  Sb13  1  0.96048761  0.48363871  0.19755770  1
  Sb  Sb14  1  0.40604621  0.58392001  0.46585232  1
  Sb  Sb15  1  0.60767437  0.57577191  0.53477777  1
  Sb  Sb16  1  0.52762650  0.95938396  0.80434653  1
  Sb  Sb17  1  0.46999051  0.98699652  0.19468727  1
  S  S18  1  0.94157616  0.99193495  0.81275432  1
  S  S19  1  0.06719416  0.03179665  0.21048246  1
  S  S20  1  0.41395814  0.97489638  0.98646682  1
  S  S21  1  0.58279379  0.99621351  0.00805807  1
  S  S22  1  0.17458698  0.94412089  0.90139984  1
  S  S23  1  0.82986288  0.01587492  0.11307830  1
  S  S24  1  0.09750496  0.47840983  0.64297026  1
  S  S25  1  0.91018681  0.44593528  0.36337480  1
  S  S26  1  0.73479942  0.03007624  0.31131405  1
  S  S27  1  0.26166123  0.96379056  0.68252093  1
  S  S28  1  0.18264535  0.54305209  0.45504322  1
  S  S29  1  0.81999093  0.52609880  0.55749979  1
  S  S30  1  0.43698727  0.46358458  0.80863598  1
  S  S31  1  0.55780952  0.47212937  0.18587665  1
  S  S32  1  0.91799679  0.50460207  0.99322102  1
  S  S33  1  0.08231267  0.48464956  0.02066310  1
  S  S34  1  0.65723610  0.49547644  0.87986365  1
  S  S35  1  0.33171469  0.47416314  0.09990550  1
  S  S36  1  0.59788625  0.00144317  0.64214724  1
  S  S37  1  0.40354673  0.06037066  0.34990864  1
  S  S38  1  0.24479940  0.53031929  0.32273450  1
  S  S39  1  0.76267225  0.41610392  0.69902030  1
  S  S40  1  0.66626418  0.96357276  0.44757340  1
  S  S41  1  0.33645668  0.95423162  0.55130147  1
