# generated using pymatgen
data_Pr2Mn3(SbS3)4
_symmetry_space_group_name_H-M   'P 1'
_cell_length_a   20.02960800
_cell_length_b   3.90410600
_cell_length_c   14.95364829
_cell_angle_alpha   90.00000000
_cell_angle_beta   126.33350609
_cell_angle_gamma   90.00000000
_symmetry_Int_Tables_number   1
_chemical_formula_structural   Pr2Mn3(SbS3)4
_chemical_formula_sum   'Pr4 Mn6 Sb8 S24'
_cell_volume   942.00006694
_cell_formula_units_Z   2
loop_
 _symmetry_equiv_pos_site_id
 _symmetry_equiv_pos_as_xyz
  1  'x, y, z'
loop_
 _atom_site_type_symbol
 _atom_site_label
 _atom_site_symmetry_multiplicity
 _atom_site_fract_x
 _atom_site_fract_y
 _atom_site_fract_z
 _atom_site_occupancy
  Pr  Pr0  1  0.27320052  0.48785798  0.87055536  1
  Pr  Pr1  1  0.73094814  0.48711834  0.13808361  1
  Pr  Pr2  1  0.76594743  0.00719569  0.87407874  1
  Pr  Pr3  1  0.23591019  0.95230699  0.13210098  1
  Mn  Mn4  1  0.30606631  0.43351079  0.61566986  1
  Mn  Mn5  1  0.70737147  0.53125296  0.36806902  1
  Mn  Mn6  1  0.99746486  0.98853135  0.00229832  1
  Mn  Mn7  1  0.79752797  0.02309757  0.62259245  1
  Mn  Mn8  1  0.20995002  0.07501991  0.39093317  1
  Mn  Mn9  1  0.49724854  0.49067915  0.99192718  1
  Sb  Sb10  1  0.88591674  0.88525639  0.45897666  1
  Sb  Sb11  1  0.10878772  0.99220937  0.53886724  1
  Sb  Sb12  1  0.03488836  0.49090359  0.82544313  1
  Sb  Sb13  1  0.96038703  0.48328373  0.19749547  1
  Sb  Sb14  1  0.40594297  0.58323314  0.46561186  1
  Sb  Sb15  1  0.60768403  0.57602189  0.53470115  1
  Sb  Sb16  1  0.52772190  0.95924772  0.80445020  1
  Sb  Sb17  1  0.46997450  0.98686611  0.19467598  1
  S  S18  1  0.94192403  0.99100530  0.81310503  1
  S  S19  1  0.06686825  0.03199099  0.21004197  1
  S  S20  1  0.41400276  0.97552130  0.98656388  1
  S  S21  1  0.58291905  0.99649591  0.00846753  1
  S  S22  1  0.17446259  0.94456848  0.90133842  1
  S  S23  1  0.82944173  0.01407570  0.11264857  1
  S  S24  1  0.09727110  0.47889535  0.64268968  1
  S  S25  1  0.91007365  0.44442428  0.36340877  1
  S  S26  1  0.73475521  0.02960368  0.31135953  1
  S  S27  1  0.26170644  0.96272119  0.68246364  1
  S  S28  1  0.18261810  0.54322264  0.45441302  1
  S  S29  1  0.82017423  0.52621051  0.55753267  1
  S  S30  1  0.43690327  0.46373258  0.80890464  1
  S  S31  1  0.55811168  0.47193453  0.18624148  1
  S  S32  1  0.91785908  0.50410158  0.99318291  1
  S  S33  1  0.08225420  0.48487264  0.02044315  1
  S  S34  1  0.65745670  0.49509636  0.87994514  1
  S  S35  1  0.33178115  0.47517814  0.10033636  1
  S  S36  1  0.59760167  0.00193755  0.64207926  1
  S  S37  1  0.40351582  0.06025522  0.34984492  1
  S  S38  1  0.24522204  0.53067713  0.32311971  1
  S  S39  1  0.76264625  0.41661399  0.69885073  1
  S  S40  1  0.66639711  0.96292702  0.44754641  1
  S  S41  1  0.33649304  0.95428938  0.55119780  1
