# generated using pymatgen
data_Pr2Mn3(SbS3)4
_symmetry_space_group_name_H-M   'P 1'
_cell_length_a   20.02960800
_cell_length_b   3.90410600
_cell_length_c   14.95364829
_cell_angle_alpha   90.00000000
_cell_angle_beta   126.33350609
_cell_angle_gamma   90.00000000
_symmetry_Int_Tables_number   1
_chemical_formula_structural   Pr2Mn3(SbS3)4
_chemical_formula_sum   'Pr4 Mn6 Sb8 S24'
_cell_volume   942.00006694
_cell_formula_units_Z   2
loop_
 _symmetry_equiv_pos_site_id
 _symmetry_equiv_pos_as_xyz
  1  'x, y, z'
loop_
 _atom_site_type_symbol
 _atom_site_label
 _atom_site_symmetry_multiplicity
 _atom_site_fract_x
 _atom_site_fract_y
 _atom_site_fract_z
 _atom_site_occupancy
  Pr  Pr0  1  0.27323778  0.48759126  0.87060867  1
  Pr  Pr1  1  0.73098937  0.48641590  0.13819349  1
  Pr  Pr2  1  0.76596956  0.00677518  0.87425846  1
  Pr  Pr3  1  0.23589387  0.95222989  0.13214802  1
  Mn  Mn4  1  0.30610195  0.43285756  0.61564595  1
  Mn  Mn5  1  0.70718428  0.53061531  0.36784229  1
  Mn  Mn6  1  0.99738652  0.98866371  0.00230204  1
  Mn  Mn7  1  0.79753744  0.02383966  0.62263601  1
  Mn  Mn8  1  0.20989020  0.07479984  0.39076173  1
  Mn  Mn9  1  0.49716100  0.48995169  0.99208539  1
  Sb  Sb10  1  0.88596769  0.88532656  0.45893201  1
  Sb  Sb11  1  0.10871268  0.99159812  0.53874407  1
  Sb  Sb12  1  0.03495634  0.49115665  0.82554565  1
  Sb  Sb13  1  0.96032746  0.48274248  0.19747623  1
  Sb  Sb14  1  0.40579751  0.58256198  0.46534001  1
  Sb  Sb15  1  0.60768583  0.57610178  0.53471189  1
  Sb  Sb16  1  0.52777556  0.95925304  0.80456757  1
  Sb  Sb17  1  0.46991876  0.98642878  0.19466067  1
  S  S18  1  0.94221230  0.99015014  0.81348691  1
  S  S19  1  0.06649905  0.03181863  0.20955473  1
  S  S20  1  0.41416781  0.97590878  0.98675342  1
  S  S21  1  0.58305688  0.99728747  0.00869058  1
  S  S22  1  0.17435104  0.94505006  0.90145176  1
  S  S23  1  0.82902993  0.01181234  0.11224541  1
  S  S24  1  0.09704093  0.47872298  0.64247824  1
  S  S25  1  0.90987632  0.44258258  0.36320624  1
  S  S26  1  0.73470662  0.02923227  0.31135258  1
  S  S27  1  0.26183390  0.96213306  0.68263816  1
  S  S28  1  0.18264224  0.54316725  0.45376444  1
  S  S29  1  0.82035181  0.52635990  0.55761549  1
  S  S30  1  0.43688840  0.46362698  0.80914344  1
  S  S31  1  0.55839102  0.47185772  0.18648677  1
  S  S32  1  0.91769674  0.50381602  0.99314061  1
  S  S33  1  0.08214657  0.48489686  0.02013704  1
  S  S34  1  0.65773106  0.49520969  0.88015733  1
  S  S35  1  0.33184238  0.47605645  0.10099118  1
  S  S36  1  0.59732875  0.00213892  0.64194779  1
  S  S37  1  0.40343949  0.06043090  0.34982625  1
  S  S38  1  0.24562934  0.53107491  0.32335794  1
  S  S39  1  0.76253797  0.41713385  0.69850572  1
  S  S40  1  0.66653539  0.96224832  0.44757428  1
  S  S41  1  0.33644087  0.95463467  0.55101267  1
