# generated using pymatgen
data_Pr2Mn3(SbS3)4
_symmetry_space_group_name_H-M   'P 1'
_cell_length_a   20.02960800
_cell_length_b   3.90410600
_cell_length_c   14.95364829
_cell_angle_alpha   90.00000000
_cell_angle_beta   126.33350609
_cell_angle_gamma   90.00000000
_symmetry_Int_Tables_number   1
_chemical_formula_structural   Pr2Mn3(SbS3)4
_chemical_formula_sum   'Pr4 Mn6 Sb8 S24'
_cell_volume   942.00006694
_cell_formula_units_Z   2
loop_
 _symmetry_equiv_pos_site_id
 _symmetry_equiv_pos_as_xyz
  1  'x, y, z'
loop_
 _atom_site_type_symbol
 _atom_site_label
 _atom_site_symmetry_multiplicity
 _atom_site_fract_x
 _atom_site_fract_y
 _atom_site_fract_z
 _atom_site_occupancy
  Pr  Pr0  1  0.27320316  0.48733121  0.87066586  1
  Pr  Pr1  1  0.73105194  0.48564570  0.13832575  1
  Pr  Pr2  1  0.76599766  0.00636093  0.87447786  1
  Pr  Pr3  1  0.23587410  0.95238643  0.13217396  1
  Mn  Mn4  1  0.30614056  0.43253225  0.61568626  1
  Mn  Mn5  1  0.70702534  0.52964512  0.36760025  1
  Mn  Mn6  1  0.99729152  0.98925407  0.00226182  1
  Mn  Mn7  1  0.79750876  0.02467389  0.62265868  1
  Mn  Mn8  1  0.20975563  0.07480954  0.39061297  1
  Mn  Mn9  1  0.49704400  0.48950221  0.99223877  1
  Sb  Sb10  1  0.88600692  0.88546508  0.45890903  1
  Sb  Sb11  1  0.10869355  0.99092114  0.53862296  1
  Sb  Sb12  1  0.03503785  0.49122695  0.82558956  1
  Sb  Sb13  1  0.96036241  0.48198095  0.19752889  1
  Sb  Sb14  1  0.40566925  0.58203701  0.46506761  1
  Sb  Sb15  1  0.60765575  0.57593220  0.53473578  1
  Sb  Sb16  1  0.52779754  0.95912189  0.80462017  1
  Sb  Sb17  1  0.46978179  0.98613246  0.19455231  1
  S  S18  1  0.94252774  0.99040744  0.81380641  1
  S  S19  1  0.06619968  0.03174421  0.20921158  1
  S  S20  1  0.41443538  0.97615095  0.98711075  1
  S  S21  1  0.58314935  0.99788828  0.00885077  1
  S  S22  1  0.17420095  0.94517807  0.90157324  1
  S  S23  1  0.82855279  0.00975224  0.11171064  1
  S  S24  1  0.09691615  0.47874484  0.64232609  1
  S  S25  1  0.90969050  0.44059295  0.36299616  1
  S  S26  1  0.73461031  0.02919929  0.31139714  1
  S  S27  1  0.26188752  0.96146653  0.68272466  1
  S  S28  1  0.18268064  0.54304057  0.45310834  1
  S  S29  1  0.82057363  0.52704457  0.55772078  1
  S  S30  1  0.43689364  0.46364580  0.80936705  1
  S  S31  1  0.55873105  0.47171872  0.18673333  1
  S  S32  1  0.91763854  0.50381206  0.99331796  1
  S  S33  1  0.08204274  0.48507381  0.01993902  1
  S  S34  1  0.65786278  0.49482790  0.88024791  1
  S  S35  1  0.33191221  0.47700810  0.10173505  1
  S  S36  1  0.59721887  0.00244075  0.64195100  1
  S  S37  1  0.40339673  0.06048348  0.34989640  1
  S  S38  1  0.24605996  0.53138587  0.32370452  1
  S  S39  1  0.76234474  0.41762602  0.69805228  1
  S  S40  1  0.66669914  0.96167406  0.44765633  1
  S  S41  1  0.33647166  0.95517297  0.55090678  1
