# generated using pymatgen
data_Pr2Mn3(SbS3)4
_symmetry_space_group_name_H-M   'P 1'
_cell_length_a   20.02960800
_cell_length_b   3.90410600
_cell_length_c   14.95364829
_cell_angle_alpha   90.00000000
_cell_angle_beta   126.33350609
_cell_angle_gamma   90.00000000
_symmetry_Int_Tables_number   1
_chemical_formula_structural   Pr2Mn3(SbS3)4
_chemical_formula_sum   'Pr4 Mn6 Sb8 S24'
_cell_volume   942.00006694
_cell_formula_units_Z   2
loop_
 _symmetry_equiv_pos_site_id
 _symmetry_equiv_pos_as_xyz
  1  'x, y, z'
loop_
 _atom_site_type_symbol
 _atom_site_label
 _atom_site_symmetry_multiplicity
 _atom_site_fract_x
 _atom_site_fract_y
 _atom_site_fract_z
 _atom_site_occupancy
  Pr  Pr0  1  0.27324996  0.48679868  0.87074769  1
  Pr  Pr1  1  0.73110627  0.48498818  0.13841359  1
  Pr  Pr2  1  0.76606150  0.00609920  0.87470391  1
  Pr  Pr3  1  0.23583280  0.95233901  0.13220220  1
  Mn  Mn4  1  0.30613383  0.43231901  0.61561623  1
  Mn  Mn5  1  0.70694534  0.52881287  0.36740174  1
  Mn  Mn6  1  0.99732424  0.99012368  0.00230282  1
  Mn  Mn7  1  0.79749746  0.02534550  0.62264233  1
  Mn  Mn8  1  0.20959923  0.07488102  0.39056793  1
  Mn  Mn9  1  0.49691357  0.48874070  0.99233873  1
  Sb  Sb10  1  0.88602585  0.88571396  0.45888278  1
  Sb  Sb11  1  0.10864381  0.99020260  0.53847918  1
  Sb  Sb12  1  0.03507245  0.49148323  0.82555381  1
  Sb  Sb13  1  0.96035581  0.48147452  0.19748802  1
  Sb  Sb14  1  0.40555315  0.58142916  0.46485369  1
  Sb  Sb15  1  0.60766096  0.57591654  0.53480313  1
  Sb  Sb16  1  0.52781971  0.95882847  0.80465934  1
  Sb  Sb17  1  0.46967771  0.98602289  0.19444471  1
  S  S18  1  0.94279948  0.99060504  0.81419524  1
  S  S19  1  0.06601194  0.03171328  0.20895071  1
  S  S20  1  0.41455697  0.97627903  0.98728786  1
  S  S21  1  0.58332988  0.99789570  0.00890507  1
  S  S22  1  0.17418003  0.94520905  0.90194336  1
  S  S23  1  0.82805086  0.00785756  0.11118209  1
  S  S24  1  0.09685528  0.47901059  0.64210011  1
  S  S25  1  0.90963888  0.43882452  0.36289220  1
  S  S26  1  0.73441199  0.02943455  0.31131753  1
  S  S27  1  0.26185219  0.96070859  0.68276581  1
  S  S28  1  0.18269160  0.54266077  0.45262803  1
  S  S29  1  0.82092003  0.52778915  0.55784508  1
  S  S30  1  0.43691202  0.46377225  0.80950664  1
  S  S31  1  0.55893908  0.47149348  0.18678687  1
  S  S32  1  0.91755899  0.50413803  0.99342869  1
  S  S33  1  0.08198027  0.48512405  0.01986311  1
  S  S34  1  0.65805291  0.49419726  0.88034520  1
  S  S35  1  0.33188519  0.47829682  0.10236218  1
  S  S36  1  0.59724917  0.00271359  0.64195882  1
  S  S37  1  0.40348663  0.06001453  0.35012942  1
  S  S38  1  0.24658114  0.53149107  0.32426957  1
  S  S39  1  0.76218413  0.41812695  0.69771310  1
  S  S40  1  0.66687768  0.96084008  0.44778293  1
  S  S41  1  0.33649459  0.95562148  0.55084866  1
