# generated using pymatgen
data_Pr2Mn3(SbS3)4
_symmetry_space_group_name_H-M   'P 1'
_cell_length_a   20.02960800
_cell_length_b   3.90410600
_cell_length_c   14.95364829
_cell_angle_alpha   90.00000000
_cell_angle_beta   126.33350609
_cell_angle_gamma   90.00000000
_symmetry_Int_Tables_number   1
_chemical_formula_structural   Pr2Mn3(SbS3)4
_chemical_formula_sum   'Pr4 Mn6 Sb8 S24'
_cell_volume   942.00006694
_cell_formula_units_Z   2
loop_
 _symmetry_equiv_pos_site_id
 _symmetry_equiv_pos_as_xyz
  1  'x, y, z'
loop_
 _atom_site_type_symbol
 _atom_site_label
 _atom_site_symmetry_multiplicity
 _atom_site_fract_x
 _atom_site_fract_y
 _atom_site_fract_z
 _atom_site_occupancy
  Pr  Pr0  1  0.27326864  0.48648039  0.87081511  1
  Pr  Pr1  1  0.73122209  0.48412484  0.13848508  1
  Pr  Pr2  1  0.76610768  0.00578499  0.87495290  1
  Pr  Pr3  1  0.23581981  0.95203244  0.13225795  1
  Mn  Mn4  1  0.30615804  0.43231401  0.61563359  1
  Mn  Mn5  1  0.70683268  0.52826955  0.36721941  1
  Mn  Mn6  1  0.99727981  0.99115439  0.00222986  1
  Mn  Mn7  1  0.79741740  0.02595593  0.62255869  1
  Mn  Mn8  1  0.20937407  0.07494563  0.39041012  1
  Mn  Mn9  1  0.49684281  0.48795407  0.99242987  1
  Sb  Sb10  1  0.88609723  0.88591378  0.45891208  1
  Sb  Sb11  1  0.10861323  0.98951926  0.53843637  1
  Sb  Sb12  1  0.03510369  0.49156673  0.82546485  1
  Sb  Sb13  1  0.96037024  0.48105791  0.19742357  1
  Sb  Sb14  1  0.40541204  0.58108628  0.46467047  1
  Sb  Sb15  1  0.60766641  0.57592317  0.53489610  1
  Sb  Sb16  1  0.52781385  0.95863752  0.80468096  1
  Sb  Sb17  1  0.46957571  0.98603084  0.19439178  1
  S  S18  1  0.94313323  0.99055279  0.81465319  1
  S  S19  1  0.06574232  0.03174753  0.20872443  1
  S  S20  1  0.41464524  0.97591213  0.98744506  1
  S  S21  1  0.58353531  0.99841426  0.00891546  1
  S  S22  1  0.17420605  0.94532904  0.90230913  1
  S  S23  1  0.82770186  0.00619343  0.11090270  1
  S  S24  1  0.09683078  0.47888727  0.64205021  1
  S  S25  1  0.90971970  0.43732885  0.36279881  1
  S  S26  1  0.73415603  0.02938154  0.31124769  1
  S  S27  1  0.26180180  0.96011686  0.68278702  1
  S  S28  1  0.18277039  0.54193125  0.45211535  1
  S  S29  1  0.82130314  0.52924669  0.55810529  1
  S  S30  1  0.43696256  0.46372934  0.80965845  1
  S  S31  1  0.55910673  0.47125365  0.18687986  1
  S  S32  1  0.91757958  0.50478190  0.99356360  1
  S  S33  1  0.08198899  0.48520676  0.01979961  1
  S  S34  1  0.65829408  0.49357386  0.88035240  1
  S  S35  1  0.33194859  0.47958454  0.10305857  1
  S  S36  1  0.59725908  0.00290063  0.64202345  1
  S  S37  1  0.40357385  0.05953420  0.35020832  1
  S  S38  1  0.24708348  0.53147046  0.32487107  1
  S  S39  1  0.76200635  0.41891990  0.69740184  1
  S  S40  1  0.66710413  0.95985919  0.44807528  1
  S  S41  1  0.33640439  0.95549273  0.55057967  1
