# generated using pymatgen
data_Pr2Mn3(SbS3)4
_symmetry_space_group_name_H-M   'P 1'
_cell_length_a   20.02960800
_cell_length_b   3.90410600
_cell_length_c   14.95364829
_cell_angle_alpha   90.00000000
_cell_angle_beta   126.33350609
_cell_angle_gamma   90.00000000
_symmetry_Int_Tables_number   1
_chemical_formula_structural   Pr2Mn3(SbS3)4
_chemical_formula_sum   'Pr4 Mn6 Sb8 S24'
_cell_volume   942.00006694
_cell_formula_units_Z   2
loop_
 _symmetry_equiv_pos_site_id
 _symmetry_equiv_pos_as_xyz
  1  'x, y, z'
loop_
 _atom_site_type_symbol
 _atom_site_label
 _atom_site_symmetry_multiplicity
 _atom_site_fract_x
 _atom_site_fract_y
 _atom_site_fract_z
 _atom_site_occupancy
  Pr  Pr0  1  0.26660818  0.48544651  0.86379173  1
  Pr  Pr1  1  0.73600983  0.51307994  0.13575659  1
  Pr  Pr2  1  0.76282603  0.01418414  0.86246297  1
  Pr  Pr3  1  0.23556210  0.00603129  0.13649659  1
  Mn  Mn4  1  0.28941213  0.47666441  0.59720085  1
  Mn  Mn5  1  0.68992984  0.49431322  0.37420476  1
  Mn  Mn6  1  0.00866876  0.98979308  0.01815102  1
  Mn  Mn7  1  0.80434072  0.01446894  0.61670693  1
  Mn  Mn8  1  0.19811219  0.98163807  0.37736317  1
  Mn  Mn9  1  0.49319890  0.47599027  0.99022653  1
  Sb  Sb10  1  0.88983384  0.98201301  0.44976914  1
  Sb  Sb11  1  0.11237467  0.97548638  0.54764589  1
  Sb  Sb12  1  0.04054990  0.52019003  0.82271100  1
  Sb  Sb13  1  0.96459247  0.49984418  0.18363564  1
  Sb  Sb14  1  0.39606715  0.50705913  0.45209912  1
  Sb  Sb15  1  0.60563321  0.47281284  0.54710753  1
  Sb  Sb16  1  0.53360033  0.99946216  0.80941595  1
  Sb  Sb17  1  0.46246988  0.01636159  0.18454608  1
  S  S18  1  0.93781354  0.99568312  0.80491750  1
  S  S19  1  0.06654150  0.98387751  0.20041610  1
  S  S20  1  0.40959065  0.97127679  0.98116733  1
  S  S21  1  0.57925560  0.99755714  0.00961208  1
  S  S22  1  0.17179964  0.02814430  0.89989945  1
  S  S23  1  0.82395716  0.04871306  0.09607154  1
  S  S24  1  0.09589469  0.47866509  0.64666055  1
  S  S25  1  0.91212595  0.47893051  0.35494266  1
  S  S26  1  0.74074565  0.94688401  0.30275013  1
  S  S27  1  0.26328574  0.00570604  0.71001622  1
  S  S28  1  0.15816481  0.48206743  0.42955823  1
  S  S29  1  0.82579997  0.48613960  0.54875457  1
  S  S30  1  0.43229508  0.49746389  0.79992383  1
  S  S31  1  0.55891895  0.51081989  0.18400011  1
  S  S32  1  0.90958993  0.48442134  0.98744376  1
  S  S33  1  0.08980542  0.46561875  0.02419179  1
  S  S34  1  0.66450236  0.50957237  0.88587344  1
  S  S35  1  0.33100990  0.51079219  0.09633239  1
  S  S36  1  0.59587434  0.98349044  0.65395675  1
  S  S37  1  0.40563147  0.98566482  0.35080312  1
  S  S38  1  0.24048618  0.46230508  0.30954057  1
  S  S39  1  0.76270817  0.50084197  0.69911041  1
  S  S40  1  0.66825440  0.02766445  0.45482284  1
  S  S41  1  0.32263202  0.97348272  0.54890564  1
