# generated using pymatgen
data_Pr2Mn3(SbS3)4
_symmetry_space_group_name_H-M   'P 1'
_cell_length_a   20.02960800
_cell_length_b   3.90410600
_cell_length_c   14.95364829
_cell_angle_alpha   90.00000000
_cell_angle_beta   126.33350609
_cell_angle_gamma   90.00000000
_symmetry_Int_Tables_number   1
_chemical_formula_structural   Pr2Mn3(SbS3)4
_chemical_formula_sum   'Pr4 Mn6 Sb8 S24'
_cell_volume   942.00006694
_cell_formula_units_Z   2
loop_
 _symmetry_equiv_pos_site_id
 _symmetry_equiv_pos_as_xyz
  1  'x, y, z'
loop_
 _atom_site_type_symbol
 _atom_site_label
 _atom_site_symmetry_multiplicity
 _atom_site_fract_x
 _atom_site_fract_y
 _atom_site_fract_z
 _atom_site_occupancy
  Pr  Pr0  1  0.27324787  0.48633312  0.87079770  1
  Pr  Pr1  1  0.73129969  0.48342132  0.13854519  1
  Pr  Pr2  1  0.76616460  0.00540764  0.87525413  1
  Pr  Pr3  1  0.23576480  0.95181579  0.13225847  1
  Mn  Mn4  1  0.30605959  0.43227240  0.61551377  1
  Mn  Mn5  1  0.70667230  0.52748624  0.36701321  1
  Mn  Mn6  1  0.99725877  0.99232748  0.00223428  1
  Mn  Mn7  1  0.79736729  0.02618882  0.62248746  1
  Mn  Mn8  1  0.20913675  0.07511232  0.39024773  1
  Mn  Mn9  1  0.49680478  0.48720641  0.99258813  1
  Sb  Sb10  1  0.88617833  0.88610462  0.45894764  1
  Sb  Sb11  1  0.10863719  0.98893457  0.53841587  1
  Sb  Sb12  1  0.03515253  0.49155119  0.82535163  1
  Sb  Sb13  1  0.96042475  0.48105796  0.19734752  1
  Sb  Sb14  1  0.40526831  0.58048665  0.46454742  1
  Sb  Sb15  1  0.60768388  0.57610307  0.53498132  1
  Sb  Sb16  1  0.52781926  0.95852746  0.80467385  1
  Sb  Sb17  1  0.46950140  0.98611149  0.19436719  1
  S  S18  1  0.94345930  0.99098874  0.81511186  1
  S  S19  1  0.06542102  0.03171691  0.20850586  1
  S  S20  1  0.41469395  0.97620485  0.98762203  1
  S  S21  1  0.58375934  0.99917684  0.00897491  1
  S  S22  1  0.17420998  0.94546185  0.90268979  1
  S  S23  1  0.82740097  0.00546048  0.11072269  1
  S  S24  1  0.09683326  0.47848656  0.64219117  1
  S  S25  1  0.90978152  0.43570811  0.36264874  1
  S  S26  1  0.73392346  0.02932830  0.31119794  1
  S  S27  1  0.26178450  0.95902252  0.68283712  1
  S  S28  1  0.18291513  0.54141620  0.45183041  1
  S  S29  1  0.82150338  0.53060256  0.55818875  1
  S  S30  1  0.43705258  0.46331321  0.80981941  1
  S  S31  1  0.55928434  0.47096841  0.18702458  1
  S  S32  1  0.91760978  0.50542883  0.99371015  1
  S  S33  1  0.08200763  0.48546359  0.01970212  1
  S  S34  1  0.65853431  0.49201450  0.88051207  1
  S  S35  1  0.33206737  0.48080712  0.10373341  1
  S  S36  1  0.59722051  0.00356863  0.64207522  1
  S  S37  1  0.40362712  0.05909729  0.35024435  1
  S  S38  1  0.24751909  0.53130365  0.32546219  1
  S  S39  1  0.76182045  0.41961638  0.69711875  1
  S  S40  1  0.66736090  0.95869294  0.44840665  1
  S  S41  1  0.33638697  0.95503398  0.55041972  1
