# generated using pymatgen
data_Pr2Mn3(SbS3)4
_symmetry_space_group_name_H-M   'P 1'
_cell_length_a   20.02960800
_cell_length_b   3.90410600
_cell_length_c   14.95364829
_cell_angle_alpha   90.00000000
_cell_angle_beta   126.33350609
_cell_angle_gamma   90.00000000
_symmetry_Int_Tables_number   1
_chemical_formula_structural   Pr2Mn3(SbS3)4
_chemical_formula_sum   'Pr4 Mn6 Sb8 S24'
_cell_volume   942.00006694
_cell_formula_units_Z   2
loop_
 _symmetry_equiv_pos_site_id
 _symmetry_equiv_pos_as_xyz
  1  'x, y, z'
loop_
 _atom_site_type_symbol
 _atom_site_label
 _atom_site_symmetry_multiplicity
 _atom_site_fract_x
 _atom_site_fract_y
 _atom_site_fract_z
 _atom_site_occupancy
  Pr  Pr0  1  0.27321242  0.48602955  0.87077502  1
  Pr  Pr1  1  0.73132850  0.48289365  0.13861140  1
  Pr  Pr2  1  0.76615208  0.00499353  0.87549673  1
  Pr  Pr3  1  0.23571838  0.95157559  0.13236757  1
  Mn  Mn4  1  0.30602909  0.43261668  0.61541202  1
  Mn  Mn5  1  0.70655381  0.52700348  0.36677167  1
  Mn  Mn6  1  0.99725432  0.99356789  0.00231447  1
  Mn  Mn7  1  0.79733185  0.02600580  0.62247399  1
  Mn  Mn8  1  0.20889246  0.07520253  0.39007851  1
  Mn  Mn9  1  0.49672500  0.48630807  0.99257251  1
  Sb  Sb10  1  0.88614715  0.88654149  0.45894927  1
  Sb  Sb11  1  0.10864034  0.98873101  0.53840592  1
  Sb  Sb12  1  0.03516673  0.49150832  0.82518145  1
  Sb  Sb13  1  0.96045839  0.48110506  0.19731486  1
  Sb  Sb14  1  0.40511916  0.57991823  0.46442702  1
  Sb  Sb15  1  0.60768692  0.57632333  0.53502434  1
  Sb  Sb16  1  0.52785308  0.95843446  0.80463204  1
  Sb  Sb17  1  0.46949159  0.98632977  0.19443850  1
  S  S18  1  0.94369367  0.99183436  0.81541513  1
  S  S19  1  0.06525853  0.03210763  0.20825998  1
  S  S20  1  0.41467461  0.97643197  0.98773865  1
  S  S21  1  0.58381883  0.00002208  0.00890698  1
  S  S22  1  0.17416777  0.94527276  0.90307558  1
  S  S23  1  0.82712936  0.00424819  0.11057919  1
  S  S24  1  0.09679986  0.47857955  0.64230179  1
  S  S25  1  0.90992325  0.43464125  0.36250479  1
  S  S26  1  0.73370911  0.02923330  0.31110055  1
  S  S27  1  0.26178550  0.95859080  0.68289790  1
  S  S28  1  0.18284907  0.54109294  0.45151868  1
  S  S29  1  0.82162993  0.53123024  0.55805406  1
  S  S30  1  0.43722749  0.46286801  0.81009068  1
  S  S31  1  0.55939687  0.47063087  0.18709117  1
  S  S32  1  0.91766972  0.50649034  0.99385928  1
  S  S33  1  0.08196684  0.48620913  0.01949152  1
  S  S34  1  0.65889903  0.49111073  0.88082764  1
  S  S35  1  0.33215678  0.48203048  0.10435388  1
  S  S36  1  0.59733256  0.00430967  0.64239947  1
  S  S37  1  0.40359139  0.05892402  0.35016820  1
  S  S38  1  0.24794862  0.53094562  0.32607169  1
  S  S39  1  0.76161625  0.42004040  0.69681699  1
  S  S40  1  0.66775150  0.95748523  0.44885072  1
  S  S41  1  0.33635101  0.95477875  0.55049063  1
