# generated using pymatgen
data_Pr2Mn3(SbS3)4
_symmetry_space_group_name_H-M   'P 1'
_cell_length_a   20.02960800
_cell_length_b   3.90410600
_cell_length_c   14.95364829
_cell_angle_alpha   90.00000000
_cell_angle_beta   126.33350609
_cell_angle_gamma   90.00000000
_symmetry_Int_Tables_number   1
_chemical_formula_structural   Pr2Mn3(SbS3)4
_chemical_formula_sum   'Pr4 Mn6 Sb8 S24'
_cell_volume   942.00006694
_cell_formula_units_Z   2
loop_
 _symmetry_equiv_pos_site_id
 _symmetry_equiv_pos_as_xyz
  1  'x, y, z'
loop_
 _atom_site_type_symbol
 _atom_site_label
 _atom_site_symmetry_multiplicity
 _atom_site_fract_x
 _atom_site_fract_y
 _atom_site_fract_z
 _atom_site_occupancy
  Pr  Pr0  1  0.27321308  0.48580583  0.87079407  1
  Pr  Pr1  1  0.73138589  0.48239438  0.13869827  1
  Pr  Pr2  1  0.76617460  0.00432957  0.87580452  1
  Pr  Pr3  1  0.23568693  0.95156907  0.13244060  1
  Mn  Mn4  1  0.30608234  0.43242097  0.61550019  1
  Mn  Mn5  1  0.70637751  0.52634201  0.36647335  1
  Mn  Mn6  1  0.99714416  0.99466414  0.00233604  1
  Mn  Mn7  1  0.79730788  0.02573331  0.62247730  1
  Mn  Mn8  1  0.20868289  0.07500478  0.38996865  1
  Mn  Mn9  1  0.49666223  0.48557752  0.99255376  1
  Sb  Sb10  1  0.88607849  0.88708746  0.45889533  1
  Sb  Sb11  1  0.10869233  0.98833499  0.53839654  1
  Sb  Sb12  1  0.03513951  0.49162672  0.82503414  1
  Sb  Sb13  1  0.96052444  0.48084701  0.19728836  1
  Sb  Sb14  1  0.40499261  0.57953885  0.46435676  1
  Sb  Sb15  1  0.60772362  0.57664264  0.53516646  1
  Sb  Sb16  1  0.52789627  0.95836509  0.80466698  1
  Sb  Sb17  1  0.46949274  0.98649329  0.19452499  1
  S  S18  1  0.94378211  0.99254509  0.81566796  1
  S  S19  1  0.06512245  0.03175003  0.20804211  1
  S  S20  1  0.41466146  0.97679180  0.98785749  1
  S  S21  1  0.58377263  0.00048635  0.00869493  1
  S  S22  1  0.17405023  0.94465492  0.90350804  1
  S  S23  1  0.82684007  0.00270052  0.11042201  1
  S  S24  1  0.09690716  0.47886416  0.64234347  1
  S  S25  1  0.91001368  0.43367682  0.36225487  1
  S  S26  1  0.73355535  0.02940638  0.31092129  1
  S  S27  1  0.26180396  0.95817761  0.68314333  1
  S  S28  1  0.18269115  0.54161752  0.45115658  1
  S  S29  1  0.82172195  0.53179555  0.55788910  1
  S  S30  1  0.43752934  0.46200966  0.81040767  1
  S  S31  1  0.55946350  0.47048193  0.18720463  1
  S  S32  1  0.91775651  0.50776600  0.99403287  1
  S  S33  1  0.08197417  0.48702916  0.01931826  1
  S  S34  1  0.65930838  0.49057281  0.88116606  1
  S  S35  1  0.33220316  0.48303892  0.10482458  1
  S  S36  1  0.59740924  0.00455657  0.64277789  1
  S  S37  1  0.40363125  0.05822615  0.35008544  1
  S  S38  1  0.24832479  0.53085307  0.32652185  1
  S  S39  1  0.76136189  0.42055117  0.69648990  1
  S  S40  1  0.66805215  0.95631073  0.44923963  1
  S  S41  1  0.33630433  0.95475386  0.55048679  1
