# generated using pymatgen
data_Pr2Mn3(SbS3)4
_symmetry_space_group_name_H-M   'P 1'
_cell_length_a   20.02960800
_cell_length_b   3.90410600
_cell_length_c   14.95364829
_cell_angle_alpha   90.00000000
_cell_angle_beta   126.33350609
_cell_angle_gamma   90.00000000
_symmetry_Int_Tables_number   1
_chemical_formula_structural   Pr2Mn3(SbS3)4
_chemical_formula_sum   'Pr4 Mn6 Sb8 S24'
_cell_volume   942.00006694
_cell_formula_units_Z   2
loop_
 _symmetry_equiv_pos_site_id
 _symmetry_equiv_pos_as_xyz
  1  'x, y, z'
loop_
 _atom_site_type_symbol
 _atom_site_label
 _atom_site_symmetry_multiplicity
 _atom_site_fract_x
 _atom_site_fract_y
 _atom_site_fract_z
 _atom_site_occupancy
  Pr  Pr0  1  0.27319109  0.48555694  0.87082463  1
  Pr  Pr1  1  0.73147826  0.48213079  0.13879278  1
  Pr  Pr2  1  0.76610141  0.00359228  0.87597297  1
  Pr  Pr3  1  0.23564457  0.95139369  0.13248537  1
  Mn  Mn4  1  0.30621139  0.43232758  0.61565018  1
  Mn  Mn5  1  0.70615388  0.52590089  0.36616037  1
  Mn  Mn6  1  0.99707070  0.99573609  0.00238713  1
  Mn  Mn7  1  0.79722547  0.02539296  0.62241203  1
  Mn  Mn8  1  0.20856429  0.07484278  0.38990551  1
  Mn  Mn9  1  0.49654115  0.48456017  0.99254951  1
  Sb  Sb10  1  0.88600101  0.88748199  0.45889208  1
  Sb  Sb11  1  0.10876640  0.98797568  0.53838093  1
  Sb  Sb12  1  0.03513635  0.49184236  0.82488434  1
  Sb  Sb13  1  0.96052748  0.48065307  0.19722913  1
  Sb  Sb14  1  0.40489109  0.57914627  0.46427710  1
  Sb  Sb15  1  0.60774397  0.57675296  0.53523024  1
  Sb  Sb16  1  0.52791693  0.95831454  0.80463451  1
  Sb  Sb17  1  0.46947347  0.98661338  0.19463691  1
  S  S18  1  0.94390034  0.99299803  0.81593480  1
  S  S19  1  0.06503862  0.03108683  0.20793161  1
  S  S20  1  0.41457440  0.97699610  0.98796527  1
  S  S21  1  0.58372736  0.00109945  0.00854168  1
  S  S22  1  0.17396056  0.94452501  0.90407187  1
  S  S23  1  0.82662147  0.00190305  0.11035858  1
  S  S24  1  0.09692185  0.47909977  0.64236524  1
  S  S25  1  0.91004762  0.43309841  0.36192497  1
  S  S26  1  0.73356170  0.02924333  0.31075610  1
  S  S27  1  0.26185328  0.95835735  0.68343462  1
  S  S28  1  0.18262551  0.54243645  0.45091348  1
  S  S29  1  0.82184159  0.53217403  0.55768988  1
  S  S30  1  0.43776117  0.46117409  0.81071409  1
  S  S31  1  0.55956370  0.46993396  0.18730101  1
  S  S32  1  0.91786359  0.50879328  0.99421588  1
  S  S33  1  0.08189140  0.48741774  0.01910123  1
  S  S34  1  0.65953936  0.49010325  0.88140798  1
  S  S35  1  0.33230076  0.48393607  0.10528972  1
  S  S36  1  0.59744380  0.00464923  0.64304220  1
  S  S37  1  0.40351302  0.05790015  0.34992696  1
  S  S38  1  0.24878721  0.53085967  0.32696709  1
  S  S39  1  0.76115309  0.42103225  0.69625083  1
  S  S40  1  0.66842292  0.95563799  0.44967523  1
  S  S41  1  0.33624985  0.95502968  0.55053477  1
