# generated using pymatgen
data_Pr2Mn3(SbS3)4
_symmetry_space_group_name_H-M   'P 1'
_cell_length_a   20.02960800
_cell_length_b   3.90410600
_cell_length_c   14.95364829
_cell_angle_alpha   90.00000000
_cell_angle_beta   126.33350609
_cell_angle_gamma   90.00000000
_symmetry_Int_Tables_number   1
_chemical_formula_structural   Pr2Mn3(SbS3)4
_chemical_formula_sum   'Pr4 Mn6 Sb8 S24'
_cell_volume   942.00006694
_cell_formula_units_Z   2
loop_
 _symmetry_equiv_pos_site_id
 _symmetry_equiv_pos_as_xyz
  1  'x, y, z'
loop_
 _atom_site_type_symbol
 _atom_site_label
 _atom_site_symmetry_multiplicity
 _atom_site_fract_x
 _atom_site_fract_y
 _atom_site_fract_z
 _atom_site_occupancy
  Pr  Pr0  1  0.27308563  0.48518689  0.87080498  1
  Pr  Pr1  1  0.73157842  0.48190008  0.13893433  1
  Pr  Pr2  1  0.76603638  0.00290365  0.87613839  1
  Pr  Pr3  1  0.23559155  0.95138826  0.13252721  1
  Mn  Mn4  1  0.30632815  0.43239901  0.61580433  1
  Mn  Mn5  1  0.70584310  0.52557364  0.36578934  1
  Mn  Mn6  1  0.99703953  0.99710338  0.00239772  1
  Mn  Mn7  1  0.79711652  0.02548957  0.62231408  1
  Mn  Mn8  1  0.20853696  0.07449401  0.38984180  1
  Mn  Mn9  1  0.49640468  0.48337041  0.99251138  1
  Sb  Sb10  1  0.88593029  0.88789310  0.45886185  1
  Sb  Sb11  1  0.10887841  0.98794191  0.53844263  1
  Sb  Sb12  1  0.03511545  0.49207151  0.82474806  1
  Sb  Sb13  1  0.96055932  0.48035256  0.19716554  1
  Sb  Sb14  1  0.40474180  0.57856757  0.46410902  1
  Sb  Sb15  1  0.60776701  0.57657637  0.53530177  1
  Sb  Sb16  1  0.52800577  0.95817394  0.80461457  1
  Sb  Sb17  1  0.46942178  0.98674726  0.19471365  1
  S  S18  1  0.94410262  0.99325352  0.81630937  1
  S  S19  1  0.06496111  0.03084116  0.20777631  1
  S  S20  1  0.41449915  0.97716808  0.98798896  1
  S  S21  1  0.58377767  0.00179242  0.00847683  1
  S  S22  1  0.17377211  0.94488258  0.90456767  1
  S  S23  1  0.82645558  0.00086021  0.11034379  1
  S  S24  1  0.09686696  0.47954815  0.64222156  1
  S  S25  1  0.91004387  0.43277310  0.36166920  1
  S  S26  1  0.73366552  0.02881331  0.31059215  1
  S  S27  1  0.26197359  0.95884318  0.68366300  1
  S  S28  1  0.18252325  0.54297904  0.45076801  1
  S  S29  1  0.82184982  0.53281260  0.55748566  1
  S  S30  1  0.43800796  0.46114437  0.81107659  1
  S  S31  1  0.55973665  0.46948806  0.18737874  1
  S  S32  1  0.91800285  0.50956084  0.99440878  1
  S  S33  1  0.08187374  0.48755476  0.01887056  1
  S  S34  1  0.65968459  0.49004187  0.88157882  1
  S  S35  1  0.33241129  0.48457293  0.10566588  1
  S  S36  1  0.59737420  0.00475450  0.64316995  1
  S  S37  1  0.40344082  0.05799069  0.34978048  1
  S  S38  1  0.24923638  0.53045285  0.32744053  1
  S  S39  1  0.76102201  0.42130168  0.69582073  1
  S  S40  1  0.66878600  0.95504878  0.44994372  1
  S  S41  1  0.33619157  0.95555550  0.55053570  1
