# generated using pymatgen
data_Pr2Mn3(SbS3)4
_symmetry_space_group_name_H-M   'P 1'
_cell_length_a   20.02960800
_cell_length_b   3.90410600
_cell_length_c   14.95364829
_cell_angle_alpha   90.00000000
_cell_angle_beta   126.33350609
_cell_angle_gamma   90.00000000
_symmetry_Int_Tables_number   1
_chemical_formula_structural   Pr2Mn3(SbS3)4
_chemical_formula_sum   'Pr4 Mn6 Sb8 S24'
_cell_volume   942.00006694
_cell_formula_units_Z   2
loop_
 _symmetry_equiv_pos_site_id
 _symmetry_equiv_pos_as_xyz
  1  'x, y, z'
loop_
 _atom_site_type_symbol
 _atom_site_label
 _atom_site_symmetry_multiplicity
 _atom_site_fract_x
 _atom_site_fract_y
 _atom_site_fract_z
 _atom_site_occupancy
  Pr  Pr0  1  0.27302480  0.48496039  0.87081216  1
  Pr  Pr1  1  0.73165823  0.48142389  0.13897276  1
  Pr  Pr2  1  0.76594762  0.00231492  0.87629100  1
  Pr  Pr3  1  0.23562703  0.95120826  0.13260027  1
  Mn  Mn4  1  0.30643994  0.43255174  0.61589033  1
  Mn  Mn5  1  0.70564589  0.52530157  0.36556390  1
  Mn  Mn6  1  0.99710703  0.99821591  0.00255646  1
  Mn  Mn7  1  0.79712292  0.02531790  0.62232396  1
  Mn  Mn8  1  0.20855610  0.07390419  0.38979563  1
  Mn  Mn9  1  0.49620233  0.48245050  0.99238618  1
  Sb  Sb10  1  0.88586897  0.88803949  0.45889092  1
  Sb  Sb11  1  0.10901703  0.98775793  0.53852983  1
  Sb  Sb12  1  0.03497884  0.49228959  0.82449510  1
  Sb  Sb13  1  0.96049551  0.48016570  0.19706116  1
  Sb  Sb14  1  0.40458346  0.57799076  0.46399836  1
  Sb  Sb15  1  0.60777362  0.57621788  0.53537608  1
  Sb  Sb16  1  0.52811416  0.95790537  0.80466252  1
  Sb  Sb17  1  0.46935403  0.98696048  0.19477560  1
  S  S18  1  0.94427504  0.99399826  0.81670440  1
  S  S19  1  0.06487706  0.03042123  0.20768965  1
  S  S20  1  0.41438222  0.97710469  0.98808724  1
  S  S21  1  0.58373690  0.00218491  0.00837310  1
  S  S22  1  0.17349954  0.94551164  0.90511202  1
  S  S23  1  0.82643985  0.00013987  0.11034415  1
  S  S24  1  0.09689250  0.48011559  0.64200064  1
  S  S25  1  0.91005598  0.43243258  0.36138696  1
  S  S26  1  0.73361635  0.02879179  0.31035906  1
  S  S27  1  0.26210070  0.95908868  0.68382308  1
  S  S28  1  0.18250955  0.54360621  0.45068764  1
  S  S29  1  0.82195163  0.53359149  0.55725285  1
  S  S30  1  0.43825844  0.46136695  0.81125748  1
  S  S31  1  0.55999389  0.46886050  0.18748762  1
  S  S32  1  0.91805221  0.50981013  0.99452497  1
  S  S33  1  0.08194694  0.48792313  0.01877847  1
  S  S34  1  0.65985310  0.48961912  0.88180054  1
  S  S35  1  0.33264109  0.48519373  0.10598769  1
  S  S36  1  0.59733846  0.00414049  0.64332435  1
  S  S37  1  0.40330672  0.05842804  0.34966188  1
  S  S38  1  0.24954350  0.52993134  0.32778557  1
  S  S39  1  0.76086945  0.42191176  0.69526658  1
  S  S40  1  0.66918585  0.95426202  0.45032503  1
  S  S41  1  0.33613013  0.95578788  0.55059448  1
