# generated using pymatgen
data_Pr2Mn3(SbS3)4
_symmetry_space_group_name_H-M   'P 1'
_cell_length_a   20.02960800
_cell_length_b   3.90410600
_cell_length_c   14.95364829
_cell_angle_alpha   90.00000000
_cell_angle_beta   126.33350609
_cell_angle_gamma   90.00000000
_symmetry_Int_Tables_number   1
_chemical_formula_structural   Pr2Mn3(SbS3)4
_chemical_formula_sum   'Pr4 Mn6 Sb8 S24'
_cell_volume   942.00006694
_cell_formula_units_Z   2
loop_
 _symmetry_equiv_pos_site_id
 _symmetry_equiv_pos_as_xyz
  1  'x, y, z'
loop_
 _atom_site_type_symbol
 _atom_site_label
 _atom_site_symmetry_multiplicity
 _atom_site_fract_x
 _atom_site_fract_y
 _atom_site_fract_z
 _atom_site_occupancy
  Pr  Pr0  1  0.27300033  0.48480838  0.87080387  1
  Pr  Pr1  1  0.73165389  0.48091928  0.13891278  1
  Pr  Pr2  1  0.76589268  0.00167289  0.87645101  1
  Pr  Pr3  1  0.23560484  0.95119430  0.13257637  1
  Mn  Mn4  1  0.30654113  0.43292834  0.61595925  1
  Mn  Mn5  1  0.70545697  0.52518360  0.36529133  1
  Mn  Mn6  1  0.99720862  0.99923131  0.00273835  1
  Mn  Mn7  1  0.79718866  0.02550599  0.62244251  1
  Mn  Mn8  1  0.20864759  0.07402102  0.38990481  1
  Mn  Mn9  1  0.49599210  0.48191196  0.99229378  1
  Sb  Sb10  1  0.88579412  0.88819607  0.45893861  1
  Sb  Sb11  1  0.10912538  0.98763796  0.53861398  1
  Sb  Sb12  1  0.03493210  0.49266876  0.82432937  1
  Sb  Sb13  1  0.96044263  0.47990602  0.19697058  1
  Sb  Sb14  1  0.40433931  0.57765434  0.46379866  1
  Sb  Sb15  1  0.60782051  0.57582542  0.53547558  1
  Sb  Sb16  1  0.52825378  0.95733472  0.80479358  1
  Sb  Sb17  1  0.46935626  0.98701699  0.19486179  1
  S  S18  1  0.94452475  0.99445333  0.81708623  1
  S  S19  1  0.06469813  0.02996420  0.20761182  1
  S  S20  1  0.41425211  0.97688365  0.98814530  1
  S  S21  1  0.58372311  0.00258595  0.00830148  1
  S  S22  1  0.17320715  0.94634930  0.90559111  1
  S  S23  1  0.82644088  0.99991585  0.11039099  1
  S  S24  1  0.09690236  0.48055012  0.64176564  1
  S  S25  1  0.91014226  0.43236949  0.36123403  1
  S  S26  1  0.73355448  0.02866257  0.31016395  1
  S  S27  1  0.26234134  0.95866052  0.68417015  1
  S  S28  1  0.18251523  0.54410682  0.45055993  1
  S  S29  1  0.82210678  0.53488472  0.55705210  1
  S  S30  1  0.43838367  0.46192258  0.81127491  1
  S  S31  1  0.56030139  0.46856500  0.18760832  1
  S  S32  1  0.91800267  0.51001881  0.99445727  1
  S  S33  1  0.08216802  0.48834579  0.01867105  1
  S  S34  1  0.66009879  0.48901453  0.88205977  1
  S  S35  1  0.33278503  0.48574539  0.10641420  1
  S  S36  1  0.59730280  0.00392430  0.64355279  1
  S  S37  1  0.40332115  0.05845385  0.34959805  1
  S  S38  1  0.24973873  0.52911434  0.32800454  1
  S  S39  1  0.76062093  0.42270793  0.69459598  1
  S  S40  1  0.66951642  0.95375896  0.45048143  1
  S  S41  1  0.33599803  0.95589700  0.55053607  1
