# generated using pymatgen
data_Pr2Mn3(SbS3)4
_symmetry_space_group_name_H-M   'P 1'
_cell_length_a   20.02960800
_cell_length_b   3.90410600
_cell_length_c   14.95364829
_cell_angle_alpha   90.00000000
_cell_angle_beta   126.33350609
_cell_angle_gamma   90.00000000
_symmetry_Int_Tables_number   1
_chemical_formula_structural   Pr2Mn3(SbS3)4
_chemical_formula_sum   'Pr4 Mn6 Sb8 S24'
_cell_volume   942.00006694
_cell_formula_units_Z   2
loop_
 _symmetry_equiv_pos_site_id
 _symmetry_equiv_pos_as_xyz
  1  'x, y, z'
loop_
 _atom_site_type_symbol
 _atom_site_label
 _atom_site_symmetry_multiplicity
 _atom_site_fract_x
 _atom_site_fract_y
 _atom_site_fract_z
 _atom_site_occupancy
  Pr  Pr0  1  0.27295966  0.48449232  0.87088582  1
  Pr  Pr1  1  0.73168868  0.48063116  0.13884345  1
  Pr  Pr2  1  0.76582466  0.00071874  0.87658367  1
  Pr  Pr3  1  0.23556812  0.95144470  0.13255573  1
  Mn  Mn4  1  0.30655105  0.43340796  0.61589458  1
  Mn  Mn5  1  0.70528947  0.52483509  0.36501172  1
  Mn  Mn6  1  0.99732822  0.99972496  0.00293719  1
  Mn  Mn7  1  0.79730394  0.02573693  0.62261431  1
  Mn  Mn8  1  0.20873956  0.07433535  0.39003210  1
  Mn  Mn9  1  0.49574920  0.48147911  0.99213416  1
  Sb  Sb10  1  0.88574288  0.88840486  0.45901850  1
  Sb  Sb11  1  0.10920946  0.98743117  0.53872344  1
  Sb  Sb12  1  0.03484127  0.49303134  0.82411843  1
  Sb  Sb13  1  0.96036416  0.47976779  0.19676732  1
  Sb  Sb14  1  0.40400313  0.57755271  0.46348259  1
  Sb  Sb15  1  0.60788486  0.57533091  0.53553944  1
  Sb  Sb16  1  0.52840863  0.95693168  0.80493819  1
  Sb  Sb17  1  0.46932494  0.98673350  0.19486055  1
  S  S18  1  0.94465681  0.99487791  0.81736573  1
  S  S19  1  0.06445345  0.02968125  0.20745651  1
  S  S20  1  0.41417210  0.97681602  0.98827080  1
  S  S21  1  0.58381770  0.00335129  0.00841485  1
  S  S22  1  0.17304642  0.94687661  0.90610539  1
  S  S23  1  0.82641858  0.99952546  0.11030083  1
  S  S24  1  0.09688132  0.48086809  0.64139639  1
  S  S25  1  0.91023238  0.43205497  0.36120712  1
  S  S26  1  0.73350717  0.02859304  0.30998555  1
  S  S27  1  0.26268678  0.95837319  0.68465050  1
  S  S28  1  0.18247711  0.54395640  0.45051123  1
  S  S29  1  0.82218660  0.53565992  0.55667514  1
  S  S30  1  0.43833231  0.46291375  0.81117992  1
  S  S31  1  0.56053702  0.46808055  0.18771362  1
  S  S32  1  0.91786850  0.51016949  0.99435010  1
  S  S33  1  0.08231738  0.48906903  0.01852825  1
  S  S34  1  0.66034900  0.48830237  0.88234091  1
  S  S35  1  0.33296369  0.48632397  0.10688525  1
  S  S36  1  0.59737862  0.00353369  0.64375108  1
  S  S37  1  0.40323445  0.05821404  0.34934077  1
  S  S38  1  0.24997391  0.52833466  0.32826385  1
  S  S39  1  0.76045528  0.42294852  0.69414239  1
  S  S40  1  0.66995604  0.95327154  0.45072884  1
  S  S41  1  0.33587372  0.95564714  0.55046979  1
