# generated using pymatgen
data_Pr2Mn3(SbS3)4
_symmetry_space_group_name_H-M   'P 1'
_cell_length_a   20.02960800
_cell_length_b   3.90410600
_cell_length_c   14.95364829
_cell_angle_alpha   90.00000000
_cell_angle_beta   126.33350609
_cell_angle_gamma   90.00000000
_symmetry_Int_Tables_number   1
_chemical_formula_structural   Pr2Mn3(SbS3)4
_chemical_formula_sum   'Pr4 Mn6 Sb8 S24'
_cell_volume   942.00006694
_cell_formula_units_Z   2
loop_
 _symmetry_equiv_pos_site_id
 _symmetry_equiv_pos_as_xyz
  1  'x, y, z'
loop_
 _atom_site_type_symbol
 _atom_site_label
 _atom_site_symmetry_multiplicity
 _atom_site_fract_x
 _atom_site_fract_y
 _atom_site_fract_z
 _atom_site_occupancy
  Pr  Pr0  1  0.27295245  0.48418501  0.87103119  1
  Pr  Pr1  1  0.73169650  0.48046441  0.13864576  1
  Pr  Pr2  1  0.76573655  0.99967125  0.87670676  1
  Pr  Pr3  1  0.23557863  0.95186492  0.13261184  1
  Mn  Mn4  1  0.30650355  0.43355115  0.61576967  1
  Mn  Mn5  1  0.70516164  0.52471921  0.36472680  1
  Mn  Mn6  1  0.99748104  0.00005017  0.00327386  1
  Mn  Mn7  1  0.79749238  0.02614308  0.62279338  1
  Mn  Mn8  1  0.20880104  0.07441910  0.39015996  1
  Mn  Mn9  1  0.49556031  0.48121696  0.99197753  1
  Sb  Sb10  1  0.88565140  0.88851875  0.45906544  1
  Sb  Sb11  1  0.10929676  0.98717212  0.53887802  1
  Sb  Sb12  1  0.03477799  0.49328748  0.82390609  1
  Sb  Sb13  1  0.96023542  0.47940740  0.19661066  1
  Sb  Sb14  1  0.40366390  0.57745204  0.46319382  1
  Sb  Sb15  1  0.60795197  0.57474789  0.53563500  1
  Sb  Sb16  1  0.52856834  0.95642692  0.80510399  1
  Sb  Sb17  1  0.46929213  0.98645974  0.19488080  1
  S  S18  1  0.94483780  0.99530754  0.81758474  1
  S  S19  1  0.06419217  0.02946934  0.20732666  1
  S  S20  1  0.41412908  0.97689581  0.98841422  1
  S  S21  1  0.58380391  0.00411341  0.00837329  1
  S  S22  1  0.17297604  0.94716837  0.90671860  1
  S  S23  1  0.82637994  0.99936999  0.11023263  1
  S  S24  1  0.09682344  0.48124485  0.64099139  1
  S  S25  1  0.91028453  0.43203127  0.36113513  1
  S  S26  1  0.73341978  0.02859627  0.30972943  1
  S  S27  1  0.26316166  0.95849145  0.68518190  1
  S  S28  1  0.18240058  0.54371215  0.45048474  1
  S  S29  1  0.82207782  0.53574911  0.55631498  1
  S  S30  1  0.43830991  0.46364284  0.81108240  1
  S  S31  1  0.56080438  0.46779240  0.18775123  1
  S  S32  1  0.91779862  0.51074383  0.99431782  1
  S  S33  1  0.08244918  0.48972006  0.01838059  1
  S  S34  1  0.66057925  0.48765610  0.88277095  1
  S  S35  1  0.33320922  0.48684192  0.10750707  1
  S  S36  1  0.59753382  0.00288838  0.64398313  1
  S  S37  1  0.40315016  0.05794817  0.34915026  1
  S  S38  1  0.25020663  0.52751042  0.32852798  1
  S  S39  1  0.76024805  0.42303097  0.69366773  1
  S  S40  1  0.67029487  0.95282707  0.45089924  1
  S  S41  1  0.33577449  0.95528318  0.55044253  1
