# generated using pymatgen
data_Pr2Mn3(SbS3)4
_symmetry_space_group_name_H-M   'P 1'
_cell_length_a   20.02960800
_cell_length_b   3.90410600
_cell_length_c   14.95364829
_cell_angle_alpha   90.00000000
_cell_angle_beta   126.33350609
_cell_angle_gamma   90.00000000
_symmetry_Int_Tables_number   1
_chemical_formula_structural   Pr2Mn3(SbS3)4
_chemical_formula_sum   'Pr4 Mn6 Sb8 S24'
_cell_volume   942.00006694
_cell_formula_units_Z   2
loop_
 _symmetry_equiv_pos_site_id
 _symmetry_equiv_pos_as_xyz
  1  'x, y, z'
loop_
 _atom_site_type_symbol
 _atom_site_label
 _atom_site_symmetry_multiplicity
 _atom_site_fract_x
 _atom_site_fract_y
 _atom_site_fract_z
 _atom_site_occupancy
  Pr  Pr0  1  0.27287167  0.48390366  0.87111679  1
  Pr  Pr1  1  0.73172352  0.48038914  0.13848207  1
  Pr  Pr2  1  0.76563573  0.99890167  0.87682396  1
  Pr  Pr3  1  0.23562764  0.95234146  0.13266901  1
  Mn  Mn4  1  0.30640807  0.43363842  0.61548537  1
  Mn  Mn5  1  0.70506306  0.52437280  0.36456301  1
  Mn  Mn6  1  0.99759158  0.00050465  0.00358217  1
  Mn  Mn7  1  0.79754024  0.02607844  0.62286214  1
  Mn  Mn8  1  0.20884854  0.07438505  0.39013997  1
  Mn  Mn9  1  0.49542456  0.48143022  0.99189977  1
  Sb  Sb10  1  0.88553732  0.88872326  0.45902310  1
  Sb  Sb11  1  0.10938191  0.98687332  0.53913674  1
  Sb  Sb12  1  0.03472445  0.49364919  0.82373248  1
  Sb  Sb13  1  0.96009567  0.47910789  0.19648256  1
  Sb  Sb14  1  0.40326208  0.57744167  0.46278693  1
  Sb  Sb15  1  0.60804165  0.57427417  0.53580841  1
  Sb  Sb16  1  0.52877028  0.95601417  0.80532551  1
  Sb  Sb17  1  0.46927097  0.98597054  0.19494191  1
  S  S18  1  0.94489679  0.99592965  0.81763672  1
  S  S19  1  0.06389738  0.02930020  0.20699393  1
  S  S20  1  0.41403300  0.97622081  0.98850877  1
  S  S21  1  0.58397506  0.00496634  0.00853483  1
  S  S22  1  0.17297796  0.94745199  0.90735613  1
  S  S23  1  0.82640161  0.99927702  0.11015019  1
  S  S24  1  0.09676694  0.48155509  0.64054676  1
  S  S25  1  0.91037700  0.43191625  0.36106851  1
  S  S26  1  0.73330992  0.02891474  0.30967158  1
  S  S27  1  0.26367749  0.95833384  0.68585350  1
  S  S28  1  0.18235337  0.54347529  0.45049005  1
  S  S29  1  0.82196981  0.53571033  0.55604056  1
  S  S30  1  0.43826627  0.46390182  0.81096843  1
  S  S31  1  0.56099589  0.46746983  0.18773623  1
  S  S32  1  0.91781354  0.51141916  0.99439198  1
  S  S33  1  0.08260125  0.49060627  0.01812289  1
  S  S34  1  0.66076296  0.48711622  0.88309785  1
  S  S35  1  0.33349158  0.48722565  0.10841612  1
  S  S36  1  0.59774201  0.00258656  0.64416277  1
  S  S37  1  0.40288439  0.05767476  0.34882343  1
  S  S38  1  0.25038755  0.52656900  0.32864307  1
  S  S39  1  0.76003911  0.42295175  0.69308390  1
  S  S40  1  0.67062044  0.95232754  0.45114336  1
  S  S41  1  0.33574709  0.95505373  0.55036257  1
