# generated using pymatgen
data_Pr2Mn3(SbS3)4
_symmetry_space_group_name_H-M   'P 1'
_cell_length_a   20.02960800
_cell_length_b   3.90410600
_cell_length_c   14.95364829
_cell_angle_alpha   90.00000000
_cell_angle_beta   126.33350609
_cell_angle_gamma   90.00000000
_symmetry_Int_Tables_number   1
_chemical_formula_structural   Pr2Mn3(SbS3)4
_chemical_formula_sum   'Pr4 Mn6 Sb8 S24'
_cell_volume   942.00006694
_cell_formula_units_Z   2
loop_
 _symmetry_equiv_pos_site_id
 _symmetry_equiv_pos_as_xyz
  1  'x, y, z'
loop_
 _atom_site_type_symbol
 _atom_site_label
 _atom_site_symmetry_multiplicity
 _atom_site_fract_x
 _atom_site_fract_y
 _atom_site_fract_z
 _atom_site_occupancy
  Pr  Pr0  1  0.26665387  0.48588296  0.86376949  1
  Pr  Pr1  1  0.73608090  0.51302376  0.13590334  1
  Pr  Pr2  1  0.76273099  0.01378133  0.86234273  1
  Pr  Pr3  1  0.23552210  0.00575312  0.13641462  1
  Mn  Mn4  1  0.28928165  0.47672759  0.59688107  1
  Mn  Mn5  1  0.68987046  0.49377951  0.37393408  1
  Mn  Mn6  1  0.00850580  0.98935186  0.01832331  1
  Mn  Mn7  1  0.80449670  0.01392145  0.61697504  1
  Mn  Mn8  1  0.19809604  0.98239912  0.37714421  1
  Mn  Mn9  1  0.49326542  0.47651153  0.99033802  1
  Sb  Sb10  1  0.88980855  0.98229020  0.44977946  1
  Sb  Sb11  1  0.11229386  0.97577120  0.54754174  1
  Sb  Sb12  1  0.04054120  0.52044097  0.82266076  1
  Sb  Sb13  1  0.96439365  0.49948921  0.18344055  1
  Sb  Sb14  1  0.39600169  0.50710920  0.45182426  1
  Sb  Sb15  1  0.60562607  0.47314744  0.54707016  1
  Sb  Sb16  1  0.53351086  0.99916263  0.80928752  1
  Sb  Sb17  1  0.46267014  0.01646666  0.18484420  1
  S  S18  1  0.93792869  0.99563327  0.80496415  1
  S  S19  1  0.06643618  0.98419670  0.20072846  1
  S  S20  1  0.40991194  0.97182932  0.98098265  1
  S  S21  1  0.57881395  0.99957334  0.00933091  1
  S  S22  1  0.17186300  0.02857830  0.90014426  1
  S  S23  1  0.82378214  0.04905211  0.09603204  1
  S  S24  1  0.09598351  0.47960914  0.64661433  1
  S  S25  1  0.91210590  0.48018616  0.35497411  1
  S  S26  1  0.74069456  0.94655160  0.30274854  1
  S  S27  1  0.26331093  0.00609200  0.70969121  1
  S  S28  1  0.15822726  0.48208016  0.42928248  1
  S  S29  1  0.82561908  0.48637324  0.54868401  1
  S  S30  1  0.43226511  0.49712917  0.79985579  1
  S  S31  1  0.55861679  0.51088134  0.18395864  1
  S  S32  1  0.90956022  0.48333085  0.98731132  1
  S  S33  1  0.08999010  0.46586515  0.02450052  1
  S  S34  1  0.66437780  0.50896643  0.88571581  1
  S  S35  1  0.33117473  0.50990128  0.09669463  1
  S  S36  1  0.59611628  0.98351955  0.65413514  1
  S  S37  1  0.40543573  0.98655537  0.35077400  1
  S  S38  1  0.24016222  0.46278426  0.30916395  1
  S  S39  1  0.76249491  0.50062385  0.69868719  1
  S  S40  1  0.66814703  0.02684420  0.45461623  1
  S  S41  1  0.32287077  0.97399172  0.54933890  1
