# generated using pymatgen
data_Pr2Mn3(SbS3)4
_symmetry_space_group_name_H-M   'P 1'
_cell_length_a   20.02960800
_cell_length_b   3.90410600
_cell_length_c   14.95364829
_cell_angle_alpha   90.00000000
_cell_angle_beta   126.33350609
_cell_angle_gamma   90.00000000
_symmetry_Int_Tables_number   1
_chemical_formula_structural   Pr2Mn3(SbS3)4
_chemical_formula_sum   'Pr4 Mn6 Sb8 S24'
_cell_volume   942.00006694
_cell_formula_units_Z   2
loop_
 _symmetry_equiv_pos_site_id
 _symmetry_equiv_pos_as_xyz
  1  'x, y, z'
loop_
 _atom_site_type_symbol
 _atom_site_label
 _atom_site_symmetry_multiplicity
 _atom_site_fract_x
 _atom_site_fract_y
 _atom_site_fract_z
 _atom_site_occupancy
  Pr  Pr0  1  0.27272599  0.48358170  0.87117388  1
  Pr  Pr1  1  0.73177626  0.48006684  0.13831389  1
  Pr  Pr2  1  0.76554267  0.99814316  0.87692655  1
  Pr  Pr3  1  0.23559370  0.95288693  0.13257065  1
  Mn  Mn4  1  0.30638925  0.43357388  0.61529939  1
  Mn  Mn5  1  0.70487598  0.52422377  0.36425007  1
  Mn  Mn6  1  0.99771689  0.00082061  0.00386531  1
  Mn  Mn7  1  0.79757878  0.02626183  0.62286638  1
  Mn  Mn8  1  0.20888238  0.07423627  0.39010105  1
  Mn  Mn9  1  0.49531326  0.48174338  0.99186348  1
  Sb  Sb10  1  0.88541744  0.88879336  0.45902353  1
  Sb  Sb11  1  0.10942822  0.98676767  0.53927377  1
  Sb  Sb12  1  0.03464329  0.49379759  0.82353838  1
  Sb  Sb13  1  0.95998300  0.47914263  0.19633220  1
  Sb  Sb14  1  0.40286174  0.57770736  0.46240151  1
  Sb  Sb15  1  0.60804996  0.57371133  0.53587393  1
  Sb  Sb16  1  0.52894982  0.95546921  0.80551212  1
  Sb  Sb17  1  0.46926357  0.98552969  0.19499692  1
  S  S18  1  0.94495759  0.99663954  0.81774797  1
  S  S19  1  0.06367682  0.02955928  0.20655435  1
  S  S20  1  0.41402609  0.97544061  0.98853250  1
  S  S21  1  0.58411744  0.00619724  0.00857206  1
  S  S22  1  0.17298840  0.94794528  0.90786312  1
  S  S23  1  0.82641327  0.99922744  0.11006554  1
  S  S24  1  0.09666182  0.48174008  0.64007335  1
  S  S25  1  0.91044599  0.43228667  0.36105709  1
  S  S26  1  0.73320894  0.02910577  0.30965953  1
  S  S27  1  0.26408349  0.95775791  0.68640960  1
  S  S28  1  0.18233068  0.54272537  0.45051492  1
  S  S29  1  0.82193284  0.53605834  0.55588251  1
  S  S30  1  0.43816561  0.46443286  0.81089674  1
  S  S31  1  0.56115852  0.46802590  0.18770855  1
  S  S32  1  0.91783254  0.51193262  0.99443923  1
  S  S33  1  0.08285724  0.49158293  0.01810714  1
  S  S34  1  0.66098566  0.48701360  0.88338713  1
  S  S35  1  0.33366616  0.48800612  0.10907398  1
  S  S36  1  0.59785751  0.00264372  0.64425446  1
  S  S37  1  0.40271587  0.05726788  0.34855406  1
  S  S38  1  0.25059984  0.52572107  0.32873925  1
  S  S39  1  0.75983785  0.42277464  0.69249580  1
  S  S40  1  0.67085980  0.95128278  0.45126986  1
  S  S41  1  0.33576933  0.95530956  0.55031174  1
