# generated using pymatgen
data_Pr2Mn3(SbS3)4
_symmetry_space_group_name_H-M   'P 1'
_cell_length_a   20.02960800
_cell_length_b   3.90410600
_cell_length_c   14.95364829
_cell_angle_alpha   90.00000000
_cell_angle_beta   126.33350609
_cell_angle_gamma   90.00000000
_symmetry_Int_Tables_number   1
_chemical_formula_structural   Pr2Mn3(SbS3)4
_chemical_formula_sum   'Pr4 Mn6 Sb8 S24'
_cell_volume   942.00006694
_cell_formula_units_Z   2
loop_
 _symmetry_equiv_pos_site_id
 _symmetry_equiv_pos_as_xyz
  1  'x, y, z'
loop_
 _atom_site_type_symbol
 _atom_site_label
 _atom_site_symmetry_multiplicity
 _atom_site_fract_x
 _atom_site_fract_y
 _atom_site_fract_z
 _atom_site_occupancy
  Pr  Pr0  1  0.27258322  0.48302048  0.87127714  1
  Pr  Pr1  1  0.73177070  0.47992446  0.13813386  1
  Pr  Pr2  1  0.76545414  0.99732379  0.87699263  1
  Pr  Pr3  1  0.23559698  0.95349116  0.13250036  1
  Mn  Mn4  1  0.30637932  0.43374722  0.61516003  1
  Mn  Mn5  1  0.70470960  0.52368008  0.36388916  1
  Mn  Mn6  1  0.99777775  0.00094072  0.00403582  1
  Mn  Mn7  1  0.79767708  0.02683582  0.62302926  1
  Mn  Mn8  1  0.20903598  0.07394786  0.39016272  1
  Mn  Mn9  1  0.49515028  0.48207371  0.99178311  1
  Sb  Sb10  1  0.88527556  0.88888067  0.45891383  1
  Sb  Sb11  1  0.10947275  0.98661949  0.53942912  1
  Sb  Sb12  1  0.03455306  0.49382126  0.82332037  1
  Sb  Sb13  1  0.95985998  0.47894921  0.19615373  1
  Sb  Sb14  1  0.40249311  0.57762390  0.46205843  1
  Sb  Sb15  1  0.60807097  0.57322442  0.53596689  1
  Sb  Sb16  1  0.52910463  0.95512386  0.80565274  1
  Sb  Sb17  1  0.46924538  0.98513514  0.19506359  1
  S  S18  1  0.94499750  0.99704169  0.81776614  1
  S  S19  1  0.06352287  0.02951687  0.20611394  1
  S  S20  1  0.41421124  0.97491679  0.98875653  1
  S  S21  1  0.58419456  0.00674370  0.00856965  1
  S  S22  1  0.17290996  0.94834676  0.90815815  1
  S  S23  1  0.82640468  0.99891127  0.10987822  1
  S  S24  1  0.09664317  0.48137318  0.63977375  1
  S  S25  1  0.91049055  0.43297942  0.36114844  1
  S  S26  1  0.73307462  0.02897925  0.30974953  1
  S  S27  1  0.26451086  0.95730963  0.68703667  1
  S  S28  1  0.18237820  0.54164349  0.45065433  1
  S  S29  1  0.82210825  0.53648726  0.55586953  1
  S  S30  1  0.43796669  0.46484336  0.81074252  1
  S  S31  1  0.56127206  0.46872006  0.18770560  1
  S  S32  1  0.91790325  0.51267879  0.99443859  1
  S  S33  1  0.08314137  0.49247139  0.01818986  1
  S  S34  1  0.66118941  0.48658879  0.88371873  1
  S  S35  1  0.33379557  0.48889883  0.10969706  1
  S  S36  1  0.59789886  0.00265453  0.64435083  1
  S  S37  1  0.40268275  0.05687644  0.34847717  1
  S  S38  1  0.25078087  0.52517235  0.32872773  1
  S  S39  1  0.75961007  0.42287638  0.69200578  1
  S  S40  1  0.67106875  0.95047276  0.45134446  1
  S  S41  1  0.33591253  0.95526827  0.55029985  1
