# generated using pymatgen
data_Pr2Mn3(SbS3)4
_symmetry_space_group_name_H-M   'P 1'
_cell_length_a   20.02960800
_cell_length_b   3.90410600
_cell_length_c   14.95364829
_cell_angle_alpha   90.00000000
_cell_angle_beta   126.33350609
_cell_angle_gamma   90.00000000
_symmetry_Int_Tables_number   1
_chemical_formula_structural   Pr2Mn3(SbS3)4
_chemical_formula_sum   'Pr4 Mn6 Sb8 S24'
_cell_volume   942.00006694
_cell_formula_units_Z   2
loop_
 _symmetry_equiv_pos_site_id
 _symmetry_equiv_pos_as_xyz
  1  'x, y, z'
loop_
 _atom_site_type_symbol
 _atom_site_label
 _atom_site_symmetry_multiplicity
 _atom_site_fract_x
 _atom_site_fract_y
 _atom_site_fract_z
 _atom_site_occupancy
  Pr  Pr0  1  0.27241062  0.48240830  0.87137839  1
  Pr  Pr1  1  0.73177376  0.47973238  0.13799666  1
  Pr  Pr2  1  0.76540500  0.99664977  0.87720545  1
  Pr  Pr3  1  0.23557231  0.95411045  0.13233877  1
  Mn  Mn4  1  0.30630451  0.43414588  0.61496585  1
  Mn  Mn5  1  0.70450056  0.52310117  0.36348871  1
  Mn  Mn6  1  0.99787262  0.00097113  0.00419543  1
  Mn  Mn7  1  0.79775619  0.02740808  0.62315793  1
  Mn  Mn8  1  0.20917814  0.07345593  0.39037683  1
  Mn  Mn9  1  0.49493820  0.48262306  0.99158115  1
  Sb  Sb10  1  0.88507820  0.88913217  0.45875643  1
  Sb  Sb11  1  0.10951268  0.98642440  0.53951697  1
  Sb  Sb12  1  0.03450423  0.49392841  0.82315629  1
  Sb  Sb13  1  0.95977020  0.47865983  0.19604315  1
  Sb  Sb14  1  0.40224550  0.57753590  0.46183022  1
  Sb  Sb15  1  0.60807340  0.57258758  0.53598764  1
  Sb  Sb16  1  0.52921915  0.95507986  0.80575416  1
  Sb  Sb17  1  0.46928358  0.98475319  0.19517877  1
  S  S18  1  0.94508344  0.99747829  0.81782124  1
  S  S19  1  0.06328913  0.03001298  0.20567474  1
  S  S20  1  0.41444892  0.97493751  0.98897626  1
  S  S21  1  0.58416560  0.00709466  0.00850221  1
  S  S22  1  0.17278689  0.94837737  0.90831439  1
  S  S23  1  0.82637229  0.99824127  0.10968349  1
  S  S24  1  0.09659785  0.48120629  0.63942319  1
  S  S25  1  0.91057173  0.43401804  0.36136926  1
  S  S26  1  0.73295885  0.02897856  0.30988339  1
  S  S27  1  0.26486118  0.95653146  0.68771525  1
  S  S28  1  0.18238357  0.54034795  0.45068922  1
  S  S29  1  0.82214944  0.53691450  0.55590461  1
  S  S30  1  0.43790594  0.46540713  0.81062416  1
  S  S31  1  0.56129777  0.46922467  0.18771391  1
  S  S32  1  0.91793985  0.51284203  0.99444858  1
  S  S33  1  0.08347282  0.49331223  0.01838423  1
  S  S34  1  0.66138527  0.48642961  0.88404193  1
  S  S35  1  0.33391067  0.49015807  0.11032216  1
  S  S36  1  0.59801331  0.00266726  0.64462458  1
  S  S37  1  0.40255379  0.05672654  0.34831515  1
  S  S38  1  0.25088853  0.52466238  0.32859127  1
  S  S39  1  0.75940497  0.42331963  0.69148292  1
  S  S40  1  0.67137517  0.95001904  0.45148554  1
  S  S41  1  0.33617877  0.95495788  0.55052285  1
