# generated using pymatgen
data_Pr2Mn3(SbS3)4
_symmetry_space_group_name_H-M   'P 1'
_cell_length_a   20.02960800
_cell_length_b   3.90410600
_cell_length_c   14.95364829
_cell_angle_alpha   90.00000000
_cell_angle_beta   126.33350609
_cell_angle_gamma   90.00000000
_symmetry_Int_Tables_number   1
_chemical_formula_structural   Pr2Mn3(SbS3)4
_chemical_formula_sum   'Pr4 Mn6 Sb8 S24'
_cell_volume   942.00006694
_cell_formula_units_Z   2
loop_
 _symmetry_equiv_pos_site_id
 _symmetry_equiv_pos_as_xyz
  1  'x, y, z'
loop_
 _atom_site_type_symbol
 _atom_site_label
 _atom_site_symmetry_multiplicity
 _atom_site_fract_x
 _atom_site_fract_y
 _atom_site_fract_z
 _atom_site_occupancy
  Pr  Pr0  1  0.27232622  0.48193176  0.87154199  1
  Pr  Pr1  1  0.73179937  0.47927461  0.13795896  1
  Pr  Pr2  1  0.76538578  0.99611754  0.87743312  1
  Pr  Pr3  1  0.23553635  0.95457429  0.13213200  1
  Mn  Mn4  1  0.30626876  0.43474184  0.61478398  1
  Mn  Mn5  1  0.70427609  0.52265587  0.36305585  1
  Mn  Mn6  1  0.99786069  0.00069505  0.00420569  1
  Mn  Mn7  1  0.79773417  0.02821253  0.62327961  1
  Mn  Mn8  1  0.20929939  0.07290464  0.39056750  1
  Mn  Mn9  1  0.49480299  0.48316624  0.99138246  1
  Sb  Sb10  1  0.88487539  0.88917036  0.45862049  1
  Sb  Sb11  1  0.10946033  0.98620050  0.53959571  1
  Sb  Sb12  1  0.03441831  0.49389547  0.82297242  1
  Sb  Sb13  1  0.95967342  0.47815362  0.19591021  1
  Sb  Sb14  1  0.40201431  0.57741931  0.46162371  1
  Sb  Sb15  1  0.60806870  0.57222895  0.53595949  1
  Sb  Sb16  1  0.52929714  0.95513866  0.80589698  1
  Sb  Sb17  1  0.46934075  0.98440740  0.19527447  1
  S  S18  1  0.94510590  0.99776722  0.81794594  1
  S  S19  1  0.06298793  0.03028471  0.20525728  1
  S  S20  1  0.41459842  0.97503543  0.98887442  1
  S  S21  1  0.58410878  0.00713359  0.00834913  1
  S  S22  1  0.17260848  0.94894395  0.90840371  1
  S  S23  1  0.82632869  0.99793914  0.10955007  1
  S  S24  1  0.09663517  0.48057565  0.63926313  1
  S  S25  1  0.91067298  0.43528652  0.36170334  1
  S  S26  1  0.73276848  0.02877640  0.30990597  1
  S  S27  1  0.26503759  0.95562554  0.68818513  1
  S  S28  1  0.18228588  0.53873680  0.45055011  1
  S  S29  1  0.82217129  0.53746038  0.55607386  1
  S  S30  1  0.43793871  0.46582402  0.81057067  1
  S  S31  1  0.56144113  0.46933261  0.18773755  1
  S  S32  1  0.91792378  0.51273970  0.99423997  1
  S  S33  1  0.08368793  0.49437641  0.01849475  1
  S  S34  1  0.66162952  0.48604397  0.88433241  1
  S  S35  1  0.33401937  0.49111084  0.11101206  1
  S  S36  1  0.59801924  0.00246874  0.64474004  1
  S  S37  1  0.40237099  0.05611026  0.34814027  1
  S  S38  1  0.25078737  0.52414477  0.32832729  1
  S  S39  1  0.75918971  0.42400632  0.69094572  1
  S  S40  1  0.67164161  0.94954206  0.45154529  1
  S  S41  1  0.33641934  0.95468834  0.55072523  1
