# generated using pymatgen
data_Pr2Mn3(SbS3)4
_symmetry_space_group_name_H-M   'P 1'
_cell_length_a   20.02960800
_cell_length_b   3.90410600
_cell_length_c   14.95364829
_cell_angle_alpha   90.00000000
_cell_angle_beta   126.33350609
_cell_angle_gamma   90.00000000
_symmetry_Int_Tables_number   1
_chemical_formula_structural   Pr2Mn3(SbS3)4
_chemical_formula_sum   'Pr4 Mn6 Sb8 S24'
_cell_volume   942.00006694
_cell_formula_units_Z   2
loop_
 _symmetry_equiv_pos_site_id
 _symmetry_equiv_pos_as_xyz
  1  'x, y, z'
loop_
 _atom_site_type_symbol
 _atom_site_label
 _atom_site_symmetry_multiplicity
 _atom_site_fract_x
 _atom_site_fract_y
 _atom_site_fract_z
 _atom_site_occupancy
  Pr  Pr0  1  0.27222037  0.48165611  0.87162841  1
  Pr  Pr1  1  0.73182971  0.47890453  0.13791682  1
  Pr  Pr2  1  0.76539262  0.99573369  0.87769662  1
  Pr  Pr3  1  0.23547699  0.95498366  0.13195110  1
  Mn  Mn4  1  0.30623878  0.43527499  0.61451061  1
  Mn  Mn5  1  0.70407111  0.52230642  0.36277328  1
  Mn  Mn6  1  0.99795006  0.00041308  0.00424002  1
  Mn  Mn7  1  0.79770393  0.02899129  0.62325989  1
  Mn  Mn8  1  0.20934648  0.07259679  0.39067013  1
  Mn  Mn9  1  0.49480580  0.48357876  0.99127283  1
  Sb  Sb10  1  0.88473207  0.88907171  0.45852229  1
  Sb  Sb11  1  0.10941317  0.98563166  0.53970239  1
  Sb  Sb12  1  0.03437261  0.49399979  0.82281115  1
  Sb  Sb13  1  0.95958608  0.47783907  0.19576894  1
  Sb  Sb14  1  0.40181495  0.57731963  0.46143506  1
  Sb  Sb15  1  0.60801946  0.57175339  0.53595566  1
  Sb  Sb16  1  0.52938771  0.95496317  0.80598048  1
  Sb  Sb17  1  0.46941281  0.98377810  0.19530922  1
  S  S18  1  0.94509239  0.99804959  0.81797248  1
  S  S19  1  0.06257301  0.03053297  0.20469713  1
  S  S20  1  0.41480341  0.97534651  0.98868303  1
  S  S21  1  0.58411509  0.00717816  0.00817306  1
  S  S22  1  0.17254770  0.94938952  0.90864515  1
  S  S23  1  0.82636144  0.99780601  0.10950145  1
  S  S24  1  0.09675275  0.47985283  0.63897925  1
  S  S25  1  0.91080520  0.43656237  0.36196511  1
  S  S26  1  0.73268053  0.02854423  0.30997348  1
  S  S27  1  0.26515686  0.95506632  0.68862393  1
  S  S28  1  0.18216703  0.53692252  0.45046745  1
  S  S29  1  0.82219030  0.53765659  0.55620291  1
  S  S30  1  0.43788014  0.46590171  0.81037616  1
  S  S31  1  0.56164131  0.47034689  0.18781934  1
  S  S32  1  0.91791741  0.51264714  0.99397979  1
  S  S33  1  0.08381109  0.49435717  0.01853536  1
  S  S34  1  0.66174626  0.48591240  0.88467931  1
  S  S35  1  0.33406834  0.49223295  0.11162782  1
  S  S36  1  0.59816191  0.00217485  0.64485173  1
  S  S37  1  0.40221504  0.05619905  0.34795144  1
  S  S38  1  0.25076628  0.52337665  0.32812957  1
  S  S39  1  0.75890454  0.42440043  0.69041277  1
  S  S40  1  0.67190240  0.94842522  0.45153881  1
  S  S41  1  0.33669330  0.95440283  0.55113422  1
