# generated using pymatgen
data_Pr2Mn3(SbS3)4
_symmetry_space_group_name_H-M   'P 1'
_cell_length_a   20.02960800
_cell_length_b   3.90410600
_cell_length_c   14.95364829
_cell_angle_alpha   90.00000000
_cell_angle_beta   126.33350609
_cell_angle_gamma   90.00000000
_symmetry_Int_Tables_number   1
_chemical_formula_structural   Pr2Mn3(SbS3)4
_chemical_formula_sum   'Pr4 Mn6 Sb8 S24'
_cell_volume   942.00006694
_cell_formula_units_Z   2
loop_
 _symmetry_equiv_pos_site_id
 _symmetry_equiv_pos_as_xyz
  1  'x, y, z'
loop_
 _atom_site_type_symbol
 _atom_site_label
 _atom_site_symmetry_multiplicity
 _atom_site_fract_x
 _atom_site_fract_y
 _atom_site_fract_z
 _atom_site_occupancy
  Pr  Pr0  1  0.27214512  0.48162165  0.87170790  1
  Pr  Pr1  1  0.73182697  0.47859743  0.13786817  1
  Pr  Pr2  1  0.76543979  0.99540458  0.87794476  1
  Pr  Pr3  1  0.23537361  0.95543474  0.13174175  1
  Mn  Mn4  1  0.30630145  0.43585345  0.61433059  1
  Mn  Mn5  1  0.70390464  0.52166931  0.36249322  1
  Mn  Mn6  1  0.99800925  0.00027039  0.00435229  1
  Mn  Mn7  1  0.79768981  0.02961463  0.62317853  1
  Mn  Mn8  1  0.20947185  0.07226952  0.39079575  1
  Mn  Mn9  1  0.49488052  0.48404778  0.99116669  1
  Sb  Sb10  1  0.88464171  0.88888473  0.45845508  1
  Sb  Sb11  1  0.10938528  0.98521498  0.53979498  1
  Sb  Sb12  1  0.03434453  0.49423290  0.82267205  1
  Sb  Sb13  1  0.95955349  0.47763095  0.19558303  1
  Sb  Sb14  1  0.40172974  0.57738731  0.46138433  1
  Sb  Sb15  1  0.60796417  0.57134222  0.53596090  1
  Sb  Sb16  1  0.52941423  0.95497308  0.80599173  1
  Sb  Sb17  1  0.46945587  0.98321504  0.19531319  1
  S  S18  1  0.94494300  0.99842027  0.81802412  1
  S  S19  1  0.06230092  0.03059966  0.20425028  1
  S  S20  1  0.41497665  0.97575111  0.98837804  1
  S  S21  1  0.58399093  0.00737934  0.00796224  1
  S  S22  1  0.17256207  0.94943865  0.90891655  1
  S  S23  1  0.82631651  0.99819791  0.10928099  1
  S  S24  1  0.09688060  0.47882306  0.63882037  1
  S  S25  1  0.91083485  0.43802323  0.36202110  1
  S  S26  1  0.73259792  0.02806319  0.30998480  1
  S  S27  1  0.26536569  0.95485701  0.68905772  1
  S  S28  1  0.18205661  0.53541850  0.45044405  1
  S  S29  1  0.82217364  0.53766857  0.55629707  1
  S  S30  1  0.43774983  0.46549674  0.80994052  1
  S  S31  1  0.56185773  0.47131847  0.18789349  1
  S  S32  1  0.91793398  0.51210276  0.99373546  1
  S  S33  1  0.08394452  0.49441195  0.01863381  1
  S  S34  1  0.66171994  0.48490690  0.88481327  1
  S  S35  1  0.33409198  0.49324395  0.11213529  1
  S  S36  1  0.59810918  0.00206610  0.64481199  1
  S  S37  1  0.40209216  0.05537805  0.34781633  1
  S  S38  1  0.25071734  0.52251761  0.32794105  1
  S  S39  1  0.75859476  0.42500596  0.68987703  1
  S  S40  1  0.67219743  0.94733584  0.45150934  1
  S  S41  1  0.33680991  0.95409929  0.55135806  1
