# generated using pymatgen
data_Pr2Mn3(SbS3)4
_symmetry_space_group_name_H-M   'P 1'
_cell_length_a   20.02960800
_cell_length_b   3.90410600
_cell_length_c   14.95364829
_cell_angle_alpha   90.00000000
_cell_angle_beta   126.33350609
_cell_angle_gamma   90.00000000
_symmetry_Int_Tables_number   1
_chemical_formula_structural   Pr2Mn3(SbS3)4
_chemical_formula_sum   'Pr4 Mn6 Sb8 S24'
_cell_volume   942.00006694
_cell_formula_units_Z   2
loop_
 _symmetry_equiv_pos_site_id
 _symmetry_equiv_pos_as_xyz
  1  'x, y, z'
loop_
 _atom_site_type_symbol
 _atom_site_label
 _atom_site_symmetry_multiplicity
 _atom_site_fract_x
 _atom_site_fract_y
 _atom_site_fract_z
 _atom_site_occupancy
  Pr  Pr0  1  0.27199871  0.48139429  0.87177112  1
  Pr  Pr1  1  0.73179989  0.47839606  0.13784627  1
  Pr  Pr2  1  0.76552828  0.99502820  0.87827074  1
  Pr  Pr3  1  0.23528391  0.95585713  0.13153239  1
  Mn  Mn4  1  0.30624241  0.43668514  0.61403828  1
  Mn  Mn5  1  0.70368865  0.52096681  0.36205864  1
  Mn  Mn6  1  0.99806439  0.99994412  0.00456554  1
  Mn  Mn7  1  0.79766986  0.03016950  0.62307585  1
  Mn  Mn8  1  0.20959850  0.07196171  0.39081721  1
  Mn  Mn9  1  0.49496009  0.48460108  0.99110253  1
  Sb  Sb10  1  0.88457496  0.88876166  0.45836989  1
  Sb  Sb11  1  0.10933693  0.98508143  0.53986304  1
  Sb  Sb12  1  0.03432128  0.49465002  0.82252604  1
  Sb  Sb13  1  0.95953801  0.47727430  0.19538803  1
  Sb  Sb14  1  0.40162971  0.57762312  0.46127179  1
  Sb  Sb15  1  0.60791387  0.57096907  0.53598110  1
  Sb  Sb16  1  0.52943522  0.95476961  0.80601127  1
  Sb  Sb17  1  0.46951194  0.98295595  0.19535806  1
  S  S18  1  0.94481157  0.99889032  0.81816736  1
  S  S19  1  0.06214571  0.03037198  0.20394177  1
  S  S20  1  0.41524544  0.97656139  0.98830401  1
  S  S21  1  0.58385265  0.00800943  0.00777011  1
  S  S22  1  0.17252128  0.94876025  0.90915593  1
  S  S23  1  0.82625286  0.99829344  0.10911737  1
  S  S24  1  0.09693546  0.47747869  0.63856258  1
  S  S25  1  0.91089045  0.43921035  0.36218565  1
  S  S26  1  0.73244679  0.02768156  0.30981911  1
  S  S27  1  0.26562990  0.95498927  0.68946640  1
  S  S28  1  0.18191729  0.53354846  0.45041932  1
  S  S29  1  0.82221161  0.53786319  0.55634214  1
  S  S30  1  0.43764374  0.46465045  0.80966531  1
  S  S31  1  0.56194583  0.47198288  0.18799066  1
  S  S32  1  0.91800666  0.51184629  0.99358336  1
  S  S33  1  0.08414720  0.49451872  0.01875280  1
  S  S34  1  0.66148002  0.48404859  0.88467983  1
  S  S35  1  0.33414399  0.49459361  0.11271850  1
  S  S36  1  0.59810512  0.00213245  0.64466737  1
  S  S37  1  0.40206587  0.05435025  0.34772830  1
  S  S38  1  0.25062614  0.52222844  0.32769073  1
  S  S39  1  0.75819174  0.42550855  0.68922286  1
  S  S40  1  0.67251140  0.94631274  0.45142095  1
  S  S41  1  0.33703864  0.95397896  0.55170380  1
