# generated using pymatgen
data_Pr2Mn3(SbS3)4
_symmetry_space_group_name_H-M   'P 1'
_cell_length_a   20.02960800
_cell_length_b   3.90410600
_cell_length_c   14.95364829
_cell_angle_alpha   90.00000000
_cell_angle_beta   126.33350609
_cell_angle_gamma   90.00000000
_symmetry_Int_Tables_number   1
_chemical_formula_structural   Pr2Mn3(SbS3)4
_chemical_formula_sum   'Pr4 Mn6 Sb8 S24'
_cell_volume   942.00006694
_cell_formula_units_Z   2
loop_
 _symmetry_equiv_pos_site_id
 _symmetry_equiv_pos_as_xyz
  1  'x, y, z'
loop_
 _atom_site_type_symbol
 _atom_site_label
 _atom_site_symmetry_multiplicity
 _atom_site_fract_x
 _atom_site_fract_y
 _atom_site_fract_z
 _atom_site_occupancy
  Pr  Pr0  1  0.27183820  0.48106553  0.87186580  1
  Pr  Pr1  1  0.73178980  0.47820164  0.13776796  1
  Pr  Pr2  1  0.76560702  0.99437646  0.87859014  1
  Pr  Pr3  1  0.23516464  0.95618961  0.13130919  1
  Mn  Mn4  1  0.30616161  0.43736750  0.61379201  1
  Mn  Mn5  1  0.70351515  0.52022370  0.36161012  1
  Mn  Mn6  1  0.99810032  0.99962167  0.00489413  1
  Mn  Mn7  1  0.79760321  0.03057540  0.62305293  1
  Mn  Mn8  1  0.20977109  0.07199069  0.39087932  1
  Mn  Mn9  1  0.49496455  0.48507737  0.99119324  1
  Sb  Sb10  1  0.88446013  0.88849976  0.45827725  1
  Sb  Sb11  1  0.10928790  0.98517940  0.53989740  1
  Sb  Sb12  1  0.03431451  0.49515202  0.82234128  1
  Sb  Sb13  1  0.95949140  0.47702753  0.19515354  1
  Sb  Sb14  1  0.40153509  0.57799014  0.46121281  1
  Sb  Sb15  1  0.60791468  0.57080331  0.53597744  1
  Sb  Sb16  1  0.52944510  0.95460094  0.80600587  1
  Sb  Sb17  1  0.46961926  0.98295341  0.19549653  1
  S  S18  1  0.94467551  0.99899395  0.81821216  1
  S  S19  1  0.06208171  0.03006167  0.20360960  1
  S  S20  1  0.41528323  0.97714780  0.98799218  1
  S  S21  1  0.58372280  0.00831584  0.00763260  1
  S  S22  1  0.17244630  0.94851992  0.90947799  1
  S  S23  1  0.82623088  0.99828656  0.10898355  1
  S  S24  1  0.09704569  0.47602460  0.63844193  1
  S  S25  1  0.91090391  0.44030481  0.36233230  1
  S  S26  1  0.73232540  0.02704884  0.30965505  1
  S  S27  1  0.26585273  0.95554695  0.68978594  1
  S  S28  1  0.18165739  0.53116600  0.45028248  1
  S  S29  1  0.82234358  0.53769434  0.55658875  1
  S  S30  1  0.43766074  0.46352242  0.80946607  1
  S  S31  1  0.56192368  0.47239441  0.18815119  1
  S  S32  1  0.91808789  0.51141034  0.99348066  1
  S  S33  1  0.08433175  0.49417216  0.01893915  1
  S  S34  1  0.66138986  0.48296625  0.88469760  1
  S  S35  1  0.33423865  0.49556565  0.11331553  1
  S  S36  1  0.59809737  0.00163357  0.64446378  1
  S  S37  1  0.40192505  0.05331435  0.34769124  1
  S  S38  1  0.25055003  0.52170366  0.32743284  1
  S  S39  1  0.75763209  0.42617080  0.68843084  1
  S  S40  1  0.67277342  0.94541867  0.45125375  1
  S  S41  1  0.33727385  0.95401731  0.55207347  1
