# generated using pymatgen
data_Pr2Mn3(SbS3)4
_symmetry_space_group_name_H-M   'P 1'
_cell_length_a   20.02960800
_cell_length_b   3.90410600
_cell_length_c   14.95364829
_cell_angle_alpha   90.00000000
_cell_angle_beta   126.33350609
_cell_angle_gamma   90.00000000
_symmetry_Int_Tables_number   1
_chemical_formula_structural   Pr2Mn3(SbS3)4
_chemical_formula_sum   'Pr4 Mn6 Sb8 S24'
_cell_volume   942.00006694
_cell_formula_units_Z   2
loop_
 _symmetry_equiv_pos_site_id
 _symmetry_equiv_pos_as_xyz
  1  'x, y, z'
loop_
 _atom_site_type_symbol
 _atom_site_label
 _atom_site_symmetry_multiplicity
 _atom_site_fract_x
 _atom_site_fract_y
 _atom_site_fract_z
 _atom_site_occupancy
  Pr  Pr0  1  0.27168632  0.48112888  0.87192680  1
  Pr  Pr1  1  0.73175808  0.47799882  0.13773562  1
  Pr  Pr2  1  0.76568154  0.99390045  0.87890999  1
  Pr  Pr3  1  0.23498353  0.95636901  0.13097554  1
  Mn  Mn4  1  0.30613952  0.43756688  0.61358228  1
  Mn  Mn5  1  0.70336184  0.51979029  0.36117938  1
  Mn  Mn6  1  0.99811747  0.99908543  0.00517575  1
  Mn  Mn7  1  0.79757426  0.03102006  0.62300798  1
  Mn  Mn8  1  0.20997241  0.07185035  0.39104631  1
  Mn  Mn9  1  0.49495854  0.48560016  0.99130946  1
  Sb  Sb10  1  0.88433353  0.88821369  0.45810279  1
  Sb  Sb11  1  0.10923619  0.98536364  0.53994481  1
  Sb  Sb12  1  0.03425706  0.49597329  0.82215053  1
  Sb  Sb13  1  0.95947263  0.47663862  0.19492091  1
  Sb  Sb14  1  0.40146934  0.57825745  0.46121420  1
  Sb  Sb15  1  0.60787834  0.57061723  0.53585420  1
  Sb  Sb16  1  0.52948043  0.95465994  0.80600780  1
  Sb  Sb17  1  0.46974697  0.98302778  0.19561900  1
  S  S18  1  0.94463445  0.99849837  0.81852554  1
  S  S19  1  0.06198641  0.03023171  0.20319518  1
  S  S20  1  0.41508615  0.97760766  0.98753787  1
  S  S21  1  0.58359838  0.00909744  0.00749444  1
  S  S22  1  0.17242791  0.94797911  0.90982285  1
  S  S23  1  0.82637993  0.99815193  0.10895381  1
  S  S24  1  0.09708580  0.47470274  0.63835424  1
  S  S25  1  0.91095526  0.44117144  0.36245264  1
  S  S26  1  0.73224978  0.02617551  0.30945738  1
  S  S27  1  0.26602666  0.95593701  0.69010409  1
  S  S28  1  0.18145544  0.52908227  0.45015482  1
  S  S29  1  0.82249216  0.53801347  0.55691451  1
  S  S30  1  0.43767959  0.46258933  0.80937654  1
  S  S31  1  0.56187104  0.47290684  0.18826110  1
  S  S32  1  0.91813702  0.51107078  0.99342721  1
  S  S33  1  0.08440316  0.49395242  0.01899932  1
  S  S34  1  0.66131147  0.48227710  0.88475537  1
  S  S35  1  0.33425642  0.49662458  0.11385996  1
  S  S36  1  0.59811942  0.00075129  0.64430289  1
  S  S37  1  0.40175360  0.05233242  0.34758130  1
  S  S38  1  0.25029901  0.52046897  0.32706434  1
  S  S39  1  0.75708636  0.42755043  0.68775630  1
  S  S40  1  0.67288014  0.94475978  0.45095173  1
  S  S41  1  0.33741604  0.95432989  0.55244200  1
