# generated using pymatgen
data_Pr2Mn3(SbS3)4
_symmetry_space_group_name_H-M   'P 1'
_cell_length_a   20.02960800
_cell_length_b   3.90410600
_cell_length_c   14.95364829
_cell_angle_alpha   90.00000000
_cell_angle_beta   126.33350609
_cell_angle_gamma   90.00000000
_symmetry_Int_Tables_number   1
_chemical_formula_structural   Pr2Mn3(SbS3)4
_chemical_formula_sum   'Pr4 Mn6 Sb8 S24'
_cell_volume   942.00006694
_cell_formula_units_Z   2
loop_
 _symmetry_equiv_pos_site_id
 _symmetry_equiv_pos_as_xyz
  1  'x, y, z'
loop_
 _atom_site_type_symbol
 _atom_site_label
 _atom_site_symmetry_multiplicity
 _atom_site_fract_x
 _atom_site_fract_y
 _atom_site_fract_z
 _atom_site_occupancy
  Pr  Pr0  1  0.27150064  0.48096578  0.87185415  1
  Pr  Pr1  1  0.73170857  0.47779543  0.13773238  1
  Pr  Pr2  1  0.76579914  0.99327146  0.87921565  1
  Pr  Pr3  1  0.23484562  0.95672956  0.13069766  1
  Mn  Mn4  1  0.30604332  0.43792774  0.61332545  1
  Mn  Mn5  1  0.70330929  0.51947135  0.36086098  1
  Mn  Mn6  1  0.99814883  0.99886405  0.00543684  1
  Mn  Mn7  1  0.79755260  0.03132222  0.62300777  1
  Mn  Mn8  1  0.21017782  0.07158370  0.39131256  1
  Mn  Mn9  1  0.49504644  0.48652421  0.99153912  1
  Sb  Sb10  1  0.88423742  0.88790037  0.45798547  1
  Sb  Sb11  1  0.10918999  0.98538874  0.54001176  1
  Sb  Sb12  1  0.03424226  0.49664502  0.82200752  1
  Sb  Sb13  1  0.95947626  0.47624380  0.19468334  1
  Sb  Sb14  1  0.40145184  0.57838583  0.46121490  1
  Sb  Sb15  1  0.60779654  0.57065321  0.53566112  1
  Sb  Sb16  1  0.52949236  0.95487140  0.80603379  1
  Sb  Sb17  1  0.46986060  0.98328403  0.19572088  1
  S  S18  1  0.94461521  0.99796975  0.81864566  1
  S  S19  1  0.06202007  0.03040513  0.20281866  1
  S  S20  1  0.41486620  0.97783079  0.98712960  1
  S  S21  1  0.58349908  0.00925339  0.00740231  1
  S  S22  1  0.17254252  0.94718696  0.91003933  1
  S  S23  1  0.82651760  0.99848227  0.10894065  1
  S  S24  1  0.09715606  0.47336422  0.63837836  1
  S  S25  1  0.91098979  0.44234600  0.36258181  1
  S  S26  1  0.73213310  0.02496891  0.30925164  1
  S  S27  1  0.26623748  0.95632115  0.69057910  1
  S  S28  1  0.18126865  0.52722341  0.44994823  1
  S  S29  1  0.82251968  0.53762809  0.55687789  1
  S  S30  1  0.43767324  0.46195675  0.80921674  1
  S  S31  1  0.56179099  0.47328535  0.18837580  1
  S  S32  1  0.91820189  0.51004528  0.99342356  1
  S  S33  1  0.08439311  0.49358833  0.01894116  1
  S  S34  1  0.66120369  0.48219687  0.88485810  1
  S  S35  1  0.33432976  0.49706626  0.11435518  1
  S  S36  1  0.59820343  0.00024097  0.64425273  1
  S  S37  1  0.40157638  0.05094095  0.34750825  1
  S  S38  1  0.25010450  0.51947134  0.32678134  1
  S  S39  1  0.75667243  0.42897621  0.68729383  1
  S  S40  1  0.67291036  0.94363543  0.45062261  1
  S  S41  1  0.33757624  0.95428983  0.55273699  1
