# generated using pymatgen
data_Pr2Mn3(SbS3)4
_symmetry_space_group_name_H-M   'P 1'
_cell_length_a   20.02960800
_cell_length_b   3.90410600
_cell_length_c   14.95364829
_cell_angle_alpha   90.00000000
_cell_angle_beta   126.33350609
_cell_angle_gamma   90.00000000
_symmetry_Int_Tables_number   1
_chemical_formula_structural   Pr2Mn3(SbS3)4
_chemical_formula_sum   'Pr4 Mn6 Sb8 S24'
_cell_volume   942.00006694
_cell_formula_units_Z   2
loop_
 _symmetry_equiv_pos_site_id
 _symmetry_equiv_pos_as_xyz
  1  'x, y, z'
loop_
 _atom_site_type_symbol
 _atom_site_label
 _atom_site_symmetry_multiplicity
 _atom_site_fract_x
 _atom_site_fract_y
 _atom_site_fract_z
 _atom_site_occupancy
  Pr  Pr0  1  0.26668710  0.48615956  0.86377584  1
  Pr  Pr1  1  0.73608300  0.51293380  0.13598252  1
  Pr  Pr2  1  0.76268869  0.01330186  0.86223792  1
  Pr  Pr3  1  0.23557256  0.00544593  0.13637996  1
  Mn  Mn4  1  0.28912897  0.47679923  0.59655273  1
  Mn  Mn5  1  0.68977189  0.49338713  0.37370198  1
  Mn  Mn6  1  0.00830105  0.98873671  0.01842090  1
  Mn  Mn7  1  0.80471093  0.01324997  0.61728058  1
  Mn  Mn8  1  0.19808580  0.98295499  0.37696976  1
  Mn  Mn9  1  0.49321464  0.47685955  0.99035370  1
  Sb  Sb10  1  0.88980536  0.98263902  0.44981574  1
  Sb  Sb11  1  0.11222077  0.97595749  0.54741636  1
  Sb  Sb12  1  0.04049440  0.52067770  0.82261262  1
  Sb  Sb13  1  0.96418657  0.49927939  0.18330389  1
  Sb  Sb14  1  0.39596669  0.50694501  0.45163197  1
  Sb  Sb15  1  0.60565266  0.47353794  0.54714034  1
  Sb  Sb16  1  0.53339692  0.99875948  0.80915424  1
  Sb  Sb17  1  0.46285912  0.01657667  0.18510813  1
  S  S18  1  0.93791079  0.99557399  0.80479142  1
  S  S19  1  0.06620051  0.98464538  0.20086201  1
  S  S20  1  0.41006274  0.97291465  0.98079855  1
  S  S21  1  0.57851513  0.00142956  0.00911576  1
  S  S22  1  0.17193573  0.02881031  0.90034484  1
  S  S23  1  0.82367164  0.04943890  0.09603522  1
  S  S24  1  0.09601538  0.48028956  0.64666157  1
  S  S25  1  0.91207658  0.48116588  0.35504630  1
  S  S26  1  0.74067301  0.94667163  0.30287160  1
  S  S27  1  0.26340844  0.00645581  0.70943324  1
  S  S28  1  0.15827779  0.48278152  0.42902633  1
  S  S29  1  0.82526404  0.48653178  0.54838514  1
  S  S30  1  0.43239017  0.49694532  0.79986609  1
  S  S31  1  0.55824043  0.51124311  0.18399267  1
  S  S32  1  0.90955703  0.48268473  0.98709146  1
  S  S33  1  0.09027869  0.46628801  0.02484959  1
  S  S34  1  0.66420568  0.50880524  0.88550586  1
  S  S35  1  0.33136815  0.50926204  0.09711360  1
  S  S36  1  0.59633087  0.98371453  0.65428731  1
  S  S37  1  0.40525913  0.98705738  0.35064507  1
  S  S38  1  0.23985552  0.46266873  0.30881036  1
  S  S39  1  0.76232674  0.50094887  0.69835774  1
  S  S40  1  0.66800584  0.02639063  0.45432342  1
  S  S41  1  0.32311023  0.97489922  0.54973086  1
