# generated using pymatgen
data_Pr2Mn3(SbS3)4
_symmetry_space_group_name_H-M   'P 1'
_cell_length_a   20.02960800
_cell_length_b   3.90410600
_cell_length_c   14.95364829
_cell_angle_alpha   90.00000000
_cell_angle_beta   126.33350609
_cell_angle_gamma   90.00000000
_symmetry_Int_Tables_number   1
_chemical_formula_structural   Pr2Mn3(SbS3)4
_chemical_formula_sum   'Pr4 Mn6 Sb8 S24'
_cell_volume   942.00006694
_cell_formula_units_Z   2
loop_
 _symmetry_equiv_pos_site_id
 _symmetry_equiv_pos_as_xyz
  1  'x, y, z'
loop_
 _atom_site_type_symbol
 _atom_site_label
 _atom_site_symmetry_multiplicity
 _atom_site_fract_x
 _atom_site_fract_y
 _atom_site_fract_z
 _atom_site_occupancy
  Pr  Pr0  1  0.27135898  0.48065020  0.87177849  1
  Pr  Pr1  1  0.73170786  0.47760066  0.13776914  1
  Pr  Pr2  1  0.76594781  0.99280923  0.87957935  1
  Pr  Pr3  1  0.23474240  0.95708035  0.13040222  1
  Mn  Mn4  1  0.30600546  0.43846279  0.61304498  1
  Mn  Mn5  1  0.70317624  0.51945580  0.36052831  1
  Mn  Mn6  1  0.99821315  0.99891441  0.00577372  1
  Mn  Mn7  1  0.79764278  0.03154729  0.62312093  1
  Mn  Mn8  1  0.21040737  0.07134435  0.39161776  1
  Mn  Mn9  1  0.49514900  0.48739199  0.99164936  1
  Sb  Sb10  1  0.88413699  0.88763499  0.45790733  1
  Sb  Sb11  1  0.10919219  0.98527601  0.54009271  1
  Sb  Sb12  1  0.03417696  0.49760635  0.82186259  1
  Sb  Sb13  1  0.95951934  0.47573379  0.19451623  1
  Sb  Sb14  1  0.40150660  0.57852510  0.46128905  1
  Sb  Sb15  1  0.60771277  0.57051761  0.53554201  1
  Sb  Sb16  1  0.52946521  0.95488963  0.80601081  1
  Sb  Sb17  1  0.46996359  0.98323748  0.19572045  1
  S  S18  1  0.94460670  0.99749413  0.81870107  1
  S  S19  1  0.06203480  0.03019912  0.20256884  1
  S  S20  1  0.41468681  0.97777078  0.98675390  1
  S  S21  1  0.58338301  0.00967407  0.00729434  1
  S  S22  1  0.17255226  0.94710624  0.91001435  1
  S  S23  1  0.82667836  0.99868423  0.10898317  1
  S  S24  1  0.09717132  0.47196424  0.63829335  1
  S  S25  1  0.91103954  0.44346968  0.36264117  1
  S  S26  1  0.73202704  0.02439014  0.30908103  1
  S  S27  1  0.26634499  0.95671017  0.69081418  1
  S  S28  1  0.18100099  0.52585585  0.44959581  1
  S  S29  1  0.82258772  0.53699796  0.55703643  1
  S  S30  1  0.43770705  0.46163514  0.80907470  1
  S  S31  1  0.56164106  0.47338491  0.18839999  1
  S  S32  1  0.91828176  0.50934587  0.99350086  1
  S  S33  1  0.08428849  0.49348981  0.01873272  1
  S  S34  1  0.66131850  0.48212988  0.88515582  1
  S  S35  1  0.33438592  0.49744415  0.11482755  1
  S  S36  1  0.59833510  0.99963469  0.64423739  1
  S  S37  1  0.40136360  0.04960190  0.34735828  1
  S  S38  1  0.24996559  0.51805281  0.32663973  1
  S  S39  1  0.75627717  0.43045190  0.68682787  1
  S  S40  1  0.67286987  0.94212896  0.45032684  1
  S  S41  1  0.33769428  0.95495491  0.55307785  1
