# generated using pymatgen
data_Pr2Mn3(SbS3)4
_symmetry_space_group_name_H-M   'P 1'
_cell_length_a   20.02960800
_cell_length_b   3.90410600
_cell_length_c   14.95364829
_cell_angle_alpha   90.00000000
_cell_angle_beta   126.33350609
_cell_angle_gamma   90.00000000
_symmetry_Int_Tables_number   1
_chemical_formula_structural   Pr2Mn3(SbS3)4
_chemical_formula_sum   'Pr4 Mn6 Sb8 S24'
_cell_volume   942.00006694
_cell_formula_units_Z   2
loop_
 _symmetry_equiv_pos_site_id
 _symmetry_equiv_pos_as_xyz
  1  'x, y, z'
loop_
 _atom_site_type_symbol
 _atom_site_label
 _atom_site_symmetry_multiplicity
 _atom_site_fract_x
 _atom_site_fract_y
 _atom_site_fract_z
 _atom_site_occupancy
  Pr  Pr0  1  0.27128659  0.48034180  0.87171400  1
  Pr  Pr1  1  0.73169161  0.47731697  0.13778589  1
  Pr  Pr2  1  0.76605331  0.99243563  0.87982901  1
  Pr  Pr3  1  0.23465475  0.95737174  0.13016311  1
  Mn  Mn4  1  0.30600663  0.43908637  0.61277415  1
  Mn  Mn5  1  0.70305754  0.51931318  0.36012126  1
  Mn  Mn6  1  0.99824926  0.99910001  0.00604205  1
  Mn  Mn7  1  0.79779974  0.03189180  0.62324373  1
  Mn  Mn8  1  0.21064758  0.07099575  0.39201035  1
  Mn  Mn9  1  0.49521533  0.48837659  0.99177234  1
  Sb  Sb10  1  0.88411586  0.88730106  0.45795142  1
  Sb  Sb11  1  0.10920449  0.98533930  0.54014170  1
  Sb  Sb12  1  0.03411154  0.49826193  0.82172190  1
  Sb  Sb13  1  0.95952796  0.47520716  0.19438971  1
  Sb  Sb14  1  0.40154068  0.57854420  0.46135413  1
  Sb  Sb15  1  0.60759578  0.57030583  0.53542006  1
  Sb  Sb16  1  0.52947145  0.95520186  0.80601776  1
  Sb  Sb17  1  0.47006575  0.98314018  0.19573948  1
  S  S18  1  0.94461416  0.99713493  0.81856027  1
  S  S19  1  0.06198026  0.03020794  0.20224875  1
  S  S20  1  0.41457243  0.97733447  0.98652098  1
  S  S21  1  0.58332105  0.01035340  0.00718617  1
  S  S22  1  0.17250390  0.94674288  0.91011021  1
  S  S23  1  0.82691276  0.99893092  0.10902827  1
  S  S24  1  0.09721651  0.47064132  0.63844520  1
  S  S25  1  0.91120826  0.44482509  0.36270635  1
  S  S26  1  0.73198509  0.02389106  0.30899437  1
  S  S27  1  0.26638617  0.95719587  0.69120825  1
  S  S28  1  0.18073723  0.52402816  0.44935078  1
  S  S29  1  0.82260318  0.53635139  0.55716443  1
  S  S30  1  0.43775230  0.46115439  0.80889349  1
  S  S31  1  0.56157828  0.47393857  0.18849008  1
  S  S32  1  0.91818885  0.50872784  0.99343080  1
  S  S33  1  0.08427965  0.49355053  0.01862926  1
  S  S34  1  0.66143243  0.48180704  0.88564854  1
  S  S35  1  0.33439368  0.49751778  0.11518454  1
  S  S36  1  0.59846190  0.99902981  0.64423109  1
  S  S37  1  0.40118660  0.04815889  0.34723661  1
  S  S38  1  0.24982762  0.51708119  0.32649208  1
  S  S39  1  0.75595203  0.43166996  0.68654238  1
  S  S40  1  0.67274929  0.94062526  0.45010181  1
  S  S41  1  0.33775297  0.95610433  0.55341718  1
