# generated using pymatgen
data_Pr2Mn3(SbS3)4
_symmetry_space_group_name_H-M   'P 1'
_cell_length_a   20.02960800
_cell_length_b   3.90410600
_cell_length_c   14.95364829
_cell_angle_alpha   90.00000000
_cell_angle_beta   126.33350609
_cell_angle_gamma   90.00000000
_symmetry_Int_Tables_number   1
_chemical_formula_structural   Pr2Mn3(SbS3)4
_chemical_formula_sum   'Pr4 Mn6 Sb8 S24'
_cell_volume   942.00006694
_cell_formula_units_Z   2
loop_
 _symmetry_equiv_pos_site_id
 _symmetry_equiv_pos_as_xyz
  1  'x, y, z'
loop_
 _atom_site_type_symbol
 _atom_site_label
 _atom_site_symmetry_multiplicity
 _atom_site_fract_x
 _atom_site_fract_y
 _atom_site_fract_z
 _atom_site_occupancy
  Pr  Pr0  1  0.27118352  0.48019982  0.87165906  1
  Pr  Pr1  1  0.73168048  0.47712690  0.13783784  1
  Pr  Pr2  1  0.76615356  0.99200321  0.88007531  1
  Pr  Pr3  1  0.23458163  0.95769339  0.12999920  1
  Mn  Mn4  1  0.30608141  0.43980641  0.61257341  1
  Mn  Mn5  1  0.70297925  0.51928143  0.35974734  1
  Mn  Mn6  1  0.99823909  0.99925304  0.00616429  1
  Mn  Mn7  1  0.79794538  0.03213261  0.62346761  1
  Mn  Mn8  1  0.21088942  0.07089743  0.39248249  1
  Mn  Mn9  1  0.49526891  0.48932206  0.99189206  1
  Sb  Sb10  1  0.88405560  0.88691913  0.45803394  1
  Sb  Sb11  1  0.10923958  0.98549492  0.54030346  1
  Sb  Sb12  1  0.03406905  0.49864753  0.82160090  1
  Sb  Sb13  1  0.95955927  0.47459758  0.19425184  1
  Sb  Sb14  1  0.40156396  0.57855601  0.46144434  1
  Sb  Sb15  1  0.60749689  0.57026045  0.53536129  1
  Sb  Sb16  1  0.52947170  0.95576610  0.80599744  1
  Sb  Sb17  1  0.47014762  0.98307725  0.19571814  1
  S  S18  1  0.94458808  0.99695913  0.81837033  1
  S  S19  1  0.06199310  0.02989360  0.20191325  1
  S  S20  1  0.41452763  0.97691023  0.98640662  1
  S  S21  1  0.58326255  0.01124753  0.00712667  1
  S  S22  1  0.17243270  0.94615793  0.91021272  1
  S  S23  1  0.82696628  0.99961039  0.10891089  1
  S  S24  1  0.09727895  0.46925738  0.63858984  1
  S  S25  1  0.91137731  0.44594907  0.36289402  1
  S  S26  1  0.73190922  0.02348592  0.30891319  1
  S  S27  1  0.26637027  0.95682707  0.69156728  1
  S  S28  1  0.18044826  0.52266949  0.44902829  1
  S  S29  1  0.82262642  0.53567631  0.55739720  1
  S  S30  1  0.43786022  0.46023826  0.80882314  1
  S  S31  1  0.56157480  0.47437749  0.18853463  1
  S  S32  1  0.91818349  0.50780894  0.99349608  1
  S  S33  1  0.08414951  0.49337204  0.01831309  1
  S  S34  1  0.66144592  0.48182345  0.88614846  1
  S  S35  1  0.33438521  0.49721450  0.11535600  1
  S  S36  1  0.59866099  0.99883359  0.64433438  1
  S  S37  1  0.40099032  0.04681185  0.34718432  1
  S  S38  1  0.24977415  0.51639045  0.32637474  1
  S  S39  1  0.75569690  0.43273292  0.68627551  1
  S  S40  1  0.67269949  0.93903709  0.45006163  1
  S  S41  1  0.33788268  0.95703085  0.55373216  1
