# generated using pymatgen
data_Pr2Mn3(SbS3)4
_symmetry_space_group_name_H-M   'P 1'
_cell_length_a   20.02960800
_cell_length_b   3.90410600
_cell_length_c   14.95364829
_cell_angle_alpha   90.00000000
_cell_angle_beta   126.33350609
_cell_angle_gamma   90.00000000
_symmetry_Int_Tables_number   1
_chemical_formula_structural   Pr2Mn3(SbS3)4
_chemical_formula_sum   'Pr4 Mn6 Sb8 S24'
_cell_volume   942.00006694
_cell_formula_units_Z   2
loop_
 _symmetry_equiv_pos_site_id
 _symmetry_equiv_pos_as_xyz
  1  'x, y, z'
loop_
 _atom_site_type_symbol
 _atom_site_label
 _atom_site_symmetry_multiplicity
 _atom_site_fract_x
 _atom_site_fract_y
 _atom_site_fract_z
 _atom_site_occupancy
  Pr  Pr0  1  0.27111928  0.48026120  0.87162999  1
  Pr  Pr1  1  0.73168715  0.47714078  0.13786198  1
  Pr  Pr2  1  0.76621383  0.99158531  0.88027405  1
  Pr  Pr3  1  0.23454689  0.95806199  0.12987133  1
  Mn  Mn4  1  0.30619629  0.44038954  0.61235783  1
  Mn  Mn5  1  0.70294445  0.51933161  0.35940311  1
  Mn  Mn6  1  0.99821727  0.99979319  0.00634411  1
  Mn  Mn7  1  0.79806555  0.03253260  0.62354778  1
  Mn  Mn8  1  0.21106742  0.07051862  0.39283321  1
  Mn  Mn9  1  0.49531219  0.49019582  0.99198644  1
  Sb  Sb10  1  0.88403274  0.88648631  0.45816500  1
  Sb  Sb11  1  0.10928026  0.98538989  0.54048736  1
  Sb  Sb12  1  0.03409324  0.49896436  0.82152996  1
  Sb  Sb13  1  0.95960376  0.47380309  0.19410767  1
  Sb  Sb14  1  0.40159276  0.57856840  0.46145425  1
  Sb  Sb15  1  0.60737634  0.57054635  0.53527354  1
  Sb  Sb16  1  0.52947252  0.95620670  0.80597977  1
  Sb  Sb17  1  0.47020614  0.98305928  0.19567275  1
  S  S18  1  0.94453609  0.99681773  0.81821653  1
  S  S19  1  0.06185073  0.02945708  0.20143329  1
  S  S20  1  0.41444923  0.97646361  0.98615828  1
  S  S21  1  0.58315915  0.01227608  0.00703778  1
  S  S22  1  0.17237603  0.94535207  0.91028646  1
  S  S23  1  0.82699978  0.00046200  0.10882282  1
  S  S24  1  0.09738320  0.46835298  0.63877767  1
  S  S25  1  0.91148744  0.44701210  0.36296803  1
  S  S26  1  0.73187487  0.02350053  0.30886180  1
  S  S27  1  0.26635165  0.95646226  0.69193995  1
  S  S28  1  0.18019287  0.52099107  0.44877812  1
  S  S29  1  0.82268841  0.53469147  0.55771226  1
  S  S30  1  0.43803476  0.45944089  0.80883005  1
  S  S31  1  0.56139652  0.47491519  0.18842904  1
  S  S32  1  0.91811895  0.50694674  0.99355118  1
  S  S33  1  0.08403814  0.49298866  0.01821092  1
  S  S34  1  0.66146657  0.48257559  0.88650808  1
  S  S35  1  0.33433704  0.49733045  0.11545890  1
  S  S36  1  0.59899854  0.99883662  0.64445813  1
  S  S37  1  0.40077683  0.04536302  0.34709086  1
  S  S38  1  0.24962345  0.51557874  0.32615480  1
  S  S39  1  0.75545515  0.43297808  0.68596655  1
  S  S40  1  0.67283400  0.93790282  0.45017948  1
  S  S41  1  0.33796558  0.95773383  0.55398295  1
