# generated using pymatgen
data_Pr2Mn3(SbS3)4
_symmetry_space_group_name_H-M   'P 1'
_cell_length_a   20.02960800
_cell_length_b   3.90410600
_cell_length_c   14.95364829
_cell_angle_alpha   90.00000000
_cell_angle_beta   126.33350609
_cell_angle_gamma   90.00000000
_symmetry_Int_Tables_number   1
_chemical_formula_structural   Pr2Mn3(SbS3)4
_chemical_formula_sum   'Pr4 Mn6 Sb8 S24'
_cell_volume   942.00006694
_cell_formula_units_Z   2
loop_
 _symmetry_equiv_pos_site_id
 _symmetry_equiv_pos_as_xyz
  1  'x, y, z'
loop_
 _atom_site_type_symbol
 _atom_site_label
 _atom_site_symmetry_multiplicity
 _atom_site_fract_x
 _atom_site_fract_y
 _atom_site_fract_z
 _atom_site_occupancy
  Pr  Pr0  1  0.27102415  0.48001773  0.87154351  1
  Pr  Pr1  1  0.73158656  0.47732955  0.13785178  1
  Pr  Pr2  1  0.76634906  0.99127076  0.88051680  1
  Pr  Pr3  1  0.23455410  0.95833224  0.12976035  1
  Mn  Mn4  1  0.30631605  0.44081099  0.61211494  1
  Mn  Mn5  1  0.70291870  0.51912830  0.35915342  1
  Mn  Mn6  1  0.99823189  0.00031573  0.00658611  1
  Mn  Mn7  1  0.79820544  0.03299706  0.62360497  1
  Mn  Mn8  1  0.21121488  0.07066932  0.39302129  1
  Mn  Mn9  1  0.49543843  0.49073030  0.99206221  1
  Sb  Sb10  1  0.88401532  0.88631477  0.45821881  1
  Sb  Sb11  1  0.10929701  0.98512426  0.54068207  1
  Sb  Sb12  1  0.03409147  0.49925734  0.82138471  1
  Sb  Sb13  1  0.95961782  0.47325949  0.19401458  1
  Sb  Sb14  1  0.40157163  0.57830125  0.46139377  1
  Sb  Sb15  1  0.60734547  0.57073657  0.53522138  1
  Sb  Sb16  1  0.52945331  0.95669340  0.80597252  1
  Sb  Sb17  1  0.47023291  0.98279872  0.19561350  1
  S  S18  1  0.94446496  0.99654548  0.81800219  1
  S  S19  1  0.06173958  0.02936813  0.20094671  1
  S  S20  1  0.41435327  0.97604240  0.98590550  1
  S  S21  1  0.58309824  0.01317065  0.00695033  1
  S  S22  1  0.17228879  0.94507508  0.91033196  1
  S  S23  1  0.82703738  0.00125355  0.10883497  1
  S  S24  1  0.09746761  0.46795558  0.63896975  1
  S  S25  1  0.91168700  0.44833680  0.36301857  1
  S  S26  1  0.73179699  0.02351824  0.30877408  1
  S  S27  1  0.26622647  0.95544958  0.69212365  1
  S  S28  1  0.17997783  0.51946424  0.44853873  1
  S  S29  1  0.82263135  0.53367684  0.55791287  1
  S  S30  1  0.43822427  0.45869901  0.80888224  1
  S  S31  1  0.56110409  0.47553727  0.18821554  1
  S  S32  1  0.91800008  0.50570855  0.99352411  1
  S  S33  1  0.08391827  0.49249398  0.01817658  1
  S  S34  1  0.66145433  0.48274782  0.88681077  1
  S  S35  1  0.33437761  0.49775856  0.11578714  1
  S  S36  1  0.59939226  0.99829246  0.64468682  1
  S  S37  1  0.40050592  0.04413250  0.34699839  1
  S  S38  1  0.24938229  0.51498968  0.32580403  1
  S  S39  1  0.75515736  0.43345471  0.68573523  1
  S  S40  1  0.67297346  0.93701295  0.45016946  1
  S  S41  1  0.33795298  0.95787908  0.55413583  1
