# generated using pymatgen
data_Pr2Mn3(SbS3)4
_symmetry_space_group_name_H-M   'P 1'
_cell_length_a   20.02960800
_cell_length_b   3.90410600
_cell_length_c   14.95364829
_cell_angle_alpha   90.00000000
_cell_angle_beta   126.33350609
_cell_angle_gamma   90.00000000
_symmetry_Int_Tables_number   1
_chemical_formula_structural   Pr2Mn3(SbS3)4
_chemical_formula_sum   'Pr4 Mn6 Sb8 S24'
_cell_volume   942.00006694
_cell_formula_units_Z   2
loop_
 _symmetry_equiv_pos_site_id
 _symmetry_equiv_pos_as_xyz
  1  'x, y, z'
loop_
 _atom_site_type_symbol
 _atom_site_label
 _atom_site_symmetry_multiplicity
 _atom_site_fract_x
 _atom_site_fract_y
 _atom_site_fract_z
 _atom_site_occupancy
  Pr  Pr0  1  0.27089204  0.47959616  0.87141385  1
  Pr  Pr1  1  0.73150936  0.47750347  0.13783866  1
  Pr  Pr2  1  0.76647084  0.99112063  0.88072771  1
  Pr  Pr3  1  0.23451777  0.95859972  0.12971110  1
  Mn  Mn4  1  0.30637560  0.44118721  0.61201181  1
  Mn  Mn5  1  0.70302804  0.51929905  0.35897917  1
  Mn  Mn6  1  0.99833244  0.00084776  0.00686759  1
  Mn  Mn7  1  0.79824231  0.03366691  0.62343676  1
  Mn  Mn8  1  0.21138873  0.07067536  0.39322541  1
  Mn  Mn9  1  0.49553007  0.49094700  0.99219891  1
  Sb  Sb10  1  0.88403480  0.88612030  0.45832813  1
  Sb  Sb11  1  0.10934229  0.98472196  0.54091270  1
  Sb  Sb12  1  0.03411487  0.49944998  0.82129475  1
  Sb  Sb13  1  0.95962074  0.47300995  0.19390398  1
  Sb  Sb14  1  0.40152044  0.57810153  0.46130086  1
  Sb  Sb15  1  0.60730233  0.57094016  0.53513695  1
  Sb  Sb16  1  0.52950425  0.95688044  0.80596004  1
  Sb  Sb17  1  0.47024952  0.98264190  0.19558647  1
  S  S18  1  0.94430295  0.99611136  0.81772505  1
  S  S19  1  0.06162722  0.02960282  0.20056335  1
  S  S20  1  0.41415796  0.97608626  0.98559388  1
  S  S21  1  0.58304821  0.01412914  0.00694851  1
  S  S22  1  0.17218564  0.94481670  0.91035547  1
  S  S23  1  0.82709484  0.00258861  0.10890958  1
  S  S24  1  0.09763043  0.46801673  0.63911050  1
  S  S25  1  0.91188437  0.44955404  0.36313198  1
  S  S26  1  0.73172413  0.02387353  0.30864685  1
  S  S27  1  0.26616124  0.95450400  0.69236721  1
  S  S28  1  0.17968689  0.51812965  0.44814939  1
  S  S29  1  0.82258976  0.53310617  0.55808207  1
  S  S30  1  0.43836912  0.45781692  0.80898506  1
  S  S31  1  0.56087689  0.47646540  0.18798454  1
  S  S32  1  0.91788535  0.50446264  0.99344773  1
  S  S33  1  0.08376853  0.49167892  0.01806603  1
  S  S34  1  0.66138842  0.48298017  0.88699484  1
  S  S35  1  0.33439483  0.49758098  0.11620313  1
  S  S36  1  0.59970158  0.99744970  0.64494010  1
  S  S37  1  0.40016842  0.04324461  0.34678693  1
  S  S38  1  0.24905356  0.51484117  0.32538844  1
  S  S39  1  0.75489201  0.43345701  0.68560843  1
  S  S40  1  0.67321287  0.93555861  0.45023887  1
  S  S41  1  0.33785633  0.95819470  0.55417866  1
