# generated using pymatgen
data_Pr2Mn3(SbS3)4
_symmetry_space_group_name_H-M   'P 1'
_cell_length_a   20.02960800
_cell_length_b   3.90410600
_cell_length_c   14.95364829
_cell_angle_alpha   90.00000000
_cell_angle_beta   126.33350609
_cell_angle_gamma   90.00000000
_symmetry_Int_Tables_number   1
_chemical_formula_structural   Pr2Mn3(SbS3)4
_chemical_formula_sum   'Pr4 Mn6 Sb8 S24'
_cell_volume   942.00006694
_cell_formula_units_Z   2
loop_
 _symmetry_equiv_pos_site_id
 _symmetry_equiv_pos_as_xyz
  1  'x, y, z'
loop_
 _atom_site_type_symbol
 _atom_site_label
 _atom_site_symmetry_multiplicity
 _atom_site_fract_x
 _atom_site_fract_y
 _atom_site_fract_z
 _atom_site_occupancy
  Pr  Pr0  1  0.27070430  0.47931703  0.87126602  1
  Pr  Pr1  1  0.73141352  0.47797682  0.13775759  1
  Pr  Pr2  1  0.76660902  0.99109811  0.88087848  1
  Pr  Pr3  1  0.23446645  0.95916442  0.12964388  1
  Mn  Mn4  1  0.30648128  0.44155620  0.61185987  1
  Mn  Mn5  1  0.70315074  0.51946284  0.35889119  1
  Mn  Mn6  1  0.99851404  0.00156268  0.00723245  1
  Mn  Mn7  1  0.79830744  0.03391441  0.62324421  1
  Mn  Mn8  1  0.21159728  0.07048652  0.39342947  1
  Mn  Mn9  1  0.49561585  0.49124933  0.99219697  1
  Sb  Sb10  1  0.88398463  0.88583033  0.45834025  1
  Sb  Sb11  1  0.10946532  0.98456700  0.54110313  1
  Sb  Sb12  1  0.03413597  0.49954568  0.82112318  1
  Sb  Sb13  1  0.95961653  0.47287016  0.19374438  1
  Sb  Sb14  1  0.40144592  0.57802310  0.46120387  1
  Sb  Sb15  1  0.60727591  0.57129328  0.53514956  1
  Sb  Sb16  1  0.52954113  0.95708105  0.80596093  1
  Sb  Sb17  1  0.47025561  0.98239926  0.19553764  1
  S  S18  1  0.94422118  0.99536556  0.81755160  1
  S  S19  1  0.06144994  0.02977920  0.20015347  1
  S  S20  1  0.41390576  0.97638528  0.98532317  1
  S  S21  1  0.58296889  0.01502801  0.00693368  1
  S  S22  1  0.17211981  0.94470791  0.91028387  1
  S  S23  1  0.82701031  0.00370045  0.10877554  1
  S  S24  1  0.09796005  0.46839938  0.63952350  1
  S  S25  1  0.91200269  0.45034002  0.36311115  1
  S  S26  1  0.73176255  0.02508194  0.30874230  1
  S  S27  1  0.26615541  0.95329517  0.69252076  1
  S  S28  1  0.17934879  0.51727819  0.44777973  1
  S  S29  1  0.82254918  0.53247941  0.55818779  1
  S  S30  1  0.43865547  0.45720098  0.80928726  1
  S  S31  1  0.56071667  0.47773426  0.18776379  1
  S  S32  1  0.91779226  0.50369192  0.99331669  1
  S  S33  1  0.08363992  0.49115623  0.01799785  1
  S  S34  1  0.66125808  0.48270268  0.88721873  1
  S  S35  1  0.33439564  0.49711804  0.11668478  1
  S  S36  1  0.60009002  0.99695444  0.64528865  1
  S  S37  1  0.39986507  0.04249533  0.34650533  1
  S  S38  1  0.24870784  0.51485004  0.32502278  1
  S  S39  1  0.75465264  0.43313177  0.68552408  1
  S  S40  1  0.67352121  0.93416753  0.45034068  1
  S  S41  1  0.33783854  0.95856648  0.55428062  1
