# generated using pymatgen
data_Pr2Mn3(SbS3)4
_symmetry_space_group_name_H-M   'P 1'
_cell_length_a   20.02960800
_cell_length_b   3.90410600
_cell_length_c   14.95364829
_cell_angle_alpha   90.00000000
_cell_angle_beta   126.33350609
_cell_angle_gamma   90.00000000
_symmetry_Int_Tables_number   1
_chemical_formula_structural   Pr2Mn3(SbS3)4
_chemical_formula_sum   'Pr4 Mn6 Sb8 S24'
_cell_volume   942.00006694
_cell_formula_units_Z   2
loop_
 _symmetry_equiv_pos_site_id
 _symmetry_equiv_pos_as_xyz
  1  'x, y, z'
loop_
 _atom_site_type_symbol
 _atom_site_label
 _atom_site_symmetry_multiplicity
 _atom_site_fract_x
 _atom_site_fract_y
 _atom_site_fract_z
 _atom_site_occupancy
  Pr  Pr0  1  0.27052588  0.47902589  0.87112775  1
  Pr  Pr1  1  0.73125956  0.47840778  0.13763684  1
  Pr  Pr2  1  0.76674541  0.99107442  0.88101179  1
  Pr  Pr3  1  0.23437248  0.95986490  0.12956025  1
  Mn  Mn4  1  0.30660886  0.44172340  0.61166308  1
  Mn  Mn5  1  0.70333099  0.51993899  0.35882389  1
  Mn  Mn6  1  0.99875476  0.00158087  0.00759394  1
  Mn  Mn7  1  0.79845834  0.03394529  0.62311693  1
  Mn  Mn8  1  0.21182254  0.07048380  0.39364416  1
  Mn  Mn9  1  0.49558203  0.49172292  0.99208578  1
  Sb  Sb10  1  0.88399532  0.88557146  0.45841851  1
  Sb  Sb11  1  0.10954858  0.98460441  0.54123212  1
  Sb  Sb12  1  0.03416996  0.49963914  0.82101875  1
  Sb  Sb13  1  0.95965200  0.47271858  0.19364972  1
  Sb  Sb14  1  0.40138000  0.57810686  0.46108556  1
  Sb  Sb15  1  0.60724031  0.57157238  0.53516037  1
  Sb  Sb16  1  0.52959411  0.95732620  0.80601506  1
  Sb  Sb17  1  0.47025044  0.98216978  0.19555046  1
  S  S18  1  0.94406105  0.99481190  0.81735814  1
  S  S19  1  0.06117828  0.02994523  0.19976732  1
  S  S20  1  0.41377649  0.97652634  0.98518399  1
  S  S21  1  0.58288691  0.01624961  0.00686156  1
  S  S22  1  0.17203201  0.94473667  0.91022847  1
  S  S23  1  0.82694624  0.00445953  0.10853512  1
  S  S24  1  0.09832966  0.46922330  0.64010020  1
  S  S25  1  0.91210246  0.45097796  0.36302030  1
  S  S26  1  0.73186711  0.02667186  0.30895583  1
  S  S27  1  0.26610937  0.95257503  0.69265259  1
  S  S28  1  0.17918769  0.51605742  0.44750998  1
  S  S29  1  0.82255827  0.53189879  0.55838280  1
  S  S30  1  0.43883832  0.45676241  0.80952188  1
  S  S31  1  0.56064551  0.47913467  0.18775018  1
  S  S32  1  0.91779083  0.50324268  0.99313369  1
  S  S33  1  0.08346546  0.49085753  0.01797766  1
  S  S34  1  0.66113266  0.48252634  0.88746097  1
  S  S35  1  0.33439350  0.49656655  0.11705164  1
  S  S36  1  0.60044663  0.99618648  0.64566105  1
  S  S37  1  0.39951897  0.04151914  0.34628935  1
  S  S38  1  0.24839514  0.51451531  0.32467378  1
  S  S39  1  0.75445033  0.43310459  0.68551071  1
  S  S40  1  0.67386070  0.93318361  0.45041559  1
  S  S41  1  0.33770946  0.95864362  0.55440135  1
