# generated using pymatgen
data_Pr2Mn3(SbS3)4
_symmetry_space_group_name_H-M   'P 1'
_cell_length_a   20.02960800
_cell_length_b   3.90410600
_cell_length_c   14.95364829
_cell_angle_alpha   90.00000000
_cell_angle_beta   126.33350609
_cell_angle_gamma   90.00000000
_symmetry_Int_Tables_number   1
_chemical_formula_structural   Pr2Mn3(SbS3)4
_chemical_formula_sum   'Pr4 Mn6 Sb8 S24'
_cell_volume   942.00006694
_cell_formula_units_Z   2
loop_
 _symmetry_equiv_pos_site_id
 _symmetry_equiv_pos_as_xyz
  1  'x, y, z'
loop_
 _atom_site_type_symbol
 _atom_site_label
 _atom_site_symmetry_multiplicity
 _atom_site_fract_x
 _atom_site_fract_y
 _atom_site_fract_z
 _atom_site_occupancy
  Pr  Pr0  1  0.27036760  0.47880234  0.87093055  1
  Pr  Pr1  1  0.73112716  0.47865644  0.13750911  1
  Pr  Pr2  1  0.76684995  0.99113743  0.88111829  1
  Pr  Pr3  1  0.23431158  0.96049030  0.12954453  1
  Mn  Mn4  1  0.30671398  0.44183960  0.61151305  1
  Mn  Mn5  1  0.70348751  0.52064642  0.35881015  1
  Mn  Mn6  1  0.99894992  0.00173023  0.00791619  1
  Mn  Mn7  1  0.79864311  0.03413619  0.62305738  1
  Mn  Mn8  1  0.21196038  0.07054196  0.39374857  1
  Mn  Mn9  1  0.49557574  0.49231485  0.99206449  1
  Sb  Sb10  1  0.88402367  0.88533866  0.45852364  1
  Sb  Sb11  1  0.10963821  0.98461131  0.54139505  1
  Sb  Sb12  1  0.03413158  0.49964800  0.82090840  1
  Sb  Sb13  1  0.95967270  0.47267438  0.19354380  1
  Sb  Sb14  1  0.40127186  0.57817058  0.46092943  1
  Sb  Sb15  1  0.60724561  0.57196300  0.53511051  1
  Sb  Sb16  1  0.52966792  0.95734355  0.80610788  1
  Sb  Sb17  1  0.47023560  0.98175768  0.19555145  1
  S  S18  1  0.94398683  0.99443622  0.81706670  1
  S  S19  1  0.06097455  0.02970909  0.19962534  1
  S  S20  1  0.41375176  0.97667180  0.98512188  1
  S  S21  1  0.58270773  0.01738692  0.00687429  1
  S  S22  1  0.17190218  0.94423819  0.91008857  1
  S  S23  1  0.82691340  0.00455398  0.10832383  1
  S  S24  1  0.09863039  0.47050830  0.64045507  1
  S  S25  1  0.91214273  0.45117849  0.36291811  1
  S  S26  1  0.73194826  0.02867223  0.30913614  1
  S  S27  1  0.26612907  0.95166811  0.69293625  1
  S  S28  1  0.17910147  0.51475921  0.44738219  1
  S  S29  1  0.82256086  0.53142904  0.55859133  1
  S  S30  1  0.43904448  0.45625586  0.80976564  1
  S  S31  1  0.56066110  0.47979493  0.18780843  1
  S  S32  1  0.91773447  0.50290336  0.99287032  1
  S  S33  1  0.08343919  0.49050992  0.01799176  1
  S  S34  1  0.66096867  0.48193574  0.88759706  1
  S  S35  1  0.33428311  0.49607727  0.11730527  1
  S  S36  1  0.60077217  0.99572176  0.64601054  1
  S  S37  1  0.39918816  0.04058358  0.34603637  1
  S  S38  1  0.24798609  0.51408432  0.32449218  1
  S  S39  1  0.75433992  0.43328319  0.68561352  1
  S  S40  1  0.67428004  0.93237663  0.45062970  1
  S  S41  1  0.33751821  0.95873658  0.55437054  1
