# generated using pymatgen
data_Pr2Mn3(SbS3)4
_symmetry_space_group_name_H-M   'P 1'
_cell_length_a   20.02960800
_cell_length_b   3.90410600
_cell_length_c   14.95364829
_cell_angle_alpha   90.00000000
_cell_angle_beta   126.33350609
_cell_angle_gamma   90.00000000
_symmetry_Int_Tables_number   1
_chemical_formula_structural   Pr2Mn3(SbS3)4
_chemical_formula_sum   'Pr4 Mn6 Sb8 S24'
_cell_volume   942.00006694
_cell_formula_units_Z   2
loop_
 _symmetry_equiv_pos_site_id
 _symmetry_equiv_pos_as_xyz
  1  'x, y, z'
loop_
 _atom_site_type_symbol
 _atom_site_label
 _atom_site_symmetry_multiplicity
 _atom_site_fract_x
 _atom_site_fract_y
 _atom_site_fract_z
 _atom_site_occupancy
  Pr  Pr0  1  0.27027966  0.47849417  0.87078654  1
  Pr  Pr1  1  0.73097444  0.47878227  0.13737991  1
  Pr  Pr2  1  0.76691922  0.99109864  0.88114208  1
  Pr  Pr3  1  0.23416881  0.96110350  0.12947854  1
  Mn  Mn4  1  0.30683789  0.44222431  0.61147170  1
  Mn  Mn5  1  0.70362134  0.52106055  0.35882845  1
  Mn  Mn6  1  0.99920768  0.00166665  0.00832711  1
  Mn  Mn7  1  0.79883414  0.03419444  0.62301508  1
  Mn  Mn8  1  0.21207450  0.07068429  0.39384550  1
  Mn  Mn9  1  0.49558017  0.49316388  0.99201861  1
  Sb  Sb10  1  0.88402386  0.88523980  0.45848175  1
  Sb  Sb11  1  0.10970645  0.98457978  0.54153322  1
  Sb  Sb12  1  0.03406970  0.50008411  0.82084156  1
  Sb  Sb13  1  0.95964523  0.47269682  0.19344611  1
  Sb  Sb14  1  0.40113955  0.57859881  0.46078555  1
  Sb  Sb15  1  0.60725846  0.57250273  0.53511293  1
  Sb  Sb16  1  0.52975457  0.95727783  0.80627278  1
  Sb  Sb17  1  0.47025233  0.98121848  0.19558668  1
  S  S18  1  0.94391506  0.99412961  0.81678950  1
  S  S19  1  0.06075746  0.02987050  0.19947256  1
  S  S20  1  0.41376496  0.97674181  0.98505307  1
  S  S21  1  0.58241707  0.01879637  0.00677027  1
  S  S22  1  0.17178683  0.94415013  0.90998242  1
  S  S23  1  0.82690848  0.00456306  0.10812364  1
  S  S24  1  0.09894573  0.47119825  0.64079652  1
  S  S25  1  0.91227813  0.45098144  0.36290737  1
  S  S26  1  0.73198556  0.03036173  0.30933060  1
  S  S27  1  0.26606687  0.95052802  0.69297025  1
  S  S28  1  0.17899234  0.51385493  0.44723086  1
  S  S29  1  0.82255711  0.53085173  0.55870010  1
  S  S30  1  0.43919612  0.45600848  0.80995881  1
  S  S31  1  0.56057437  0.48044970  0.18787587  1
  S  S32  1  0.91764616  0.50229450  0.99258824  1
  S  S33  1  0.08339365  0.49077331  0.01799759  1
  S  S34  1  0.66069260  0.48139132  0.88767486  1
  S  S35  1  0.33430994  0.49636285  0.11771539  1
  S  S36  1  0.60101499  0.99509356  0.64623287  1
  S  S37  1  0.39892229  0.03989433  0.34581770  1
  S  S38  1  0.24762050  0.51400487  0.32434230  1
  S  S39  1  0.75426741  0.43323682  0.68586803  1
  S  S40  1  0.67464447  0.93151410  0.45073648  1
  S  S41  1  0.33736977  0.95904867  0.55431568  1
