# generated using pymatgen
data_Pr2Mn3(SbS3)4
_symmetry_space_group_name_H-M   'P 1'
_cell_length_a   20.02960800
_cell_length_b   3.90410600
_cell_length_c   14.95364829
_cell_angle_alpha   90.00000000
_cell_angle_beta   126.33350609
_cell_angle_gamma   90.00000000
_symmetry_Int_Tables_number   1
_chemical_formula_structural   Pr2Mn3(SbS3)4
_chemical_formula_sum   'Pr4 Mn6 Sb8 S24'
_cell_volume   942.00006694
_cell_formula_units_Z   2
loop_
 _symmetry_equiv_pos_site_id
 _symmetry_equiv_pos_as_xyz
  1  'x, y, z'
loop_
 _atom_site_type_symbol
 _atom_site_label
 _atom_site_symmetry_multiplicity
 _atom_site_fract_x
 _atom_site_fract_y
 _atom_site_fract_z
 _atom_site_occupancy
  Pr  Pr0  1  0.26669442  0.48648430  0.86380143  1
  Pr  Pr1  1  0.73610774  0.51279068  0.13608193  1
  Pr  Pr2  1  0.76270031  0.01289811  0.86215127  1
  Pr  Pr3  1  0.23562929  0.00538081  0.13630327  1
  Mn  Mn4  1  0.28891204  0.47672443  0.59619464  1
  Mn  Mn5  1  0.68963028  0.49354234  0.37339279  1
  Mn  Mn6  1  0.00820178  0.98842690  0.01861526  1
  Mn  Mn7  1  0.80489633  0.01253540  0.61764282  1
  Mn  Mn8  1  0.19819575  0.98341793  0.37687875  1
  Mn  Mn9  1  0.49313704  0.47706033  0.99028396  1
  Sb  Sb10  1  0.88986582  0.98295298  0.44994909  1
  Sb  Sb11  1  0.11211546  0.97612053  0.54727617  1
  Sb  Sb12  1  0.04050492  0.52100986  0.82264143  1
  Sb  Sb13  1  0.96398599  0.49907201  0.18323063  1
  Sb  Sb14  1  0.39590575  0.50695991  0.45145970  1
  Sb  Sb15  1  0.60565812  0.47396969  0.54716795  1
  Sb  Sb16  1  0.53327557  0.99850607  0.80897687  1
  Sb  Sb17  1  0.46300262  0.01657035  0.18536284  1
  S  S18  1  0.93791483  0.99526066  0.80480024  1
  S  S19  1  0.06598310  0.98468444  0.20088847  1
  S  S20  1  0.41028522  0.97413992  0.98077036  1
  S  S21  1  0.57835999  0.00301660  0.00905922  1
  S  S22  1  0.17194833  0.02961568  0.90059853  1
  S  S23  1  0.82356068  0.04931598  0.09590696  1
  S  S24  1  0.09616475  0.48084106  0.64678200  1
  S  S25  1  0.91194698  0.48203551  0.35501276  1
  S  S26  1  0.74062069  0.94700676  0.30286771  1
  S  S27  1  0.26361758  0.00660227  0.70944252  1
  S  S28  1  0.15835970  0.48265172  0.42875484  1
  S  S29  1  0.82500127  0.48705236  0.54822180  1
  S  S30  1  0.43250010  0.49678794  0.79979006  1
  S  S31  1  0.55777513  0.51140198  0.18404320  1
  S  S32  1  0.90956927  0.48242396  0.98686500  1
  S  S33  1  0.09054192  0.46724433  0.02524580  1
  S  S34  1  0.66417730  0.50843740  0.88544611  1
  S  S35  1  0.33156517  0.50874715  0.09748243  1
  S  S36  1  0.59661681  0.98332828  0.65450432  1
  S  S37  1  0.40507002  0.98764746  0.35057154  1
  S  S38  1  0.23949336  0.46262642  0.30851947  1
  S  S39  1  0.76209835  0.50093559  0.69800480  1
  S  S40  1  0.66790283  0.02622900  0.45402206  1
  S  S41  1  0.32333558  0.97540471  0.55007304  1
