# generated using pymatgen
data_Pr2Mn3(SbS3)4
_symmetry_space_group_name_H-M   'P 1'
_cell_length_a   20.02960800
_cell_length_b   3.90410600
_cell_length_c   14.95364829
_cell_angle_alpha   90.00000000
_cell_angle_beta   126.33350609
_cell_angle_gamma   90.00000000
_symmetry_Int_Tables_number   1
_chemical_formula_structural   Pr2Mn3(SbS3)4
_chemical_formula_sum   'Pr4 Mn6 Sb8 S24'
_cell_volume   942.00006694
_cell_formula_units_Z   2
loop_
 _symmetry_equiv_pos_site_id
 _symmetry_equiv_pos_as_xyz
  1  'x, y, z'
loop_
 _atom_site_type_symbol
 _atom_site_label
 _atom_site_symmetry_multiplicity
 _atom_site_fract_x
 _atom_site_fract_y
 _atom_site_fract_z
 _atom_site_occupancy
  Pr  Pr0  1  0.27023208  0.47822249  0.87071846  1
  Pr  Pr1  1  0.73081597  0.47883367  0.13730498  1
  Pr  Pr2  1  0.76698540  0.99118438  0.88117817  1
  Pr  Pr3  1  0.23399831  0.96181135  0.12937145  1
  Mn  Mn4  1  0.30697770  0.44254406  0.61143843  1
  Mn  Mn5  1  0.70375708  0.52091425  0.35881164  1
  Mn  Mn6  1  0.99947843  0.00143948  0.00866941  1
  Mn  Mn7  1  0.79902659  0.03431854  0.62304246  1
  Mn  Mn8  1  0.21214158  0.07083274  0.39387439  1
  Mn  Mn9  1  0.49564962  0.49417099  0.99200851  1
  Sb  Sb10  1  0.88401321  0.88506904  0.45839558  1
  Sb  Sb11  1  0.10973558  0.98447830  0.54160077  1
  Sb  Sb12  1  0.03398644  0.50044003  0.82081794  1
  Sb  Sb13  1  0.95951257  0.47274195  0.19320234  1
  Sb  Sb14  1  0.40098721  0.57924412  0.46064575  1
  Sb  Sb15  1  0.60726207  0.57314660  0.53505436  1
  Sb  Sb16  1  0.52986541  0.95758398  0.80643650  1
  Sb  Sb17  1  0.47026815  0.98084060  0.19558094  1
  S  S18  1  0.94385798  0.99319731  0.81657496  1
  S  S19  1  0.06055640  0.02951911  0.19934522  1
  S  S20  1  0.41372279  0.97652498  0.98492882  1
  S  S21  1  0.58215840  0.02045004  0.00662119  1
  S  S22  1  0.17174789  0.94417046  0.90998608  1
  S  S23  1  0.82704715  0.00493818  0.10800784  1
  S  S24  1  0.09923405  0.47183007  0.64110241  1
  S  S25  1  0.91238967  0.45064287  0.36274538  1
  S  S26  1  0.73214371  0.03166941  0.30965024  1
  S  S27  1  0.26595654  0.94914580  0.69282594  1
  S  S28  1  0.17895581  0.51283399  0.44720187  1
  S  S29  1  0.82249331  0.52958850  0.55876135  1
  S  S30  1  0.43926557  0.45572221  0.81014771  1
  S  S31  1  0.56037107  0.48152293  0.18777496  1
  S  S32  1  0.91753823  0.50147530  0.99224369  1
  S  S33  1  0.08330110  0.49096651  0.01803662  1
  S  S34  1  0.66044086  0.48087341  0.88774048  1
  S  S35  1  0.33440377  0.49674594  0.11802718  1
  S  S36  1  0.60120059  0.99443190  0.64638861  1
  S  S37  1  0.39862961  0.03905774  0.34572776  1
  S  S38  1  0.24726862  0.51390834  0.32409516  1
  S  S39  1  0.75418100  0.43299554  0.68603711  1
  S  S40  1  0.67490584  0.93056268  0.45072134  1
  S  S41  1  0.33730716  0.95910082  0.55433573  1
