# generated using pymatgen
data_Pr2Mn3(SbS3)4
_symmetry_space_group_name_H-M   'P 1'
_cell_length_a   20.02960800
_cell_length_b   3.90410600
_cell_length_c   14.95364829
_cell_angle_alpha   90.00000000
_cell_angle_beta   126.33350609
_cell_angle_gamma   90.00000000
_symmetry_Int_Tables_number   1
_chemical_formula_structural   Pr2Mn3(SbS3)4
_chemical_formula_sum   'Pr4 Mn6 Sb8 S24'
_cell_volume   942.00006694
_cell_formula_units_Z   2
loop_
 _symmetry_equiv_pos_site_id
 _symmetry_equiv_pos_as_xyz
  1  'x, y, z'
loop_
 _atom_site_type_symbol
 _atom_site_label
 _atom_site_symmetry_multiplicity
 _atom_site_fract_x
 _atom_site_fract_y
 _atom_site_fract_z
 _atom_site_occupancy
  Pr  Pr0  1  0.27023512  0.47800124  0.87069246  1
  Pr  Pr1  1  0.73061478  0.47887646  0.13720616  1
  Pr  Pr2  1  0.76709717  0.99129938  0.88122457  1
  Pr  Pr3  1  0.23381421  0.96226855  0.12926553  1
  Mn  Mn4  1  0.30712191  0.44302965  0.61142330  1
  Mn  Mn5  1  0.70398768  0.52096954  0.35899442  1
  Mn  Mn6  1  0.99964736  0.00146413  0.00899838  1
  Mn  Mn7  1  0.79920667  0.03454499  0.62304343  1
  Mn  Mn8  1  0.21212506  0.07077598  0.39388053  1
  Mn  Mn9  1  0.49566753  0.49552696  0.99194533  1
  Sb  Sb10  1  0.88402599  0.88499186  0.45825153  1
  Sb  Sb11  1  0.10980477  0.98438469  0.54178190  1
  Sb  Sb12  1  0.03400207  0.50064402  0.82086456  1
  Sb  Sb13  1  0.95938097  0.47251328  0.19294325  1
  Sb  Sb14  1  0.40086641  0.57972928  0.46059207  1
  Sb  Sb15  1  0.60719627  0.57335772  0.53499777  1
  Sb  Sb16  1  0.52997282  0.95809021  0.80665105  1
  Sb  Sb17  1  0.47026373  0.98044452  0.19556936  1
  S  S18  1  0.94380027  0.99249700  0.81636749  1
  S  S19  1  0.06042191  0.02955825  0.19934402  1
  S  S20  1  0.41377379  0.97624331  0.98494951  1
  S  S21  1  0.58187295  0.02206005  0.00639175  1
  S  S22  1  0.17167493  0.94359562  0.90988198  1
  S  S23  1  0.82722420  0.00578961  0.10788387  1
  S  S24  1  0.09955678  0.47205847  0.64159022  1
  S  S25  1  0.91252679  0.44992900  0.36256830  1
  S  S26  1  0.73218850  0.03291983  0.30990776  1
  S  S27  1  0.26589829  0.94758086  0.69282669  1
  S  S28  1  0.17894946  0.51189226  0.44719453  1
  S  S29  1  0.82246090  0.52850413  0.55889034  1
  S  S30  1  0.43941286  0.45521768  0.81036411  1
  S  S31  1  0.56029919  0.48213778  0.18778256  1
  S  S32  1  0.91748777  0.50118461  0.99205732  1
  S  S33  1  0.08323339  0.49110991  0.01799906  1
  S  S34  1  0.66029548  0.48014659  0.88777993  1
  S  S35  1  0.33457595  0.49696112  0.11830306  1
  S  S36  1  0.60133913  0.99325246  0.64665600  1
  S  S37  1  0.39850748  0.03861408  0.34590162  1
  S  S38  1  0.24677468  0.51331708  0.32369782  1
  S  S39  1  0.75431154  0.43250752  0.68640028  1
  S  S40  1  0.67521220  0.93010848  0.45076083  1
  S  S41  1  0.33726460  0.95965455  0.55436885  1
