# generated using pymatgen
data_Pr2Mn3(SbS3)4
_symmetry_space_group_name_H-M   'P 1'
_cell_length_a   20.02960800
_cell_length_b   3.90410600
_cell_length_c   14.95364829
_cell_angle_alpha   90.00000000
_cell_angle_beta   126.33350609
_cell_angle_gamma   90.00000000
_symmetry_Int_Tables_number   1
_chemical_formula_structural   Pr2Mn3(SbS3)4
_chemical_formula_sum   'Pr4 Mn6 Sb8 S24'
_cell_volume   942.00006694
_cell_formula_units_Z   2
loop_
 _symmetry_equiv_pos_site_id
 _symmetry_equiv_pos_as_xyz
  1  'x, y, z'
loop_
 _atom_site_type_symbol
 _atom_site_label
 _atom_site_symmetry_multiplicity
 _atom_site_fract_x
 _atom_site_fract_y
 _atom_site_fract_z
 _atom_site_occupancy
  Pr  Pr0  1  0.27030074  0.47755661  0.87078369  1
  Pr  Pr1  1  0.73048799  0.47871755  0.13713024  1
  Pr  Pr2  1  0.76719273  0.99092728  0.88123828  1
  Pr  Pr3  1  0.23367093  0.96242323  0.12920227  1
  Mn  Mn4  1  0.30719449  0.44351243  0.61135759  1
  Mn  Mn5  1  0.70420248  0.52071413  0.35928149  1
  Mn  Mn6  1  0.99970136  0.00118168  0.00914926  1
  Mn  Mn7  1  0.79943109  0.03475321  0.62313003  1
  Mn  Mn8  1  0.21214188  0.07028060  0.39388697  1
  Mn  Mn9  1  0.49568282  0.49668018  0.99178191  1
  Sb  Sb10  1  0.88397936  0.88470017  0.45806598  1
  Sb  Sb11  1  0.10991879  0.98438440  0.54201765  1
  Sb  Sb12  1  0.03403274  0.50076563  0.82095628  1
  Sb  Sb13  1  0.95932225  0.47223055  0.19275915  1
  Sb  Sb14  1  0.40075314  0.58012885  0.46059641  1
  Sb  Sb15  1  0.60715633  0.57362277  0.53495724  1
  Sb  Sb16  1  0.53002273  0.95848804  0.80692158  1
  Sb  Sb17  1  0.47028210  0.97981481  0.19551619  1
  S  S18  1  0.94373747  0.99178680  0.81602922  1
  S  S19  1  0.06023259  0.02974851  0.19934766  1
  S  S20  1  0.41377486  0.97625090  0.98500391  1
  S  S21  1  0.58148171  0.02332467  0.00627900  1
  S  S22  1  0.17172455  0.94298966  0.90977639  1
  S  S23  1  0.82740974  0.00628562  0.10770882  1
  S  S24  1  0.09998550  0.47186961  0.64227745  1
  S  S25  1  0.91251562  0.44895604  0.36223947  1
  S  S26  1  0.73228935  0.03398436  0.31019016  1
  S  S27  1  0.26583776  0.94649694  0.69279501  1
  S  S28  1  0.17874900  0.51066462  0.44704338  1
  S  S29  1  0.82231970  0.52754507  0.55896515  1
  S  S30  1  0.43950071  0.45488500  0.81051802  1
  S  S31  1  0.56014265  0.48216945  0.18773647  1
  S  S32  1  0.91737219  0.50115078  0.99188719  1
  S  S33  1  0.08317898  0.49086985  0.01804616  1
  S  S34  1  0.66014735  0.47995304  0.88783128  1
  S  S35  1  0.33472896  0.49769603  0.11855266  1
  S  S36  1  0.60144373  0.99270476  0.64694714  1
  S  S37  1  0.39832578  0.03866914  0.34613977  1
  S  S38  1  0.24637535  0.51289531  0.32337245  1
  S  S39  1  0.75438654  0.43231958  0.68671801  1
  S  S40  1  0.67551538  0.92946420  0.45082600  1
  S  S41  1  0.33722722  0.95995117  0.55441144  1
