# generated using pymatgen
data_Pr2Mn3(SbS3)4
_symmetry_space_group_name_H-M   'P 1'
_cell_length_a   20.02960800
_cell_length_b   3.90410600
_cell_length_c   14.95364829
_cell_angle_alpha   90.00000000
_cell_angle_beta   126.33350609
_cell_angle_gamma   90.00000000
_symmetry_Int_Tables_number   1
_chemical_formula_structural   Pr2Mn3(SbS3)4
_chemical_formula_sum   'Pr4 Mn6 Sb8 S24'
_cell_volume   942.00006694
_cell_formula_units_Z   2
loop_
 _symmetry_equiv_pos_site_id
 _symmetry_equiv_pos_as_xyz
  1  'x, y, z'
loop_
 _atom_site_type_symbol
 _atom_site_label
 _atom_site_symmetry_multiplicity
 _atom_site_fract_x
 _atom_site_fract_y
 _atom_site_fract_z
 _atom_site_occupancy
  Pr  Pr0  1  0.27031608  0.47693570  0.87079125  1
  Pr  Pr1  1  0.73036735  0.47871987  0.13709406  1
  Pr  Pr2  1  0.76717237  0.99085593  0.88114104  1
  Pr  Pr3  1  0.23357804  0.96239425  0.12917620  1
  Mn  Mn4  1  0.30717969  0.44366641  0.61126171  1
  Mn  Mn5  1  0.70438825  0.52064007  0.35953839  1
  Mn  Mn6  1  0.99965339  0.00116745  0.00924378  1
  Mn  Mn7  1  0.79966321  0.03511139  0.62330560  1
  Mn  Mn8  1  0.21217733  0.06945467  0.39394560  1
  Mn  Mn9  1  0.49575421  0.49754579  0.99168386  1
  Sb  Sb10  1  0.88396342  0.88446791  0.45790418  1
  Sb  Sb11  1  0.11008101  0.98407435  0.54231447  1
  Sb  Sb12  1  0.03409544  0.50099231  0.82104571  1
  Sb  Sb13  1  0.95928006  0.47184719  0.19259381  1
  Sb  Sb14  1  0.40070292  0.58038294  0.46060902  1
  Sb  Sb15  1  0.60714267  0.57399795  0.53492292  1
  Sb  Sb16  1  0.53009145  0.95861248  0.80714458  1
  Sb  Sb17  1  0.47034271  0.97937711  0.19552411  1
  S  S18  1  0.94369289  0.99118614  0.81588580  1
  S  S19  1  0.05996158  0.03053848  0.19926587  1
  S  S20  1  0.41387787  0.97601979  0.98513126  1
  S  S21  1  0.58113834  0.02483100  0.00615494  1
  S  S22  1  0.17173782  0.94233849  0.90973691  1
  S  S23  1  0.82766190  0.00693917  0.10770807  1
  S  S24  1  0.10030929  0.47165718  0.64291104  1
  S  S25  1  0.91255830  0.44775482  0.36204667  1
  S  S26  1  0.73240955  0.03467876  0.31049567  1
  S  S27  1  0.26586878  0.94563284  0.69281365  1
  S  S28  1  0.17856386  0.50898832  0.44701779  1
  S  S29  1  0.82214693  0.52698141  0.55896721  1
  S  S30  1  0.43952748  0.45468204  0.81056450  1
  S  S31  1  0.55996183  0.48211905  0.18770026  1
  S  S32  1  0.91738929  0.50133418  0.99174292  1
  S  S33  1  0.08318527  0.49047191  0.01820667  1
  S  S34  1  0.66004374  0.47951304  0.88792258  1
  S  S35  1  0.33487598  0.49790440  0.11873859  1
  S  S36  1  0.60166707  0.99246505  0.64724550  1
  S  S37  1  0.39809460  0.03858963  0.34632279  1
  S  S38  1  0.24607360  0.51205568  0.32305997  1
  S  S39  1  0.75449856  0.43250088  0.68696801  1
  S  S40  1  0.67586853  0.92925712  0.45106467  1
  S  S41  1  0.33720206  0.96008610  0.55448075  1
