# generated using pymatgen
data_Pr2Mn3(SbS3)4
_symmetry_space_group_name_H-M   'P 1'
_cell_length_a   20.02960800
_cell_length_b   3.90410600
_cell_length_c   14.95364829
_cell_angle_alpha   90.00000000
_cell_angle_beta   126.33350609
_cell_angle_gamma   90.00000000
_symmetry_Int_Tables_number   1
_chemical_formula_structural   Pr2Mn3(SbS3)4
_chemical_formula_sum   'Pr4 Mn6 Sb8 S24'
_cell_volume   942.00006694
_cell_formula_units_Z   2
loop_
 _symmetry_equiv_pos_site_id
 _symmetry_equiv_pos_as_xyz
  1  'x, y, z'
loop_
 _atom_site_type_symbol
 _atom_site_label
 _atom_site_symmetry_multiplicity
 _atom_site_fract_x
 _atom_site_fract_y
 _atom_site_fract_z
 _atom_site_occupancy
  Pr  Pr0  1  0.27031840  0.47662109  0.87077645  1
  Pr  Pr1  1  0.73030460  0.47908795  0.13709605  1
  Pr  Pr2  1  0.76713139  0.99059529  0.88104369  1
  Pr  Pr3  1  0.23346940  0.96251148  0.12910759  1
  Mn  Mn4  1  0.30709433  0.44418360  0.61108812  1
  Mn  Mn5  1  0.70450993  0.52090877  0.35970481  1
  Mn  Mn6  1  0.99951769  0.00110498  0.00922228  1
  Mn  Mn7  1  0.79994050  0.03578983  0.62355608  1
  Mn  Mn8  1  0.21231364  0.06901043  0.39407444  1
  Mn  Mn9  1  0.49587620  0.49861704  0.99169134  1
  Sb  Sb10  1  0.88392051  0.88430936  0.45774760  1
  Sb  Sb11  1  0.11016153  0.98377463  0.54253449  1
  Sb  Sb12  1  0.03415869  0.50105327  0.82116358  1
  Sb  Sb13  1  0.95923644  0.47161392  0.19247971  1
  Sb  Sb14  1  0.40071430  0.58068713  0.46062253  1
  Sb  Sb15  1  0.60718414  0.57443828  0.53488895  1
  Sb  Sb16  1  0.53012095  0.95856441  0.80732616  1
  Sb  Sb17  1  0.47043264  0.97888616  0.19552289  1
  S  S18  1  0.94373850  0.99046082  0.81601540  1
  S  S19  1  0.05974429  0.03117150  0.19919697  1
  S  S20  1  0.41404263  0.97592801  0.98527630  1
  S  S21  1  0.58073197  0.02612974  0.00591346  1
  S  S22  1  0.17170775  0.94179620  0.90968078  1
  S  S23  1  0.82793456  0.00752982  0.10776508  1
  S  S24  1  0.10062180  0.47184445  0.64358506  1
  S  S25  1  0.91256120  0.44670909  0.36184525  1
  S  S26  1  0.73255798  0.03528095  0.31077973  1
  S  S27  1  0.26586773  0.94516955  0.69282410  1
  S  S28  1  0.17837267  0.50755289  0.44700334  1
  S  S29  1  0.82203979  0.52650798  0.55908233  1
  S  S30  1  0.43965777  0.45472440  0.81060102  1
  S  S31  1  0.55979797  0.48177439  0.18762560  1
  S  S32  1  0.91744307  0.50094397  0.99171068  1
  S  S33  1  0.08325607  0.48984739  0.01841258  1
  S  S34  1  0.65999017  0.47935562  0.88802783  1
  S  S35  1  0.33491493  0.49741362  0.11873793  1
  S  S36  1  0.60198024  0.99223026  0.64758250  1
  S  S37  1  0.39791895  0.03873675  0.34652517  1
  S  S38  1  0.24592291  0.51167254  0.32285642  1
  S  S39  1  0.75472978  0.43325024  0.68723037  1
  S  S40  1  0.67619820  0.92901932  0.45134486  1
  S  S41  1  0.33719117  0.96028662  0.55446916  1
