# generated using pymatgen
data_Pr2Mn3(SbS3)4
_symmetry_space_group_name_H-M   'P 1'
_cell_length_a   20.02960800
_cell_length_b   3.90410600
_cell_length_c   14.95364829
_cell_angle_alpha   90.00000000
_cell_angle_beta   126.33350609
_cell_angle_gamma   90.00000000
_symmetry_Int_Tables_number   1
_chemical_formula_structural   Pr2Mn3(SbS3)4
_chemical_formula_sum   'Pr4 Mn6 Sb8 S24'
_cell_volume   942.00006694
_cell_formula_units_Z   2
loop_
 _symmetry_equiv_pos_site_id
 _symmetry_equiv_pos_as_xyz
  1  'x, y, z'
loop_
 _atom_site_type_symbol
 _atom_site_label
 _atom_site_symmetry_multiplicity
 _atom_site_fract_x
 _atom_site_fract_y
 _atom_site_fract_z
 _atom_site_occupancy
  Pr  Pr0  1  0.27035525  0.47632082  0.87085104  1
  Pr  Pr1  1  0.73022052  0.47934482  0.13709899  1
  Pr  Pr2  1  0.76719027  0.99017966  0.88099173  1
  Pr  Pr3  1  0.23334251  0.96283100  0.12904125  1
  Mn  Mn4  1  0.30695514  0.44480848  0.61089425  1
  Mn  Mn5  1  0.70457507  0.52112648  0.35976114  1
  Mn  Mn6  1  0.99942178  0.00116987  0.00921922  1
  Mn  Mn7  1  0.80011125  0.03599008  0.62382288  1
  Mn  Mn8  1  0.21235492  0.06881620  0.39411627  1
  Mn  Mn9  1  0.49597560  0.49934946  0.99181094  1
  Sb  Sb10  1  0.88389188  0.88458746  0.45759884  1
  Sb  Sb11  1  0.11021712  0.98333337  0.54276149  1
  Sb  Sb12  1  0.03420388  0.50123732  0.82128910  1
  Sb  Sb13  1  0.95920652  0.47167612  0.19243086  1
  Sb  Sb14  1  0.40076392  0.58107170  0.46068390  1
  Sb  Sb15  1  0.60717596  0.57473826  0.53485730  1
  Sb  Sb16  1  0.53011887  0.95844365  0.80752429  1
  Sb  Sb17  1  0.47045813  0.97860081  0.19551095  1
  S  S18  1  0.94371970  0.98938912  0.81616534  1
  S  S19  1  0.05952645  0.03146643  0.19905751  1
  S  S20  1  0.41403369  0.97632298  0.98525863  1
  S  S21  1  0.58031985  0.02779867  0.00564482  1
  S  S22  1  0.17155398  0.94145987  0.90946791  1
  S  S23  1  0.82824317  0.00824258  0.10785153  1
  S  S24  1  0.10086731  0.47230256  0.64418080  1
  S  S25  1  0.91250554  0.44620264  0.36149163  1
  S  S26  1  0.73264703  0.03607133  0.31104469  1
  S  S27  1  0.26575254  0.94477992  0.69270144  1
  S  S28  1  0.17828775  0.50565128  0.44688907  1
  S  S29  1  0.82204600  0.52652646  0.55925577  1
  S  S30  1  0.43980593  0.45480557  0.81052911  1
  S  S31  1  0.55968924  0.48158580  0.18749199  1
  S  S32  1  0.91747432  0.50024556  0.99167817  1
  S  S33  1  0.08329098  0.48924205  0.01850585  1
  S  S34  1  0.65988312  0.47927611  0.88806663  1
  S  S35  1  0.33488489  0.49696976  0.11869835  1
  S  S36  1  0.60225341  0.99190846  0.64783189  1
  S  S37  1  0.39768855  0.03915873  0.34671062  1
  S  S38  1  0.24576763  0.51171664  0.32267673  1
  S  S39  1  0.75498725  0.43444862  0.68760133  1
  S  S40  1  0.67642731  0.92867894  0.45152377  1
  S  S41  1  0.33722285  0.96024738  0.55437866  1
