# generated using pymatgen
data_Pr2Mn3(SbS3)4
_symmetry_space_group_name_H-M   'P 1'
_cell_length_a   20.02960800
_cell_length_b   3.90410600
_cell_length_c   14.95364829
_cell_angle_alpha   90.00000000
_cell_angle_beta   126.33350609
_cell_angle_gamma   90.00000000
_symmetry_Int_Tables_number   1
_chemical_formula_structural   Pr2Mn3(SbS3)4
_chemical_formula_sum   'Pr4 Mn6 Sb8 S24'
_cell_volume   942.00006694
_cell_formula_units_Z   2
loop_
 _symmetry_equiv_pos_site_id
 _symmetry_equiv_pos_as_xyz
  1  'x, y, z'
loop_
 _atom_site_type_symbol
 _atom_site_label
 _atom_site_symmetry_multiplicity
 _atom_site_fract_x
 _atom_site_fract_y
 _atom_site_fract_z
 _atom_site_occupancy
  Pr  Pr0  1  0.27037107  0.47624227  0.87091869  1
  Pr  Pr1  1  0.73014796  0.47953633  0.13710418  1
  Pr  Pr2  1  0.76718934  0.98972471  0.88090840  1
  Pr  Pr3  1  0.23321981  0.96303444  0.12898751  1
  Mn  Mn4  1  0.30682353  0.44554552  0.61076560  1
  Mn  Mn5  1  0.70468342  0.52174473  0.35993202  1
  Mn  Mn6  1  0.99931307  0.00145859  0.00922519  1
  Mn  Mn7  1  0.80027085  0.03602243  0.62410934  1
  Mn  Mn8  1  0.21237032  0.06866665  0.39422442  1
  Mn  Mn9  1  0.49612345  0.50002687  0.99195750  1
  Sb  Sb10  1  0.88389496  0.88497542  0.45740891  1
  Sb  Sb11  1  0.11029839  0.98279786  0.54302639  1
  Sb  Sb12  1  0.03427235  0.50121534  0.82145505  1
  Sb  Sb13  1  0.95913588  0.47183350  0.19235705  1
  Sb  Sb14  1  0.40077938  0.58133920  0.46070851  1
  Sb  Sb15  1  0.60713673  0.57524129  0.53482881  1
  Sb  Sb16  1  0.53012743  0.95857882  0.80773414  1
  Sb  Sb17  1  0.47043906  0.97840331  0.19547340  1
  S  S18  1  0.94372850  0.98873191  0.81632937  1
  S  S19  1  0.05944154  0.03203600  0.19900189  1
  S  S20  1  0.41391399  0.97670164  0.98516895  1
  S  S21  1  0.57987615  0.02948745  0.00529082  1
  S  S22  1  0.17137499  0.94113666  0.90927898  1
  S  S23  1  0.82844130  0.00873472  0.10787344  1
  S  S24  1  0.10099762  0.47206695  0.64463647  1
  S  S25  1  0.91251748  0.44614853  0.36134052  1
  S  S26  1  0.73271751  0.03681234  0.31137006  1
  S  S27  1  0.26570124  0.94438533  0.69264459  1
  S  S28  1  0.17816822  0.50383235  0.44688714  1
  S  S29  1  0.82208098  0.52663263  0.55956337  1
  S  S30  1  0.43988502  0.45501084  0.81041729  1
  S  S31  1  0.55951507  0.48176060  0.18726748  1
  S  S32  1  0.91754922  0.49979683  0.99179040  1
  S  S33  1  0.08338718  0.48831799  0.01865125  1
  S  S34  1  0.65980565  0.47912770  0.88819756  1
  S  S35  1  0.33489841  0.49686098  0.11861327  1
  S  S36  1  0.60257467  0.99163538  0.64802372  1
  S  S37  1  0.39752664  0.03975680  0.34695827  1
  S  S38  1  0.24565601  0.51167870  0.32245439  1
  S  S39  1  0.75516719  0.43575223  0.68791442  1
  S  S40  1  0.67658832  0.92851134  0.45157830  1
  S  S41  1  0.33723303  0.96055191  0.55433568  1
