# generated using pymatgen
data_Pr2Mn3(SbS3)4
_symmetry_space_group_name_H-M   'P 1'
_cell_length_a   20.02960800
_cell_length_b   3.90410600
_cell_length_c   14.95364829
_cell_angle_alpha   90.00000000
_cell_angle_beta   126.33350609
_cell_angle_gamma   90.00000000
_symmetry_Int_Tables_number   1
_chemical_formula_structural   Pr2Mn3(SbS3)4
_chemical_formula_sum   'Pr4 Mn6 Sb8 S24'
_cell_volume   942.00006694
_cell_formula_units_Z   2
loop_
 _symmetry_equiv_pos_site_id
 _symmetry_equiv_pos_as_xyz
  1  'x, y, z'
loop_
 _atom_site_type_symbol
 _atom_site_label
 _atom_site_symmetry_multiplicity
 _atom_site_fract_x
 _atom_site_fract_y
 _atom_site_fract_z
 _atom_site_occupancy
  Pr  Pr0  1  0.27038734  0.47600433  0.87100012  1
  Pr  Pr1  1  0.73001142  0.48012760  0.13707082  1
  Pr  Pr2  1  0.76721330  0.98905671  0.88087764  1
  Pr  Pr3  1  0.23312943  0.96298420  0.12893708  1
  Mn  Mn4  1  0.30673756  0.44670772  0.61063312  1
  Mn  Mn5  1  0.70477153  0.52243027  0.35998697  1
  Mn  Mn6  1  0.99917250  0.00180592  0.00930540  1
  Mn  Mn7  1  0.80046812  0.03613659  0.62441585  1
  Mn  Mn8  1  0.21244969  0.06838900  0.39442461  1
  Mn  Mn9  1  0.49628073  0.50067283  0.99204658  1
  Sb  Sb10  1  0.88388814  0.88532246  0.45728354  1
  Sb  Sb11  1  0.11030865  0.98265427  0.54317555  1
  Sb  Sb12  1  0.03433330  0.50123648  0.82158901  1
  Sb  Sb13  1  0.95905626  0.47181785  0.19229422  1
  Sb  Sb14  1  0.40077407  0.58153950  0.46070542  1
  Sb  Sb15  1  0.60708127  0.57554415  0.53482381  1
  Sb  Sb16  1  0.53014508  0.95870540  0.80789328  1
  Sb  Sb17  1  0.47047952  0.97817508  0.19542752  1
  S  S18  1  0.94382698  0.98857845  0.81658428  1
  S  S19  1  0.05943073  0.03274331  0.19887691  1
  S  S20  1  0.41389244  0.97692213  0.98507962  1
  S  S21  1  0.57948908  0.03059495  0.00503346  1
  S  S22  1  0.17118283  0.94129134  0.90901347  1
  S  S23  1  0.82862841  0.00922746  0.10781938  1
  S  S24  1  0.10104141  0.47175961  0.64489570  1
  S  S25  1  0.91256386  0.44607948  0.36107817  1
  S  S26  1  0.73287190  0.03736096  0.31161425  1
  S  S27  1  0.26573017  0.94439241  0.69281243  1
  S  S28  1  0.17797149  0.50223831  0.44684822  1
  S  S29  1  0.82221096  0.52668011  0.55987428  1
  S  S30  1  0.43984799  0.45613996  0.81023898  1
  S  S31  1  0.55940513  0.48182335  0.18700295  1
  S  S32  1  0.91760613  0.49984153  0.99179171  1
  S  S33  1  0.08348969  0.48736413  0.01885265  1
  S  S34  1  0.65967161  0.47869589  0.88820791  1
  S  S35  1  0.33501019  0.49638222  0.11867584  1
  S  S36  1  0.60281671  0.99095868  0.64834704  1
  S  S37  1  0.39727894  0.03992892  0.34719197  1
  S  S38  1  0.24547477  0.51162846  0.32216877  1
  S  S39  1  0.75524670  0.43721739  0.68807858  1
  S  S40  1  0.67672537  0.92801049  0.45169801  1
  S  S41  1  0.33720370  0.96047111  0.55431107  1
