# generated using pymatgen
data_Pr2Mn3(SbS3)4
_symmetry_space_group_name_H-M   'P 1'
_cell_length_a   20.02960800
_cell_length_b   3.90410600
_cell_length_c   14.95364829
_cell_angle_alpha   90.00000000
_cell_angle_beta   126.33350609
_cell_angle_gamma   90.00000000
_symmetry_Int_Tables_number   1
_chemical_formula_structural   Pr2Mn3(SbS3)4
_chemical_formula_sum   'Pr4 Mn6 Sb8 S24'
_cell_volume   942.00006694
_cell_formula_units_Z   2
loop_
 _symmetry_equiv_pos_site_id
 _symmetry_equiv_pos_as_xyz
  1  'x, y, z'
loop_
 _atom_site_type_symbol
 _atom_site_label
 _atom_site_symmetry_multiplicity
 _atom_site_fract_x
 _atom_site_fract_y
 _atom_site_fract_z
 _atom_site_occupancy
  Pr  Pr0  1  0.27042514  0.47613394  0.87110277  1
  Pr  Pr1  1  0.72990438  0.48053479  0.13705211  1
  Pr  Pr2  1  0.76714271  0.98839609  0.88081524  1
  Pr  Pr3  1  0.23306662  0.96298570  0.12888877  1
  Mn  Mn4  1  0.30673664  0.44782371  0.61051709  1
  Mn  Mn5  1  0.70488687  0.52321101  0.36014011  1
  Mn  Mn6  1  0.99900947  0.00243868  0.00927500  1
  Mn  Mn7  1  0.80057480  0.03592249  0.62469081  1
  Mn  Mn8  1  0.21247835  0.06803012  0.39463552  1
  Mn  Mn9  1  0.49639809  0.50150975  0.99212863  1
  Sb  Sb10  1  0.88388830  0.88581741  0.45715291  1
  Sb  Sb11  1  0.11033415  0.98260638  0.54335221  1
  Sb  Sb12  1  0.03439342  0.50117931  0.82175775  1
  Sb  Sb13  1  0.95906555  0.47172200  0.19233508  1
  Sb  Sb14  1  0.40073464  0.58186074  0.46060955  1
  Sb  Sb15  1  0.60698803  0.57556080  0.53480293  1
  Sb  Sb16  1  0.53016289  0.95870203  0.80800572  1
  Sb  Sb17  1  0.47055956  0.97806785  0.19542512  1
  S  S18  1  0.94395596  0.98880264  0.81677497  1
  S  S19  1  0.05944398  0.03330469  0.19881388  1
  S  S20  1  0.41396127  0.97680510  0.98497913  1
  S  S21  1  0.57920228  0.03168546  0.00476535  1
  S  S22  1  0.17090533  0.94134825  0.90853845  1
  S  S23  1  0.82873078  0.00980134  0.10777284  1
  S  S24  1  0.10116670  0.47199229  0.64515647  1
  S  S25  1  0.91255778  0.44668429  0.36078357  1
  S  S26  1  0.73307362  0.03790642  0.31194815  1
  S  S27  1  0.26579770  0.94444619  0.69291227  1
  S  S28  1  0.17770487  0.50089350  0.44679266  1
  S  S29  1  0.82221465  0.52700146  0.56007730  1
  S  S30  1  0.43985664  0.45710235  0.81017486  1
  S  S31  1  0.55939731  0.48234080  0.18689444  1
  S  S32  1  0.91761035  0.49993217  0.99175980  1
  S  S33  1  0.08359291  0.48673435  0.01894112  1
  S  S34  1  0.65948982  0.47833007  0.88828398  1
  S  S35  1  0.33505109  0.49583514  0.11869934  1
  S  S36  1  0.60300053  0.99037652  0.64854351  1
  S  S37  1  0.39703758  0.04012030  0.34744598  1
  S  S38  1  0.24531317  0.51149496  0.32190867  1
  S  S39  1  0.75525946  0.43875850  0.68819682  1
  S  S40  1  0.67677796  0.92805939  0.45182160  1
  S  S41  1  0.33718958  0.96032029  0.55442230  1
