# generated using pymatgen
data_Pr2Mn3(SbS3)4
_symmetry_space_group_name_H-M   'P 1'
_cell_length_a   20.02960800
_cell_length_b   3.90410600
_cell_length_c   14.95364829
_cell_angle_alpha   90.00000000
_cell_angle_beta   126.33350609
_cell_angle_gamma   90.00000000
_symmetry_Int_Tables_number   1
_chemical_formula_structural   Pr2Mn3(SbS3)4
_chemical_formula_sum   'Pr4 Mn6 Sb8 S24'
_cell_volume   942.00006694
_cell_formula_units_Z   2
loop_
 _symmetry_equiv_pos_site_id
 _symmetry_equiv_pos_as_xyz
  1  'x, y, z'
loop_
 _atom_site_type_symbol
 _atom_site_label
 _atom_site_symmetry_multiplicity
 _atom_site_fract_x
 _atom_site_fract_y
 _atom_site_fract_z
 _atom_site_occupancy
  Pr  Pr0  1  0.27049568  0.47620787  0.87127935  1
  Pr  Pr1  1  0.72975410  0.48091871  0.13695838  1
  Pr  Pr2  1  0.76709090  0.98787615  0.88076865  1
  Pr  Pr3  1  0.23301211  0.96315843  0.12883319  1
  Mn  Mn4  1  0.30675703  0.44894926  0.61045612  1
  Mn  Mn5  1  0.70489863  0.52354743  0.36025128  1
  Mn  Mn6  1  0.99882126  0.00275674  0.00933514  1
  Mn  Mn7  1  0.80074208  0.03562872  0.62505925  1
  Mn  Mn8  1  0.21239556  0.06791876  0.39473657  1
  Mn  Mn9  1  0.49639508  0.50249070  0.99213806  1
  Sb  Sb10  1  0.88397095  0.88627508  0.45705264  1
  Sb  Sb11  1  0.11037393  0.98275164  0.54352211  1
  Sb  Sb12  1  0.03441880  0.50142833  0.82188208  1
  Sb  Sb13  1  0.95912288  0.47184777  0.19237375  1
  Sb  Sb14  1  0.40069719  0.58222606  0.46051396  1
  Sb  Sb15  1  0.60688399  0.57571481  0.53474552  1
  Sb  Sb16  1  0.53014465  0.95843838  0.80803568  1
  Sb  Sb17  1  0.47057061  0.97784132  0.19539556  1
  S  S18  1  0.94402798  0.98881042  0.81700743  1
  S  S19  1  0.05945285  0.03364508  0.19873435  1
  S  S20  1  0.41389129  0.97722109  0.98491729  1
  S  S21  1  0.57884074  0.03240091  0.00448641  1
  S  S22  1  0.17058922  0.94144695  0.90801073  1
  S  S23  1  0.82885182  0.01067622  0.10772882  1
  S  S24  1  0.10133467  0.47257069  0.64551003  1
  S  S25  1  0.91252476  0.44725286  0.36048910  1
  S  S26  1  0.73327977  0.03821379  0.31225474  1
  S  S27  1  0.26588378  0.94520539  0.69301126  1
  S  S28  1  0.17757559  0.49973273  0.44683958  1
  S  S29  1  0.82220153  0.52668225  0.56031901  1
  S  S30  1  0.43974279  0.45815236  0.81007473  1
  S  S31  1  0.55941584  0.48255724  0.18676363  1
  S  S32  1  0.91748831  0.50006889  0.99161692  1
  S  S33  1  0.08345656  0.48534885  0.01886714  1
  S  S34  1  0.65924834  0.47803082  0.88826500  1
  S  S35  1  0.33492170  0.49541094  0.11859771  1
  S  S36  1  0.60306625  0.99000203  0.64851200  1
  S  S37  1  0.39685394  0.04056560  0.34767224  1
  S  S38  1  0.24511552  0.51126224  0.32153188  1
  S  S39  1  0.75520257  0.44001970  0.68825929  1
  S  S40  1  0.67677717  0.92837404  0.45196370  1
  S  S41  1  0.33731022  0.96016242  0.55468222  1
