# generated using pymatgen
data_Pr2Mn3(SbS3)4
_symmetry_space_group_name_H-M   'P 1'
_cell_length_a   20.02960800
_cell_length_b   3.90410600
_cell_length_c   14.95364829
_cell_angle_alpha   90.00000000
_cell_angle_beta   126.33350609
_cell_angle_gamma   90.00000000
_symmetry_Int_Tables_number   1
_chemical_formula_structural   Pr2Mn3(SbS3)4
_chemical_formula_sum   'Pr4 Mn6 Sb8 S24'
_cell_volume   942.00006694
_cell_formula_units_Z   2
loop_
 _symmetry_equiv_pos_site_id
 _symmetry_equiv_pos_as_xyz
  1  'x, y, z'
loop_
 _atom_site_type_symbol
 _atom_site_label
 _atom_site_symmetry_multiplicity
 _atom_site_fract_x
 _atom_site_fract_y
 _atom_site_fract_z
 _atom_site_occupancy
  Pr  Pr0  1  0.26671649  0.48684217  0.86385351  1
  Pr  Pr1  1  0.73615697  0.51280822  0.13616686  1
  Pr  Pr2  1  0.76274760  0.01246463  0.86208329  1
  Pr  Pr3  1  0.23563751  0.00533203  0.13627034  1
  Mn  Mn4  1  0.28875682  0.47693253  0.59583875  1
  Mn  Mn5  1  0.68950489  0.49335941  0.37308229  1
  Mn  Mn6  1  0.00820336  0.98830455  0.01891667  1
  Mn  Mn7  1  0.80506097  0.01206124  0.61786790  1
  Mn  Mn8  1  0.19835791  0.98358928  0.37691081  1
  Mn  Mn9  1  0.49312329  0.47732302  0.99027777  1
  Sb  Sb10  1  0.88991918  0.98320453  0.45003603  1
  Sb  Sb11  1  0.11208288  0.97626274  0.54721480  1
  Sb  Sb12  1  0.04051996  0.52151619  0.82269933  1
  Sb  Sb13  1  0.96387005  0.49890038  0.18324950  1
  Sb  Sb14  1  0.39586491  0.50680758  0.45131850  1
  Sb  Sb15  1  0.60568400  0.47433956  0.54724609  1
  Sb  Sb16  1  0.53314315  0.99838037  0.80880137  1
  Sb  Sb17  1  0.46317645  0.01646317  0.18558289  1
  S  S18  1  0.93787448  0.99529050  0.80472200  1
  S  S19  1  0.06584961  0.98507586  0.20098750  1
  S  S20  1  0.41052399  0.97462665  0.98085114  1
  S  S21  1  0.57818322  0.00445503  0.00904890  1
  S  S22  1  0.17194434  0.03010337  0.90090812  1
  S  S23  1  0.82344702  0.04915143  0.09571893  1
  S  S24  1  0.09625118  0.48113307  0.64684655  1
  S  S25  1  0.91175222  0.48286972  0.35479787  1
  S  S26  1  0.74051877  0.94699589  0.30273017  1
  S  S27  1  0.26383778  0.00651842  0.70947325  1
  S  S28  1  0.15845312  0.48256745  0.42853301  1
  S  S29  1  0.82482958  0.48741370  0.54810111  1
  S  S30  1  0.43269641  0.49693664  0.79976985  1
  S  S31  1  0.55749935  0.51160851  0.18429207  1
  S  S32  1  0.90948032  0.48185462  0.98653012  1
  S  S33  1  0.09088110  0.46829679  0.02561537  1
  S  S34  1  0.66416173  0.50778101  0.88542537  1
  S  S35  1  0.33165987  0.50870928  0.09783112  1
  S  S36  1  0.59691795  0.98309470  0.65462025  1
  S  S37  1  0.40483902  0.98800271  0.35045803  1
  S  S38  1  0.23922258  0.46242552  0.30822912  1
  S  S39  1  0.76199484  0.50043192  0.69770103  1
  S  S40  1  0.66779052  0.02638194  0.45368810  1
  S  S41  1  0.32358592  0.97595725  0.55032369  1
