# generated using pymatgen
data_Pr2Mn3(SbS3)4
_symmetry_space_group_name_H-M   'P 1'
_cell_length_a   20.02960800
_cell_length_b   3.90410600
_cell_length_c   14.95364829
_cell_angle_alpha   90.00000000
_cell_angle_beta   126.33350609
_cell_angle_gamma   90.00000000
_symmetry_Int_Tables_number   1
_chemical_formula_structural   Pr2Mn3(SbS3)4
_chemical_formula_sum   'Pr4 Mn6 Sb8 S24'
_cell_volume   942.00006694
_cell_formula_units_Z   2
loop_
 _symmetry_equiv_pos_site_id
 _symmetry_equiv_pos_as_xyz
  1  'x, y, z'
loop_
 _atom_site_type_symbol
 _atom_site_label
 _atom_site_symmetry_multiplicity
 _atom_site_fract_x
 _atom_site_fract_y
 _atom_site_fract_z
 _atom_site_occupancy
  Pr  Pr0  1  0.27059902  0.47619611  0.87153057  1
  Pr  Pr1  1  0.72957357  0.48127145  0.13686667  1
  Pr  Pr2  1  0.76705988  0.98735537  0.88076666  1
  Pr  Pr3  1  0.23295013  0.96335429  0.12879028  1
  Mn  Mn4  1  0.30684293  0.45035582  0.61047371  1
  Mn  Mn5  1  0.70505004  0.52374309  0.36045797  1
  Mn  Mn6  1  0.99862012  0.00329967  0.00942506  1
  Mn  Mn7  1  0.80094690  0.03562833  0.62539458  1
  Mn  Mn8  1  0.21230356  0.06791053  0.39481707  1
  Mn  Mn9  1  0.49644276  0.50353706  0.99210633  1
  Sb  Sb10  1  0.88401316  0.88668402  0.45688478  1
  Sb  Sb11  1  0.11044766  0.98287493  0.54362364  1
  Sb  Sb12  1  0.03439793  0.50161609  0.82194955  1
  Sb  Sb13  1  0.95907833  0.47224112  0.19233046  1
  Sb  Sb14  1  0.40066065  0.58245539  0.46045446  1
  Sb  Sb15  1  0.60676834  0.57598897  0.53463908  1
  Sb  Sb16  1  0.53009932  0.95832505  0.80810264  1
  Sb  Sb17  1  0.47064256  0.97773726  0.19544402  1
  S  S18  1  0.94412279  0.98903232  0.81736104  1
  S  S19  1  0.05958078  0.03435199  0.19876689  1
  S  S20  1  0.41371811  0.97767524  0.98477949  1
  S  S21  1  0.57858805  0.03314050  0.00440264  1
  S  S22  1  0.17027907  0.94209767  0.90754731  1
  S  S23  1  0.82892080  0.01152254  0.10767796  1
  S  S24  1  0.10139232  0.47354035  0.64571354  1
  S  S25  1  0.91249611  0.44772508  0.36019074  1
  S  S26  1  0.73351604  0.03858255  0.31254510  1
  S  S27  1  0.26602001  0.94626706  0.69320604  1
  S  S28  1  0.17735496  0.49891092  0.44688288  1
  S  S29  1  0.82197316  0.52610491  0.56042362  1
  S  S30  1  0.43977808  0.45885048  0.81000095  1
  S  S31  1  0.55954599  0.48329620  0.18672897  1
  S  S32  1  0.91737194  0.50032704  0.99148241  1
  S  S33  1  0.08346568  0.48385160  0.01888089  1
  S  S34  1  0.65898188  0.47769599  0.88803876  1
  S  S35  1  0.33482114  0.49457618  0.11833986  1
  S  S36  1  0.60309971  0.98964184  0.64844412  1
  S  S37  1  0.39673131  0.04117526  0.34788447  1
  S  S38  1  0.24480725  0.51122072  0.32100636  1
  S  S39  1  0.75517583  0.44117391  0.68840296  1
  S  S40  1  0.67677400  0.92867070  0.45195134  1
  S  S41  1  0.33736043  0.96035150  0.55495512  1
