# generated using pymatgen
data_Pr2Mn3(SbS3)4
_symmetry_space_group_name_H-M   'P 1'
_cell_length_a   20.02960800
_cell_length_b   3.90410600
_cell_length_c   14.95364829
_cell_angle_alpha   90.00000000
_cell_angle_beta   126.33350609
_cell_angle_gamma   90.00000000
_symmetry_Int_Tables_number   1
_chemical_formula_structural   Pr2Mn3(SbS3)4
_chemical_formula_sum   'Pr4 Mn6 Sb8 S24'
_cell_volume   942.00006694
_cell_formula_units_Z   2
loop_
 _symmetry_equiv_pos_site_id
 _symmetry_equiv_pos_as_xyz
  1  'x, y, z'
loop_
 _atom_site_type_symbol
 _atom_site_label
 _atom_site_symmetry_multiplicity
 _atom_site_fract_x
 _atom_site_fract_y
 _atom_site_fract_z
 _atom_site_occupancy
  Pr  Pr0  1  0.27070673  0.47580738  0.87175849  1
  Pr  Pr1  1  0.72937270  0.48150476  0.13676599  1
  Pr  Pr2  1  0.76698052  0.98701293  0.88075722  1
  Pr  Pr3  1  0.23286007  0.96388896  0.12873184  1
  Mn  Mn4  1  0.30692267  0.45140348  0.61050750  1
  Mn  Mn5  1  0.70522335  0.52415113  0.36077395  1
  Mn  Mn6  1  0.99847924  0.00335767  0.00951634  1
  Mn  Mn7  1  0.80101907  0.03575421  0.62559711  1
  Mn  Mn8  1  0.21215285  0.06756306  0.39496700  1
  Mn  Mn9  1  0.49646099  0.50492596  0.99205041  1
  Sb  Sb10  1  0.88407531  0.88706855  0.45675471  1
  Sb  Sb11  1  0.11052660  0.98310681  0.54365043  1
  Sb  Sb12  1  0.03436681  0.50197260  0.82198590  1
  Sb  Sb13  1  0.95906950  0.47274054  0.19233020  1
  Sb  Sb14  1  0.40064574  0.58229207  0.46039670  1
  Sb  Sb15  1  0.60667269  0.57647841  0.53447598  1
  Sb  Sb16  1  0.53002618  0.95819607  0.80813753  1
  Sb  Sb17  1  0.47068138  0.97744438  0.19541520  1
  S  S18  1  0.94419592  0.98971575  0.81774710  1
  S  S19  1  0.05972480  0.03482089  0.19876058  1
  S  S20  1  0.41351969  0.97906603  0.98446255  1
  S  S21  1  0.57834532  0.03385962  0.00422033  1
  S  S22  1  0.17003568  0.94259515  0.90713702  1
  S  S23  1  0.82897336  0.01173768  0.10773230  1
  S  S24  1  0.10159939  0.47459276  0.64609090  1
  S  S25  1  0.91239038  0.44807503  0.35976371  1
  S  S26  1  0.73361552  0.03928175  0.31265591  1
  S  S27  1  0.26609829  0.94703656  0.69333877  1
  S  S28  1  0.17708968  0.49818011  0.44688549  1
  S  S29  1  0.82163587  0.52495328  0.56041056  1
  S  S30  1  0.43970645  0.45986458  0.80993048  1
  S  S31  1  0.55964617  0.48394292  0.18659827  1
  S  S32  1  0.91721089  0.49988392  0.99127492  1
  S  S33  1  0.08344175  0.48249889  0.01891160  1
  S  S34  1  0.65863362  0.47736669  0.88761253  1
  S  S35  1  0.33475033  0.49353159  0.11818996  1
  S  S36  1  0.60310698  0.98946770  0.64844782  1
  S  S37  1  0.39665803  0.04182144  0.34817000  1
  S  S38  1  0.24458876  0.51147233  0.32067097  1
  S  S39  1  0.75505160  0.44241277  0.68847250  1
  S  S40  1  0.67673272  0.92901451  0.45192352  1
  S  S41  1  0.33732856  0.96081785  0.55508487  1
