# generated using pymatgen
data_Pr2Mn3(SbS3)4
_symmetry_space_group_name_H-M   'P 1'
_cell_length_a   20.02960800
_cell_length_b   3.90410600
_cell_length_c   14.95364829
_cell_angle_alpha   90.00000000
_cell_angle_beta   126.33350609
_cell_angle_gamma   90.00000000
_symmetry_Int_Tables_number   1
_chemical_formula_structural   Pr2Mn3(SbS3)4
_chemical_formula_sum   'Pr4 Mn6 Sb8 S24'
_cell_volume   942.00006694
_cell_formula_units_Z   2
loop_
 _symmetry_equiv_pos_site_id
 _symmetry_equiv_pos_as_xyz
  1  'x, y, z'
loop_
 _atom_site_type_symbol
 _atom_site_label
 _atom_site_symmetry_multiplicity
 _atom_site_fract_x
 _atom_site_fract_y
 _atom_site_fract_z
 _atom_site_occupancy
  Pr  Pr0  1  0.27077412  0.47552724  0.87205899  1
  Pr  Pr1  1  0.72915287  0.48177145  0.13665237  1
  Pr  Pr2  1  0.76691763  0.98679466  0.88074978  1
  Pr  Pr3  1  0.23281569  0.96430295  0.12873680  1
  Mn  Mn4  1  0.30701512  0.45253912  0.61054049  1
  Mn  Mn5  1  0.70540199  0.52483649  0.36123052  1
  Mn  Mn6  1  0.99836417  0.00312664  0.00956286  1
  Mn  Mn7  1  0.80113765  0.03606916  0.62581066  1
  Mn  Mn8  1  0.21206663  0.06672754  0.39515974  1
  Mn  Mn9  1  0.49649096  0.50604802  0.99199859  1
  Sb  Sb10  1  0.88409135  0.88740156  0.45656973  1
  Sb  Sb11  1  0.11053592  0.98323512  0.54363021  1
  Sb  Sb12  1  0.03438087  0.50232514  0.82202573  1
  Sb  Sb13  1  0.95908254  0.47311126  0.19235573  1
  Sb  Sb14  1  0.40057838  0.58225369  0.46031669  1
  Sb  Sb15  1  0.60658921  0.57679149  0.53429630  1
  Sb  Sb16  1  0.52998371  0.95840609  0.80819850  1
  Sb  Sb17  1  0.47077208  0.97733940  0.19534735  1
  S  S18  1  0.94419714  0.99061489  0.81811167  1
  S  S19  1  0.05988686  0.03563390  0.19876818  1
  S  S20  1  0.41315239  0.97975274  0.98389797  1
  S  S21  1  0.57833791  0.03456314  0.00414191  1
  S  S22  1  0.16977858  0.94356746  0.90678016  1
  S  S23  1  0.82906779  0.01141633  0.10780571  1
  S  S24  1  0.10173962  0.47535605  0.64641384  1
  S  S25  1  0.91230325  0.44880396  0.35947601  1
  S  S26  1  0.73373795  0.03989626  0.31261382  1
  S  S27  1  0.26611644  0.94780966  0.69354017  1
  S  S28  1  0.17692134  0.49758189  0.44704472  1
  S  S29  1  0.82129857  0.52375869  0.56032307  1
  S  S30  1  0.43965483  0.46125506  0.80977633  1
  S  S31  1  0.55976048  0.48479212  0.18642866  1
  S  S32  1  0.91704956  0.49949044  0.99097681  1
  S  S33  1  0.08330214  0.48129221  0.01878566  1
  S  S34  1  0.65843626  0.47723927  0.88728563  1
  S  S35  1  0.33455800  0.49277663  0.11790557  1
  S  S36  1  0.60311747  0.98904014  0.64843809  1
  S  S37  1  0.39655541  0.04218569  0.34829288  1
  S  S38  1  0.24425526  0.51116516  0.32040129  1
  S  S39  1  0.75489424  0.44347757  0.68840021  1
  S  S40  1  0.67667094  0.92961161  0.45209450  1
  S  S41  1  0.33726901  0.96058918  0.55527422  1
