# generated using pymatgen
data_Pr2Mn3(SbS3)4
_symmetry_space_group_name_H-M   'P 1'
_cell_length_a   20.02960800
_cell_length_b   3.90410600
_cell_length_c   14.95364829
_cell_angle_alpha   90.00000000
_cell_angle_beta   126.33350609
_cell_angle_gamma   90.00000000
_symmetry_Int_Tables_number   1
_chemical_formula_structural   Pr2Mn3(SbS3)4
_chemical_formula_sum   'Pr4 Mn6 Sb8 S24'
_cell_volume   942.00006694
_cell_formula_units_Z   2
loop_
 _symmetry_equiv_pos_site_id
 _symmetry_equiv_pos_as_xyz
  1  'x, y, z'
loop_
 _atom_site_type_symbol
 _atom_site_label
 _atom_site_symmetry_multiplicity
 _atom_site_fract_x
 _atom_site_fract_y
 _atom_site_fract_z
 _atom_site_occupancy
  Pr  Pr0  1  0.27082272  0.47538157  0.87230103  1
  Pr  Pr1  1  0.72894063  0.48190883  0.13654391  1
  Pr  Pr2  1  0.76687962  0.98643983  0.88075313  1
  Pr  Pr3  1  0.23280716  0.96474143  0.12882048  1
  Mn  Mn4  1  0.30699168  0.45329857  0.61046456  1
  Mn  Mn5  1  0.70552841  0.52570593  0.36152240  1
  Mn  Mn6  1  0.99823233  0.00315049  0.00950317  1
  Mn  Mn7  1  0.80134730  0.03620485  0.62605807  1
  Mn  Mn8  1  0.21194937  0.06562075  0.39525866  1
  Mn  Mn9  1  0.49647672  0.50708416  0.99175920  1
  Sb  Sb10  1  0.88414216  0.88778358  0.45643403  1
  Sb  Sb11  1  0.11054948  0.98334427  0.54358919  1
  Sb  Sb12  1  0.03437868  0.50272149  0.82199657  1
  Sb  Sb13  1  0.95904511  0.47339940  0.19240372  1
  Sb  Sb14  1  0.40052102  0.58209190  0.46025124  1
  Sb  Sb15  1  0.60646743  0.57720817  0.53409897  1
  Sb  Sb16  1  0.52995794  0.95843669  0.80824940  1
  Sb  Sb17  1  0.47081362  0.97756799  0.19529024  1
  S  S18  1  0.94424095  0.99121471  0.81845240  1
  S  S19  1  0.05998797  0.03645634  0.19866347  1
  S  S20  1  0.41280649  0.98026619  0.98334029  1
  S  S21  1  0.57827182  0.03484661  0.00398682  1
  S  S22  1  0.16958395  0.94450088  0.90654215  1
  S  S23  1  0.82918825  0.01107202  0.10778372  1
  S  S24  1  0.10194671  0.47571542  0.64677623  1
  S  S25  1  0.91217598  0.44914385  0.35923074  1
  S  S26  1  0.73377964  0.04049310  0.31258431  1
  S  S27  1  0.26612828  0.94833313  0.69366875  1
  S  S28  1  0.17673121  0.49701733  0.44710529  1
  S  S29  1  0.82104110  0.52306327  0.56029331  1
  S  S30  1  0.43948372  0.46311251  0.80955607  1
  S  S31  1  0.55989268  0.48532294  0.18643422  1
  S  S32  1  0.91694429  0.49876810  0.99082644  1
  S  S33  1  0.08321988  0.47989701  0.01858840  1
  S  S34  1  0.65823991  0.47731897  0.88695595  1
  S  S35  1  0.33428157  0.49195248  0.11741668  1
  S  S36  1  0.60311612  0.98842523  0.64845823  1
  S  S37  1  0.39639432  0.04289192  0.34835033  1
  S  S38  1  0.24389772  0.51115243  0.31999909  1
  S  S39  1  0.75467373  0.44413923  0.68827829  1
  S  S40  1  0.67664017  0.92959623  0.45210538  1
  S  S41  1  0.33732746  0.96058252  0.55545874  1
