# generated using pymatgen
data_Pr2Mn3(SbS3)4
_symmetry_space_group_name_H-M   'P 1'
_cell_length_a   20.02960800
_cell_length_b   3.90410600
_cell_length_c   14.95364829
_cell_angle_alpha   90.00000000
_cell_angle_beta   126.33350609
_cell_angle_gamma   90.00000000
_symmetry_Int_Tables_number   1
_chemical_formula_structural   Pr2Mn3(SbS3)4
_chemical_formula_sum   'Pr4 Mn6 Sb8 S24'
_cell_volume   942.00006694
_cell_formula_units_Z   2
loop_
 _symmetry_equiv_pos_site_id
 _symmetry_equiv_pos_as_xyz
  1  'x, y, z'
loop_
 _atom_site_type_symbol
 _atom_site_label
 _atom_site_symmetry_multiplicity
 _atom_site_fract_x
 _atom_site_fract_y
 _atom_site_fract_z
 _atom_site_occupancy
  Pr  Pr0  1  0.27083084  0.47504168  0.87251489  1
  Pr  Pr1  1  0.72872275  0.48199814  0.13643122  1
  Pr  Pr2  1  0.76684284  0.98615059  0.88079880  1
  Pr  Pr3  1  0.23281773  0.96505552  0.12890449  1
  Mn  Mn4  1  0.30702363  0.45390887  0.61041893  1
  Mn  Mn5  1  0.70570790  0.52642159  0.36188669  1
  Mn  Mn6  1  0.99799249  0.00318333  0.00935474  1
  Mn  Mn7  1  0.80155275  0.03608312  0.62618605  1
  Mn  Mn8  1  0.21182359  0.06436418  0.39529668  1
  Mn  Mn9  1  0.49645872  0.50787500  0.99145824  1
  Sb  Sb10  1  0.88417911  0.88810435  0.45631461  1
  Sb  Sb11  1  0.11054524  0.98358629  0.54353633  1
  Sb  Sb12  1  0.03435044  0.50310604  0.82201424  1
  Sb  Sb13  1  0.95901259  0.47392901  0.19237967  1
  Sb  Sb14  1  0.40044366  0.58207133  0.46019650  1
  Sb  Sb15  1  0.60640031  0.57753964  0.53394427  1
  Sb  Sb16  1  0.52989120  0.95826670  0.80825330  1
  Sb  Sb17  1  0.47084780  0.97814443  0.19525297  1
  S  S18  1  0.94426017  0.99184617  0.81866429  1
  S  S19  1  0.06004415  0.03697301  0.19872310  1
  S  S20  1  0.41264043  0.98099961  0.98298733  1
  S  S21  1  0.57811923  0.03556467  0.00374111  1
  S  S22  1  0.16947102  0.94594434  0.90633132  1
  S  S23  1  0.82932404  0.01097036  0.10772362  1
  S  S24  1  0.10214775  0.47618596  0.64698371  1
  S  S25  1  0.91214381  0.44915581  0.35911290  1
  S  S26  1  0.73393368  0.04073698  0.31278302  1
  S  S27  1  0.26599707  0.94879345  0.69367342  1
  S  S28  1  0.17644156  0.49671089  0.44719864  1
  S  S29  1  0.82080256  0.52249087  0.56023114  1
  S  S30  1  0.43935475  0.46413181  0.80940728  1
  S  S31  1  0.56004112  0.48591676  0.18646427  1
  S  S32  1  0.91676627  0.49810148  0.99071428  1
  S  S33  1  0.08322003  0.47916114  0.01858315  1
  S  S34  1  0.65816497  0.47723701  0.88655955  1
  S  S35  1  0.33403202  0.49058876  0.11685180  1
  S  S36  1  0.60315084  0.98795040  0.64851938  1
  S  S37  1  0.39633345  0.04359389  0.34843244  1
  S  S38  1  0.24357271  0.51137764  0.31959063  1
  S  S39  1  0.75444088  0.44458860  0.68809764  1
  S  S40  1  0.67650878  0.92956421  0.45189831  1
  S  S41  1  0.33735386  0.96021321  0.55559223  1
