# generated using pymatgen
data_Pr2Mn3(SbS3)4
_symmetry_space_group_name_H-M   'P 1'
_cell_length_a   20.02960800
_cell_length_b   3.90410600
_cell_length_c   14.95364829
_cell_angle_alpha   90.00000000
_cell_angle_beta   126.33350609
_cell_angle_gamma   90.00000000
_symmetry_Int_Tables_number   1
_chemical_formula_structural   Pr2Mn3(SbS3)4
_chemical_formula_sum   'Pr4 Mn6 Sb8 S24'
_cell_volume   942.00006694
_cell_formula_units_Z   2
loop_
 _symmetry_equiv_pos_site_id
 _symmetry_equiv_pos_as_xyz
  1  'x, y, z'
loop_
 _atom_site_type_symbol
 _atom_site_label
 _atom_site_symmetry_multiplicity
 _atom_site_fract_x
 _atom_site_fract_y
 _atom_site_fract_z
 _atom_site_occupancy
  Pr  Pr0  1  0.27081519  0.47478354  0.87264990  1
  Pr  Pr1  1  0.72850165  0.48207808  0.13634224  1
  Pr  Pr2  1  0.76677761  0.98577087  0.88083903  1
  Pr  Pr3  1  0.23286684  0.96529103  0.12901430  1
  Mn  Mn4  1  0.30702470  0.45424849  0.61039644  1
  Mn  Mn5  1  0.70580282  0.52728655  0.36202881  1
  Mn  Mn6  1  0.99773345  0.00347021  0.00907618  1
  Mn  Mn7  1  0.80178057  0.03626265  0.62630365  1
  Mn  Mn8  1  0.21176290  0.06343947  0.39536627  1
  Mn  Mn9  1  0.49636697  0.50886985  0.99113427  1
  Sb  Sb10  1  0.88421795  0.88844254  0.45619637  1
  Sb  Sb11  1  0.11055644  0.98404638  0.54353776  1
  Sb  Sb12  1  0.03432722  0.50358922  0.82204507  1
  Sb  Sb13  1  0.95907107  0.47431465  0.19243518  1
  Sb  Sb14  1  0.40034668  0.58208924  0.46014324  1
  Sb  Sb15  1  0.60635611  0.57764250  0.53381854  1
  Sb  Sb16  1  0.52984395  0.95814569  0.80823914  1
  Sb  Sb17  1  0.47093262  0.97857562  0.19530023  1
  S  S18  1  0.94431505  0.99307801  0.81891476  1
  S  S19  1  0.06008148  0.03730832  0.19869136  1
  S  S20  1  0.41253285  0.98184761  0.98260574  1
  S  S21  1  0.57805542  0.03666143  0.00371644  1
  S  S22  1  0.16941945  0.94733109  0.90615998  1
  S  S23  1  0.82937497  0.01117915  0.10757224  1
  S  S24  1  0.10245074  0.47664054  0.64727484  1
  S  S25  1  0.91208974  0.44910483  0.35894136  1
  S  S26  1  0.73415444  0.04077106  0.31288547  1
  S  S27  1  0.26582886  0.94869262  0.69362394  1
  S  S28  1  0.17612619  0.49712082  0.44722374  1
  S  S29  1  0.82071478  0.52170133  0.56019555  1
  S  S30  1  0.43916559  0.46489903  0.80922801  1
  S  S31  1  0.56017073  0.48650196  0.18636591  1
  S  S32  1  0.91670593  0.49753808  0.99060772  1
  S  S33  1  0.08317798  0.47856523  0.01857806  1
  S  S34  1  0.65810774  0.47636483  0.88613289  1
  S  S35  1  0.33378723  0.48952484  0.11620723  1
  S  S36  1  0.60321231  0.98738855  0.64859799  1
  S  S37  1  0.39629363  0.04490308  0.34843573  1
  S  S38  1  0.24325633  0.51150159  0.31902639  1
  S  S39  1  0.75420179  0.44497483  0.68784832  1
  S  S40  1  0.67631243  0.92926349  0.45168210  1
  S  S41  1  0.33739252  0.96005518  0.55579515  1
