# generated using pymatgen
data_Pr2Mn3(SbS3)4
_symmetry_space_group_name_H-M   'P 1'
_cell_length_a   20.02960800
_cell_length_b   3.90410600
_cell_length_c   14.95364829
_cell_angle_alpha   90.00000000
_cell_angle_beta   126.33350609
_cell_angle_gamma   90.00000000
_symmetry_Int_Tables_number   1
_chemical_formula_structural   Pr2Mn3(SbS3)4
_chemical_formula_sum   'Pr4 Mn6 Sb8 S24'
_cell_volume   942.00006694
_cell_formula_units_Z   2
loop_
 _symmetry_equiv_pos_site_id
 _symmetry_equiv_pos_as_xyz
  1  'x, y, z'
loop_
 _atom_site_type_symbol
 _atom_site_label
 _atom_site_symmetry_multiplicity
 _atom_site_fract_x
 _atom_site_fract_y
 _atom_site_fract_z
 _atom_site_occupancy
  Pr  Pr0  1  0.27081217  0.47450118  0.87277660  1
  Pr  Pr1  1  0.72823742  0.48218098  0.13618254  1
  Pr  Pr2  1  0.76676071  0.98518382  0.88090339  1
  Pr  Pr3  1  0.23286688  0.96558773  0.12899761  1
  Mn  Mn4  1  0.30695120  0.45444850  0.61034947  1
  Mn  Mn5  1  0.70586155  0.52816279  0.36217259  1
  Mn  Mn6  1  0.99749254  0.00379870  0.00884280  1
  Mn  Mn7  1  0.80203542  0.03640735  0.62649451  1
  Mn  Mn8  1  0.21172229  0.06279390  0.39538834  1
  Mn  Mn9  1  0.49620989  0.51009668  0.99070018  1
  Sb  Sb10  1  0.88423381  0.88867693  0.45608184  1
  Sb  Sb11  1  0.11057557  0.98449616  0.54353712  1
  Sb  Sb12  1  0.03432217  0.50419748  0.82211642  1
  Sb  Sb13  1  0.95916900  0.47459181  0.19248170  1
  Sb  Sb14  1  0.40024100  0.58195784  0.46009019  1
  Sb  Sb15  1  0.60633210  0.57773617  0.53371093  1
  Sb  Sb16  1  0.52974667  0.95803027  0.80809395  1
  Sb  Sb17  1  0.47101008  0.97887908  0.19532654  1
  S  S18  1  0.94431061  0.99462606  0.81911596  1
  S  S19  1  0.06000289  0.03753147  0.19856531  1
  S  S20  1  0.41252545  0.98233100  0.98237872  1
  S  S21  1  0.57802893  0.03777687  0.00370017  1
  S  S22  1  0.16928024  0.94874768  0.90592306  1
  S  S23  1  0.82934868  0.01118049  0.10745424  1
  S  S24  1  0.10278701  0.47708729  0.64761949  1
  S  S25  1  0.91201910  0.44969200  0.35852872  1
  S  S26  1  0.73437989  0.04101046  0.31310962  1
  S  S27  1  0.26572299  0.94877052  0.69367688  1
  S  S28  1  0.17574222  0.49764743  0.44708954  1
  S  S29  1  0.82062734  0.52095519  0.56022038  1
  S  S30  1  0.43900574  0.46576326  0.80896809  1
  S  S31  1  0.56033417  0.48694004  0.18636798  1
  S  S32  1  0.91662406  0.49681263  0.99054840  1
  S  S33  1  0.08306630  0.47700956  0.01849760  1
  S  S34  1  0.65802352  0.47577493  0.88567547  1
  S  S35  1  0.33349633  0.48847191  0.11565210  1
  S  S36  1  0.60326950  0.98673173  0.64866712  1
  S  S37  1  0.39628044  0.04621196  0.34835660  1
  S  S38  1  0.24310189  0.51180651  0.31869412  1
  S  S39  1  0.75391690  0.44538046  0.68759227  1
  S  S40  1  0.67598127  0.92957013  0.45143313  1
  S  S41  1  0.33744395  0.95955042  0.55586548  1
