# generated using pymatgen
data_Pr2Mn3(SbS3)4
_symmetry_space_group_name_H-M   'P 1'
_cell_length_a   20.02960800
_cell_length_b   3.90410600
_cell_length_c   14.95364829
_cell_angle_alpha   90.00000000
_cell_angle_beta   126.33350609
_cell_angle_gamma   90.00000000
_symmetry_Int_Tables_number   1
_chemical_formula_structural   Pr2Mn3(SbS3)4
_chemical_formula_sum   'Pr4 Mn6 Sb8 S24'
_cell_volume   942.00006694
_cell_formula_units_Z   2
loop_
 _symmetry_equiv_pos_site_id
 _symmetry_equiv_pos_as_xyz
  1  'x, y, z'
loop_
 _atom_site_type_symbol
 _atom_site_label
 _atom_site_symmetry_multiplicity
 _atom_site_fract_x
 _atom_site_fract_y
 _atom_site_fract_z
 _atom_site_occupancy
  Pr  Pr0  1  0.27080143  0.47422540  0.87282257  1
  Pr  Pr1  1  0.72804144  0.48244784  0.13604919  1
  Pr  Pr2  1  0.76673307  0.98463059  0.88092596  1
  Pr  Pr3  1  0.23289231  0.96560194  0.12898440  1
  Mn  Mn4  1  0.30683719  0.45518376  0.61035886  1
  Mn  Mn5  1  0.70588358  0.52871762  0.36225930  1
  Mn  Mn6  1  0.99723412  0.00415829  0.00852334  1
  Mn  Mn7  1  0.80219823  0.03688122  0.62658232  1
  Mn  Mn8  1  0.21163895  0.06222209  0.39533120  1
  Mn  Mn9  1  0.49602204  0.51076897  0.99022254  1
  Sb  Sb10  1  0.88423241  0.88897868  0.45588868  1
  Sb  Sb11  1  0.11056308  0.98515848  0.54348749  1
  Sb  Sb12  1  0.03430887  0.50464420  0.82219257  1
  Sb  Sb13  1  0.95919485  0.47473520  0.19243437  1
  Sb  Sb14  1  0.40012673  0.58192826  0.46010915  1
  Sb  Sb15  1  0.60629803  0.57780485  0.53361919  1
  Sb  Sb16  1  0.52964546  0.95810298  0.80788597  1
  Sb  Sb17  1  0.47112113  0.97907453  0.19544138  1
  S  S18  1  0.94436285  0.99645525  0.81943591  1
  S  S19  1  0.05992011  0.03800489  0.19853265  1
  S  S20  1  0.41258987  0.98364929  0.98226193  1
  S  S21  1  0.57795023  0.03877933  0.00383303  1
  S  S22  1  0.16925722  0.94999995  0.90577871  1
  S  S23  1  0.82928589  0.01114891  0.10730535  1
  S  S24  1  0.10314005  0.47736704  0.64797796  1
  S  S25  1  0.91200753  0.44981083  0.35835690  1
  S  S26  1  0.73449649  0.04139214  0.31340699  1
  S  S27  1  0.26569150  0.94847243  0.69381449  1
  S  S28  1  0.17533235  0.49855876  0.44703071  1
  S  S29  1  0.82055429  0.52041805  0.56011302  1
  S  S30  1  0.43888107  0.46623281  0.80869277  1
  S  S31  1  0.56047948  0.48708780  0.18639802  1
  S  S32  1  0.91646385  0.49609672  0.99033065  1
  S  S33  1  0.08293513  0.47559392  0.01846303  1
  S  S34  1  0.65802632  0.47532046  0.88536508  1
  S  S35  1  0.33330332  0.48759003  0.11514737  1
  S  S36  1  0.60327186  0.98629026  0.64860457  1
  S  S37  1  0.39626006  0.04733897  0.34827962  1
  S  S38  1  0.24288165  0.51231897  0.31842897  1
  S  S39  1  0.75356708  0.44509795  0.68727591  1
  S  S40  1  0.67571846  0.92991007  0.45122921  1
  S  S41  1  0.33759541  0.95949534  0.55602598  1
