# generated using pymatgen
data_Pr2Mn3(SbS3)4
_symmetry_space_group_name_H-M   'P 1'
_cell_length_a   20.02960800
_cell_length_b   3.90410600
_cell_length_c   14.95364829
_cell_angle_alpha   90.00000000
_cell_angle_beta   126.33350609
_cell_angle_gamma   90.00000000
_symmetry_Int_Tables_number   1
_chemical_formula_structural   Pr2Mn3(SbS3)4
_chemical_formula_sum   'Pr4 Mn6 Sb8 S24'
_cell_volume   942.00006694
_cell_formula_units_Z   2
loop_
 _symmetry_equiv_pos_site_id
 _symmetry_equiv_pos_as_xyz
  1  'x, y, z'
loop_
 _atom_site_type_symbol
 _atom_site_label
 _atom_site_symmetry_multiplicity
 _atom_site_fract_x
 _atom_site_fract_y
 _atom_site_fract_z
 _atom_site_occupancy
  Pr  Pr0  1  0.27080477  0.47390174  0.87290425  1
  Pr  Pr1  1  0.72788482  0.48286571  0.13596074  1
  Pr  Pr2  1  0.76675156  0.98381071  0.88093827  1
  Pr  Pr3  1  0.23292310  0.96567131  0.12895216  1
  Mn  Mn4  1  0.30677648  0.45637668  0.61041196  1
  Mn  Mn5  1  0.70587678  0.52918391  0.36232717  1
  Mn  Mn6  1  0.99697450  0.00453559  0.00815602  1
  Mn  Mn7  1  0.80228014  0.03766370  0.62651738  1
  Mn  Mn8  1  0.21153733  0.06170167  0.39526340  1
  Mn  Mn9  1  0.49581143  0.51155991  0.98983358  1
  Sb  Sb10  1  0.88422392  0.88933630  0.45568675  1
  Sb  Sb11  1  0.11059316  0.98592276  0.54344727  1
  Sb  Sb12  1  0.03423895  0.50522841  0.82221078  1
  Sb  Sb13  1  0.95925079  0.47492257  0.19243862  1
  Sb  Sb14  1  0.40006732  0.58159776  0.46014408  1
  Sb  Sb15  1  0.60622128  0.57799663  0.53340576  1
  Sb  Sb16  1  0.52960164  0.95794698  0.80769747  1
  Sb  Sb17  1  0.47117847  0.97940764  0.19550751  1
  S  S18  1  0.94449950  0.99843992  0.81970957  1
  S  S19  1  0.05995977  0.03788138  0.19858207  1
  S  S20  1  0.41264178  0.98495774  0.98215422  1
  S  S21  1  0.57780907  0.03955351  0.00393104  1
  S  S22  1  0.16920142  0.95088498  0.90552365  1
  S  S23  1  0.82924458  0.01077997  0.10719311  1
  S  S24  1  0.10353397  0.47783649  0.64835599  1
  S  S25  1  0.91203237  0.45004835  0.35822995  1
  S  S26  1  0.73457298  0.04171997  0.31368546  1
  S  S27  1  0.26558106  0.94839192  0.69390659  1
  S  S28  1  0.17511155  0.49910554  0.44709397  1
  S  S29  1  0.82060369  0.51956017  0.56003809  1
  S  S30  1  0.43878444  0.46617596  0.80834521  1
  S  S31  1  0.56054774  0.48741988  0.18635287  1
  S  S32  1  0.91622598  0.49545605  0.98998609  1
  S  S33  1  0.08276203  0.47398641  0.01838125  1
  S  S34  1  0.65797245  0.47491285  0.88500915  1
  S  S35  1  0.33313862  0.48684492  0.11452330  1
  S  S36  1  0.60330529  0.98594311  0.64850874  1
  S  S37  1  0.39636510  0.04839502  0.34835381  1
  S  S38  1  0.24268193  0.51309898  0.31820765  1
  S  S39  1  0.75322151  0.44482966  0.68704009  1
  S  S40  1  0.67547107  0.93023816  0.45100001  1
  S  S41  1  0.33767182  0.95936995  0.55594984  1
