# generated using pymatgen
data_Pr2Mn3(SbS3)4
_symmetry_space_group_name_H-M   'P 1'
_cell_length_a   20.02960800
_cell_length_b   3.90410600
_cell_length_c   14.95364829
_cell_angle_alpha   90.00000000
_cell_angle_beta   126.33350609
_cell_angle_gamma   90.00000000
_symmetry_Int_Tables_number   1
_chemical_formula_structural   Pr2Mn3(SbS3)4
_chemical_formula_sum   'Pr4 Mn6 Sb8 S24'
_cell_volume   942.00006694
_cell_formula_units_Z   2
loop_
 _symmetry_equiv_pos_site_id
 _symmetry_equiv_pos_as_xyz
  1  'x, y, z'
loop_
 _atom_site_type_symbol
 _atom_site_label
 _atom_site_symmetry_multiplicity
 _atom_site_fract_x
 _atom_site_fract_y
 _atom_site_fract_z
 _atom_site_occupancy
  Pr  Pr0  1  0.27080596  0.47368471  0.87295670  1
  Pr  Pr1  1  0.72767247  0.48356073  0.13582577  1
  Pr  Pr2  1  0.76671272  0.98331975  0.88083925  1
  Pr  Pr3  1  0.23296960  0.96543129  0.12890512  1
  Mn  Mn4  1  0.30670732  0.45764607  0.61053362  1
  Mn  Mn5  1  0.70582865  0.52975761  0.36229312  1
  Mn  Mn6  1  0.99668575  0.00465702  0.00774158  1
  Mn  Mn7  1  0.80233044  0.03808171  0.62652146  1
  Mn  Mn8  1  0.21144074  0.06095860  0.39524797  1
  Mn  Mn9  1  0.49564638  0.51250717  0.98956399  1
  Sb  Sb10  1  0.88416781  0.88966499  0.45548544  1
  Sb  Sb11  1  0.11062348  0.98647861  0.54342109  1
  Sb  Sb12  1  0.03418328  0.50559676  0.82222337  1
  Sb  Sb13  1  0.95931638  0.47501033  0.19242492  1
  Sb  Sb14  1  0.39995545  0.58166431  0.46006181  1
  Sb  Sb15  1  0.60610205  0.57815120  0.53312866  1
  Sb  Sb16  1  0.52963505  0.95791467  0.80756080  1
  Sb  Sb17  1  0.47129307  0.97985479  0.19564127  1
  S  S18  1  0.94470769  0.00013367  0.81987533  1
  S  S19  1  0.05996678  0.03807022  0.19867109  1
  S  S20  1  0.41275656  0.98638556  0.98222834  1
  S  S21  1  0.57762541  0.03973374  0.00395652  1
  S  S22  1  0.16917151  0.95147169  0.90527206  1
  S  S23  1  0.82916568  0.01035893  0.10706825  1
  S  S24  1  0.10385950  0.47810631  0.64855310  1
  S  S25  1  0.91206262  0.45000648  0.35825659  1
  S  S26  1  0.73468879  0.04196591  0.31399698  1
  S  S27  1  0.26545677  0.94803012  0.69403400  1
  S  S28  1  0.17489609  0.50000763  0.44718513  1
  S  S29  1  0.82060433  0.51832448  0.55976601  1
  S  S30  1  0.43880950  0.46565276  0.80826277  1
  S  S31  1  0.56060778  0.48773346  0.18647895  1
  S  S32  1  0.91608186  0.49476206  0.98982802  1
  S  S33  1  0.08275433  0.47232834  0.01839749  1
  S  S34  1  0.65798381  0.47470279  0.88465764  1
  S  S35  1  0.33296512  0.48633254  0.11397496  1
  S  S36  1  0.60334095  0.98575208  0.64841230  1
  S  S37  1  0.39644319  0.04876421  0.34839902  1
  S  S38  1  0.24251222  0.51334876  0.31786614  1
  S  S39  1  0.75298459  0.44459001  0.68692202  1
  S  S40  1  0.67520380  0.93047544  0.45070860  1
  S  S41  1  0.33772966  0.95930826  0.55584991  1
