# generated using pymatgen
data_Pr2Mn3(SbS3)4
_symmetry_space_group_name_H-M   'P 1'
_cell_length_a   20.02960800
_cell_length_b   3.90410600
_cell_length_c   14.95364829
_cell_angle_alpha   90.00000000
_cell_angle_beta   126.33350609
_cell_angle_gamma   90.00000000
_symmetry_Int_Tables_number   1
_chemical_formula_structural   Pr2Mn3(SbS3)4
_chemical_formula_sum   'Pr4 Mn6 Sb8 S24'
_cell_volume   942.00006694
_cell_formula_units_Z   2
loop_
 _symmetry_equiv_pos_site_id
 _symmetry_equiv_pos_as_xyz
  1  'x, y, z'
loop_
 _atom_site_type_symbol
 _atom_site_label
 _atom_site_symmetry_multiplicity
 _atom_site_fract_x
 _atom_site_fract_y
 _atom_site_fract_z
 _atom_site_occupancy
  Pr  Pr0  1  0.26678006  0.48739096  0.86389754  1
  Pr  Pr1  1  0.73623001  0.51269401  0.13633354  1
  Pr  Pr2  1  0.76275642  0.01229513  0.86201029  1
  Pr  Pr3  1  0.23560883  0.00513248  0.13624499  1
  Mn  Mn4  1  0.28864730  0.47710227  0.59554602  1
  Mn  Mn5  1  0.68929143  0.49294503  0.37277214  1
  Mn  Mn6  1  0.00818587  0.98811919  0.01910771  1
  Mn  Mn7  1  0.80521787  0.01147264  0.61803214  1
  Mn  Mn8  1  0.19840014  0.98362892  0.37689390  1
  Mn  Mn9  1  0.49305780  0.47737514  0.99016142  1
  Sb  Sb10  1  0.88997448  0.98364911  0.45010700  1
  Sb  Sb11  1  0.11202537  0.97652766  0.54712619  1
  Sb  Sb12  1  0.04054508  0.52169636  0.82273186  1
  Sb  Sb13  1  0.96378935  0.49881917  0.18325805  1
  Sb  Sb14  1  0.39586337  0.50664367  0.45120850  1
  Sb  Sb15  1  0.60572288  0.47470378  0.54731025  1
  Sb  Sb16  1  0.53302355  0.99805674  0.80858751  1
  Sb  Sb17  1  0.46332887  0.01646032  0.18583187  1
  S  S18  1  0.93778406  0.99589191  0.80465698  1
  S  S19  1  0.06569869  0.98490485  0.20107455  1
  S  S20  1  0.41082789  0.97527180  0.98093473  1
  S  S21  1  0.57804610  0.00608342  0.00915704  1
  S  S22  1  0.17202391  0.03066450  0.90134652  1
  S  S23  1  0.82340064  0.04886033  0.09556732  1
  S  S24  1  0.09629949  0.48119894  0.64687596  1
  S  S25  1  0.91155140  0.48381166  0.35447407  1
  S  S26  1  0.74037515  0.94676823  0.30256920  1
  S  S27  1  0.26404930  0.00605794  0.70939522  1
  S  S28  1  0.15855644  0.48253453  0.42836915  1
  S  S29  1  0.82470549  0.48804238  0.54803053  1
  S  S30  1  0.43283388  0.49722599  0.79961027  1
  S  S31  1  0.55732305  0.51167614  0.18453460  1
  S  S32  1  0.90935972  0.48156065  0.98620145  1
  S  S33  1  0.09118168  0.46913515  0.02602396  1
  S  S34  1  0.66403552  0.50762087  0.88536057  1
  S  S35  1  0.33180644  0.50844168  0.09821520  1
  S  S36  1  0.59713029  0.98312132  0.65467247  1
  S  S37  1  0.40472079  0.98806864  0.35026583  1
  S  S38  1  0.23899192  0.46204765  0.30792309  1
  S  S39  1  0.76193599  0.49964567  0.69747761  1
  S  S40  1  0.66774869  0.02633374  0.45346581  1
  S  S41  1  0.32397875  0.97638130  0.55085139  1
