# generated using pymatgen
data_Pr2Mn3(SbS3)4
_symmetry_space_group_name_H-M   'P 1'
_cell_length_a   20.02960800
_cell_length_b   3.90410600
_cell_length_c   14.95364829
_cell_angle_alpha   90.00000000
_cell_angle_beta   126.33350609
_cell_angle_gamma   90.00000000
_symmetry_Int_Tables_number   1
_chemical_formula_structural   Pr2Mn3(SbS3)4
_chemical_formula_sum   'Pr4 Mn6 Sb8 S24'
_cell_volume   942.00006694
_cell_formula_units_Z   2
loop_
 _symmetry_equiv_pos_site_id
 _symmetry_equiv_pos_as_xyz
  1  'x, y, z'
loop_
 _atom_site_type_symbol
 _atom_site_label
 _atom_site_symmetry_multiplicity
 _atom_site_fract_x
 _atom_site_fract_y
 _atom_site_fract_z
 _atom_site_occupancy
  Pr  Pr0  1  0.27076318  0.47333343  0.87297310  1
  Pr  Pr1  1  0.72746376  0.48422168  0.13575376  1
  Pr  Pr2  1  0.76665839  0.98268163  0.88077609  1
  Pr  Pr3  1  0.23302359  0.96497030  0.12887449  1
  Mn  Mn4  1  0.30660628  0.45831038  0.61064151  1
  Mn  Mn5  1  0.70570205  0.53032338  0.36217057  1
  Mn  Mn6  1  0.99650175  0.00458965  0.00736312  1
  Mn  Mn7  1  0.80229962  0.03838902  0.62645010  1
  Mn  Mn8  1  0.21137402  0.06043422  0.39512751  1
  Mn  Mn9  1  0.49544063  0.51325367  0.98937570  1
  Sb  Sb10  1  0.88405070  0.89017821  0.45526931  1
  Sb  Sb11  1  0.11067844  0.98716240  0.54343153  1
  Sb  Sb12  1  0.03417195  0.50611155  0.82225786  1
  Sb  Sb13  1  0.95938798  0.47509197  0.19236531  1
  Sb  Sb14  1  0.39990172  0.58179891  0.45993094  1
  Sb  Sb15  1  0.60601165  0.57839500  0.53278529  1
  Sb  Sb16  1  0.52963430  0.95800128  0.80736873  1
  Sb  Sb17  1  0.47141584  0.98018086  0.19581427  1
  S  S18  1  0.94498612  0.00245272  0.82018224  1
  S  S19  1  0.06005021  0.03783125  0.19880192  1
  S  S20  1  0.41268615  0.98816857  0.98213889  1
  S  S21  1  0.57735804  0.03957935  0.00385292  1
  S  S22  1  0.16918629  0.95222642  0.90500595  1
  S  S23  1  0.82909077  0.00970136  0.10704326  1
  S  S24  1  0.10413037  0.47831293  0.64867904  1
  S  S25  1  0.91214843  0.45041683  0.35829202  1
  S  S26  1  0.73467001  0.04212850  0.31408163  1
  S  S27  1  0.26549798  0.94776871  0.69437543  1
  S  S28  1  0.17478684  0.50110566  0.44752537  1
  S  S29  1  0.82068716  0.51708174  0.55952563  1
  S  S30  1  0.43874756  0.46528652  0.80807840  1
  S  S31  1  0.56070189  0.48800643  0.18658466  1
  S  S32  1  0.91596555  0.49406959  0.98964906  1
  S  S33  1  0.08287960  0.47066701  0.01868811  1
  S  S34  1  0.65797477  0.47496152  0.88433356  1
  S  S35  1  0.33268681  0.48610832  0.11338119  1
  S  S36  1  0.60331242  0.98594047  0.64812081  1
  S  S37  1  0.39662447  0.04944720  0.34856701  1
  S  S38  1  0.24219926  0.51394805  0.31739783  1
  S  S39  1  0.75265087  0.44427178  0.68677825  1
  S  S40  1  0.67483597  0.93122651  0.45034114  1
  S  S41  1  0.33772441  0.95934173  0.55580406  1
