# generated using pymatgen
data_Pr2Mn3(SbS3)4
_symmetry_space_group_name_H-M   'P 1'
_cell_length_a   20.02960800
_cell_length_b   3.90410600
_cell_length_c   14.95364829
_cell_angle_alpha   90.00000000
_cell_angle_beta   126.33350609
_cell_angle_gamma   90.00000000
_symmetry_Int_Tables_number   1
_chemical_formula_structural   Pr2Mn3(SbS3)4
_chemical_formula_sum   'Pr4 Mn6 Sb8 S24'
_cell_volume   942.00006694
_cell_formula_units_Z   2
loop_
 _symmetry_equiv_pos_site_id
 _symmetry_equiv_pos_as_xyz
  1  'x, y, z'
loop_
 _atom_site_type_symbol
 _atom_site_label
 _atom_site_symmetry_multiplicity
 _atom_site_fract_x
 _atom_site_fract_y
 _atom_site_fract_z
 _atom_site_occupancy
  Pr  Pr0  1  0.27081388  0.47284741  0.87302292  1
  Pr  Pr1  1  0.72724882  0.48481499  0.13564845  1
  Pr  Pr2  1  0.76664562  0.98188129  0.88071178  1
  Pr  Pr3  1  0.23309885  0.96441720  0.12889851  1
  Mn  Mn4  1  0.30644289  0.45883519  0.61060227  1
  Mn  Mn5  1  0.70553297  0.53054252  0.36197425  1
  Mn  Mn6  1  0.99632889  0.00419352  0.00685326  1
  Mn  Mn7  1  0.80228798  0.03903485  0.62647333  1
  Mn  Mn8  1  0.21120362  0.06010173  0.39488890  1
  Mn  Mn9  1  0.49528549  0.51403412  0.98913711  1
  Sb  Sb10  1  0.88398411  0.89087509  0.45510608  1
  Sb  Sb11  1  0.11070844  0.98772811  0.54345508  1
  Sb  Sb12  1  0.03415009  0.50674527  0.82225050  1
  Sb  Sb13  1  0.95944837  0.47481140  0.19228362  1
  Sb  Sb14  1  0.39980828  0.58193056  0.45978102  1
  Sb  Sb15  1  0.60586672  0.57853551  0.53242615  1
  Sb  Sb16  1  0.52962092  0.95819699  0.80713020  1
  Sb  Sb17  1  0.47149686  0.98050632  0.19589328  1
  S  S18  1  0.94531500  0.00475687  0.82047751  1
  S  S19  1  0.06010346  0.03751345  0.19885263  1
  S  S20  1  0.41269229  0.98994540  0.98214227  1
  S  S21  1  0.57709338  0.03935385  0.00360186  1
  S  S22  1  0.16917416  0.95320315  0.90466191  1
  S  S23  1  0.82887605  0.00898183  0.10684100  1
  S  S24  1  0.10448082  0.47856724  0.64887424  1
  S  S25  1  0.91223594  0.45133209  0.35829459  1
  S  S26  1  0.73477342  0.04223897  0.31424882  1
  S  S27  1  0.26551556  0.94779044  0.69462145  1
  S  S28  1  0.17461848  0.50202616  0.44780431  1
  S  S29  1  0.82069975  0.51590333  0.55931657  1
  S  S30  1  0.43879067  0.46457797  0.80797696  1
  S  S31  1  0.56079983  0.48877653  0.18666816  1
  S  S32  1  0.91601404  0.49360622  0.98952219  1
  S  S33  1  0.08284229  0.46964198  0.01877703  1
  S  S34  1  0.65803569  0.47484199  0.88402426  1
  S  S35  1  0.33249351  0.48600542  0.11293847  1
  S  S36  1  0.60336245  0.98617885  0.64793526  1
  S  S37  1  0.39678884  0.05001485  0.34870704  1
  S  S38  1  0.24196348  0.51418728  0.31707562  1
  S  S39  1  0.75228035  0.44401251  0.68652161  1
  S  S40  1  0.67432439  0.93134875  0.45000401  1
  S  S41  1  0.33783306  0.95961388  0.55577323  1
