# generated using pymatgen
data_Pr2Mn3(SbS3)4
_symmetry_space_group_name_H-M   'P 1'
_cell_length_a   20.02960800
_cell_length_b   3.90410600
_cell_length_c   14.95364829
_cell_angle_alpha   90.00000000
_cell_angle_beta   126.33350609
_cell_angle_gamma   90.00000000
_symmetry_Int_Tables_number   1
_chemical_formula_structural   Pr2Mn3(SbS3)4
_chemical_formula_sum   'Pr4 Mn6 Sb8 S24'
_cell_volume   942.00006694
_cell_formula_units_Z   2
loop_
 _symmetry_equiv_pos_site_id
 _symmetry_equiv_pos_as_xyz
  1  'x, y, z'
loop_
 _atom_site_type_symbol
 _atom_site_label
 _atom_site_symmetry_multiplicity
 _atom_site_fract_x
 _atom_site_fract_y
 _atom_site_fract_z
 _atom_site_occupancy
  Pr  Pr0  1  0.27089880  0.47256063  0.87304050  1
  Pr  Pr1  1  0.72705549  0.48542243  0.13553291  1
  Pr  Pr2  1  0.76663962  0.98106239  0.88059228  1
  Pr  Pr3  1  0.23320672  0.96412288  0.12901170  1
  Mn  Mn4  1  0.30631692  0.45924694  0.61054778  1
  Mn  Mn5  1  0.70523879  0.53042084  0.36166736  1
  Mn  Mn6  1  0.99611968  0.00375133  0.00627452  1
  Mn  Mn7  1  0.80222272  0.03959646  0.62645475  1
  Mn  Mn8  1  0.21108295  0.05967973  0.39466186  1
  Mn  Mn9  1  0.49516176  0.51478332  0.98891908  1
  Sb  Sb10  1  0.88391451  0.89136964  0.45497994  1
  Sb  Sb11  1  0.11079483  0.98844739  0.54356521  1
  Sb  Sb12  1  0.03410385  0.50728892  0.82226399  1
  Sb  Sb13  1  0.95947230  0.47464077  0.19212015  1
  Sb  Sb14  1  0.39977983  0.58197208  0.45969218  1
  Sb  Sb15  1  0.60576409  0.57881965  0.53213051  1
  Sb  Sb16  1  0.52957105  0.95847886  0.80685930  1
  Sb  Sb17  1  0.47166999  0.98110690  0.19599149  1
  S  S18  1  0.94563203  0.00693473  0.82077042  1
  S  S19  1  0.06027462  0.03714575  0.19910200  1
  S  S20  1  0.41270386  0.99146076  0.98212146  1
  S  S21  1  0.57685261  0.03902311  0.00347545  1
  S  S22  1  0.16919503  0.95435693  0.90429968  1
  S  S23  1  0.82854143  0.00825125  0.10663638  1
  S  S24  1  0.10477304  0.47905861  0.64898752  1
  S  S25  1  0.91218058  0.45231642  0.35820325  1
  S  S26  1  0.73481988  0.04222606  0.31429528  1
  S  S27  1  0.26552484  0.94779163  0.69479987  1
  S  S28  1  0.17455544  0.50274969  0.44817569  1
  S  S29  1  0.82070602  0.51493427  0.55907919  1
  S  S30  1  0.43875068  0.46360497  0.80776691  1
  S  S31  1  0.56092284  0.48912771  0.18668330  1
  S  S32  1  0.91607918  0.49280428  0.98947130  1
  S  S33  1  0.08276953  0.46861081  0.01884555  1
  S  S34  1  0.65813298  0.47425217  0.88379856  1
  S  S35  1  0.33227879  0.48589828  0.11257296  1
  S  S36  1  0.60334147  0.98665888  0.64777013  1
  S  S37  1  0.39684184  0.05044752  0.34867101  1
  S  S38  1  0.24165271  0.51470852  0.31676510  1
  S  S39  1  0.75197871  0.44377510  0.68625608  1
  S  S40  1  0.67381514  0.93157620  0.44964979  1
  S  S41  1  0.33786049  0.95982715  0.55581606  1
