# generated using pymatgen
data_Pr2Mn3(SbS3)4
_symmetry_space_group_name_H-M   'P 1'
_cell_length_a   20.02960800
_cell_length_b   3.90410600
_cell_length_c   14.95364829
_cell_angle_alpha   90.00000000
_cell_angle_beta   126.33350609
_cell_angle_gamma   90.00000000
_symmetry_Int_Tables_number   1
_chemical_formula_structural   Pr2Mn3(SbS3)4
_chemical_formula_sum   'Pr4 Mn6 Sb8 S24'
_cell_volume   942.00006694
_cell_formula_units_Z   2
loop_
 _symmetry_equiv_pos_site_id
 _symmetry_equiv_pos_as_xyz
  1  'x, y, z'
loop_
 _atom_site_type_symbol
 _atom_site_label
 _atom_site_symmetry_multiplicity
 _atom_site_fract_x
 _atom_site_fract_y
 _atom_site_fract_z
 _atom_site_occupancy
  Pr  Pr0  1  0.27102183  0.47241142  0.87304963  1
  Pr  Pr1  1  0.72681358  0.48607513  0.13542293  1
  Pr  Pr2  1  0.76659894  0.98023620  0.88042804  1
  Pr  Pr3  1  0.23323510  0.96383449  0.12907835  1
  Mn  Mn4  1  0.30620596  0.45974037  0.61049739  1
  Mn  Mn5  1  0.70499282  0.53007744  0.36147848  1
  Mn  Mn6  1  0.99593162  0.00329295  0.00581333  1
  Mn  Mn7  1  0.80221448  0.03981831  0.62651154  1
  Mn  Mn8  1  0.21094575  0.05937599  0.39442194  1
  Mn  Mn9  1  0.49505678  0.51518672  0.98874613  1
  Sb  Sb10  1  0.88378157  0.89221795  0.45485353  1
  Sb  Sb11  1  0.11084197  0.98904275  0.54370514  1
  Sb  Sb12  1  0.03408750  0.50799535  0.82226462  1
  Sb  Sb13  1  0.95945877  0.47442098  0.19196629  1
  Sb  Sb14  1  0.39974913  0.58227107  0.45955926  1
  Sb  Sb15  1  0.60574628  0.57903738  0.53186902  1
  Sb  Sb16  1  0.52949345  0.95862080  0.80659559  1
  Sb  Sb17  1  0.47182717  0.98160349  0.19608268  1
  S  S18  1  0.94595752  0.00913831  0.82111419  1
  S  S19  1  0.06048603  0.03671994  0.19929709  1
  S  S20  1  0.41274974  0.99258387  0.98210676  1
  S  S21  1  0.57669695  0.03845480  0.00335029  1
  S  S22  1  0.16923399  0.95470017  0.90394730  1
  S  S23  1  0.82828929  0.00783052  0.10669185  1
  S  S24  1  0.10490123  0.47926782  0.64889780  1
  S  S25  1  0.91216829  0.45313152  0.35827748  1
  S  S26  1  0.73485441  0.04249269  0.31421027  1
  S  S27  1  0.26554583  0.94775942  0.69485390  1
  S  S28  1  0.17466113  0.50382638  0.44860191  1
  S  S29  1  0.82069788  0.51450651  0.55882377  1
  S  S30  1  0.43881973  0.46279620  0.80773635  1
  S  S31  1  0.56110577  0.48936180  0.18667583  1
  S  S32  1  0.91620780  0.49228380  0.98934275  1
  S  S33  1  0.08261541  0.46781376  0.01881448  1
  S  S34  1  0.65822122  0.47372294  0.88371672  1
  S  S35  1  0.33220852  0.48562355  0.11237288  1
  S  S36  1  0.60332360  0.98676091  0.64764795  1
  S  S37  1  0.39696717  0.05071630  0.34857912  1
  S  S38  1  0.24138471  0.51558847  0.31646578  1
  S  S39  1  0.75171634  0.44380059  0.68591634  1
  S  S40  1  0.67342648  0.93146987  0.44934384  1
  S  S41  1  0.33778397  0.96049647  0.55570601  1
