# generated using pymatgen
data_Pr2Mn3(SbS3)4
_symmetry_space_group_name_H-M   'P 1'
_cell_length_a   20.02960800
_cell_length_b   3.90410600
_cell_length_c   14.95364829
_cell_angle_alpha   90.00000000
_cell_angle_beta   126.33350609
_cell_angle_gamma   90.00000000
_symmetry_Int_Tables_number   1
_chemical_formula_structural   Pr2Mn3(SbS3)4
_chemical_formula_sum   'Pr4 Mn6 Sb8 S24'
_cell_volume   942.00006694
_cell_formula_units_Z   2
loop_
 _symmetry_equiv_pos_site_id
 _symmetry_equiv_pos_as_xyz
  1  'x, y, z'
loop_
 _atom_site_type_symbol
 _atom_site_label
 _atom_site_symmetry_multiplicity
 _atom_site_fract_x
 _atom_site_fract_y
 _atom_site_fract_z
 _atom_site_occupancy
  Pr  Pr0  1  0.27110907  0.47256550  0.87303815  1
  Pr  Pr1  1  0.72660458  0.48652547  0.13525208  1
  Pr  Pr2  1  0.76656783  0.97926361  0.88019428  1
  Pr  Pr3  1  0.23326737  0.96382525  0.12904804  1
  Mn  Mn4  1  0.30610296  0.46000170  0.61040118  1
  Mn  Mn5  1  0.70466247  0.52974471  0.36124019  1
  Mn  Mn6  1  0.99573616  0.00249594  0.00542410  1
  Mn  Mn7  1  0.80218955  0.03982566  0.62657079  1
  Mn  Mn8  1  0.21080814  0.05896437  0.39422064  1
  Mn  Mn9  1  0.49497147  0.51567191  0.98866208  1
  Sb  Sb10  1  0.88365466  0.89300867  0.45474429  1
  Sb  Sb11  1  0.11085005  0.98976973  0.54376393  1
  Sb  Sb12  1  0.03405091  0.50865467  0.82223886  1
  Sb  Sb13  1  0.95947720  0.47414134  0.19186276  1
  Sb  Sb14  1  0.39972471  0.58234445  0.45939115  1
  Sb  Sb15  1  0.60570026  0.57897872  0.53163531  1
  Sb  Sb16  1  0.52942996  0.95883899  0.80633033  1
  Sb  Sb17  1  0.47192480  0.98185079  0.19610404  1
  S  S18  1  0.94620295  0.01141563  0.82145560  1
  S  S19  1  0.06055448  0.03616958  0.19938814  1
  S  S20  1  0.41272177  0.99332926  0.98202139  1
  S  S21  1  0.57658056  0.03852223  0.00320292  1
  S  S22  1  0.16931257  0.95515685  0.90366562  1
  S  S23  1  0.82794499  0.00772869  0.10657933  1
  S  S24  1  0.10491658  0.47972371  0.64859648  1
  S  S25  1  0.91219489  0.45449556  0.35809624  1
  S  S26  1  0.73472953  0.04259851  0.31399508  1
  S  S27  1  0.26557382  0.94747369  0.69496446  1
  S  S28  1  0.17480125  0.50488067  0.44903888  1
  S  S29  1  0.82066986  0.51440896  0.55854758  1
  S  S30  1  0.43887085  0.46250082  0.80768786  1
  S  S31  1  0.56118500  0.48960539  0.18646975  1
  S  S32  1  0.91636382  0.49135969  0.98921428  1
  S  S33  1  0.08252205  0.46699841  0.01879973  1
  S  S34  1  0.65819229  0.47374484  0.88359600  1
  S  S35  1  0.33209685  0.48578595  0.11200809  1
  S  S36  1  0.60324105  0.98671819  0.64755294  1
  S  S37  1  0.39703547  0.05101868  0.34857305  1
  S  S38  1  0.24121430  0.51596647  0.31616348  1
  S  S39  1  0.75153215  0.44345497  0.68556668  1
  S  S40  1  0.67301398  0.93065208  0.44889184  1
  S  S41  1  0.33778280  0.96112082  0.55574264  1
