# generated using pymatgen
data_Pr2Mn3(SbS3)4
_symmetry_space_group_name_H-M   'P 1'
_cell_length_a   20.02960800
_cell_length_b   3.90410600
_cell_length_c   14.95364829
_cell_angle_alpha   90.00000000
_cell_angle_beta   126.33350609
_cell_angle_gamma   90.00000000
_symmetry_Int_Tables_number   1
_chemical_formula_structural   Pr2Mn3(SbS3)4
_chemical_formula_sum   'Pr4 Mn6 Sb8 S24'
_cell_volume   942.00006694
_cell_formula_units_Z   2
loop_
 _symmetry_equiv_pos_site_id
 _symmetry_equiv_pos_as_xyz
  1  'x, y, z'
loop_
 _atom_site_type_symbol
 _atom_site_label
 _atom_site_symmetry_multiplicity
 _atom_site_fract_x
 _atom_site_fract_y
 _atom_site_fract_z
 _atom_site_occupancy
  Pr  Pr0  1  0.27119837  0.47280619  0.87303427  1
  Pr  Pr1  1  0.72644269  0.48701294  0.13511221  1
  Pr  Pr2  1  0.76650919  0.97845493  0.87999051  1
  Pr  Pr3  1  0.23327531  0.96383500  0.12897246  1
  Mn  Mn4  1  0.30602875  0.46025512  0.61033230  1
  Mn  Mn5  1  0.70435243  0.52999242  0.36108984  1
  Mn  Mn6  1  0.99555132  0.00180030  0.00506209  1
  Mn  Mn7  1  0.80218235  0.03970998  0.62660439  1
  Mn  Mn8  1  0.21071375  0.05860124  0.39419322  1
  Mn  Mn9  1  0.49493762  0.51642083  0.98867303  1
  Sb  Sb10  1  0.88353383  0.89376260  0.45466724  1
  Sb  Sb11  1  0.11087228  0.99031426  0.54375120  1
  Sb  Sb12  1  0.03400642  0.50935561  0.82219169  1
  Sb  Sb13  1  0.95949338  0.47405469  0.19174823  1
  Sb  Sb14  1  0.39965070  0.58275007  0.45914814  1
  Sb  Sb15  1  0.60572315  0.57898661  0.53143278  1
  Sb  Sb16  1  0.52941391  0.95916668  0.80614164  1
  Sb  Sb17  1  0.47191701  0.98185981  0.19602539  1
  S  S18  1  0.94634411  0.01330915  0.82166509  1
  S  S19  1  0.06066252  0.03587498  0.19964103  1
  S  S20  1  0.41260935  0.99349146  0.98190637  1
  S  S21  1  0.57655028  0.03811732  0.00312411  1
  S  S22  1  0.16939453  0.95568675  0.90341554  1
  S  S23  1  0.82757507  0.00764710  0.10648491  1
  S  S24  1  0.10502691  0.47987619  0.64846235  1
  S  S25  1  0.91218694  0.45597836  0.35804236  1
  S  S26  1  0.73459116  0.04282814  0.31378080  1
  S  S27  1  0.26552434  0.94711369  0.69497779  1
  S  S28  1  0.17499222  0.50583871  0.44948434  1
  S  S29  1  0.82060829  0.51398020  0.55830012  1
  S  S30  1  0.43906756  0.46276241  0.80765676  1
  S  S31  1  0.56116273  0.48984744  0.18623292  1
  S  S32  1  0.91662691  0.49062923  0.98925173  1
  S  S33  1  0.08237365  0.46644011  0.01877393  1
  S  S34  1  0.65810019  0.47363170  0.88351384  1
  S  S35  1  0.33204492  0.48588308  0.11169323  1
  S  S36  1  0.60307637  0.98711550  0.64738506  1
  S  S37  1  0.39713101  0.05138216  0.34850893  1
  S  S38  1  0.24113051  0.51631589  0.31592405  1
  S  S39  1  0.75145530  0.44274420  0.68536742  1
  S  S40  1  0.67272275  0.92988679  0.44850631  1
  S  S41  1  0.33776420  0.96200484  0.55580131  1
