# generated using pymatgen
data_Pr2Mn3(SbS3)4
_symmetry_space_group_name_H-M   'P 1'
_cell_length_a   20.02960800
_cell_length_b   3.90410600
_cell_length_c   14.95364829
_cell_angle_alpha   90.00000000
_cell_angle_beta   126.33350609
_cell_angle_gamma   90.00000000
_symmetry_Int_Tables_number   1
_chemical_formula_structural   Pr2Mn3(SbS3)4
_chemical_formula_sum   'Pr4 Mn6 Sb8 S24'
_cell_volume   942.00006694
_cell_formula_units_Z   2
loop_
 _symmetry_equiv_pos_site_id
 _symmetry_equiv_pos_as_xyz
  1  'x, y, z'
loop_
 _atom_site_type_symbol
 _atom_site_label
 _atom_site_symmetry_multiplicity
 _atom_site_fract_x
 _atom_site_fract_y
 _atom_site_fract_z
 _atom_site_occupancy
  Pr  Pr0  1  0.27119329  0.47297690  0.87299639  1
  Pr  Pr1  1  0.72628690  0.48742286  0.13504584  1
  Pr  Pr2  1  0.76640466  0.97776496  0.87977701  1
  Pr  Pr3  1  0.23331688  0.96379228  0.12893378  1
  Mn  Mn4  1  0.30602426  0.46024398  0.61036070  1
  Mn  Mn5  1  0.70409944  0.53028088  0.36093821  1
  Mn  Mn6  1  0.99535347  0.00116968  0.00468323  1
  Mn  Mn7  1  0.80227167  0.03969633  0.62667282  1
  Mn  Mn8  1  0.21056971  0.05825831  0.39412507  1
  Mn  Mn9  1  0.49484594  0.51732864  0.98861036  1
  Sb  Sb10  1  0.88341675  0.89455778  0.45461716  1
  Sb  Sb11  1  0.11090914  0.99061314  0.54372983  1
  Sb  Sb12  1  0.03397669  0.51005451  0.82212781  1
  Sb  Sb13  1  0.95946009  0.47420727  0.19163801  1
  Sb  Sb14  1  0.39959924  0.58327607  0.45897108  1
  Sb  Sb15  1  0.60577268  0.57910353  0.53120660  1
  Sb  Sb16  1  0.52945691  0.95942251  0.80602866  1
  Sb  Sb17  1  0.47191469  0.98189410  0.19591935  1
  S  S18  1  0.94660585  0.01504164  0.82190601  1
  S  S19  1  0.06072465  0.03564622  0.19985453  1
  S  S20  1  0.41244108  0.99361793  0.98192569  1
  S  S21  1  0.57646186  0.03855808  0.00291158  1
  S  S22  1  0.16951183  0.95596571  0.90324419  1
  S  S23  1  0.82714147  0.00789647  0.10619894  1
  S  S24  1  0.10501233  0.48024881  0.64834388  1
  S  S25  1  0.91228888  0.45715409  0.35808275  1
  S  S26  1  0.73448665  0.04301416  0.31365240  1
  S  S27  1  0.26556582  0.94677514  0.69506509  1
  S  S28  1  0.17507792  0.50703841  0.44985172  1
  S  S29  1  0.82043377  0.51326900  0.55800743  1
  S  S30  1  0.43926802  0.46337521  0.80771814  1
  S  S31  1  0.56114378  0.48993736  0.18605084  1
  S  S32  1  0.91684348  0.49003424  0.98916605  1
  S  S33  1  0.08234115  0.46569433  0.01890085  1
  S  S34  1  0.65795831  0.47393015  0.88331139  1
  S  S35  1  0.33196494  0.48625035  0.11133541  1
  S  S36  1  0.60289093  0.98749029  0.64716504  1
  S  S37  1  0.39708719  0.05213890  0.34832722  1
  S  S38  1  0.24104806  0.51654325  0.31568206  1
  S  S39  1  0.75147544  0.44224289  0.68520095  1
  S  S40  1  0.67254244  0.92901137  0.44814141  1
  S  S41  1  0.33773240  0.96258254  0.55584391  1
