# generated using pymatgen
data_Pr2Mn3(SbS3)4
_symmetry_space_group_name_H-M   'P 1'
_cell_length_a   20.02960800
_cell_length_b   3.90410600
_cell_length_c   14.95364829
_cell_angle_alpha   90.00000000
_cell_angle_beta   126.33350609
_cell_angle_gamma   90.00000000
_symmetry_Int_Tables_number   1
_chemical_formula_structural   Pr2Mn3(SbS3)4
_chemical_formula_sum   'Pr4 Mn6 Sb8 S24'
_cell_volume   942.00006694
_cell_formula_units_Z   2
loop_
 _symmetry_equiv_pos_site_id
 _symmetry_equiv_pos_as_xyz
  1  'x, y, z'
loop_
 _atom_site_type_symbol
 _atom_site_label
 _atom_site_symmetry_multiplicity
 _atom_site_fract_x
 _atom_site_fract_y
 _atom_site_fract_z
 _atom_site_occupancy
  Pr  Pr0  1  0.27120384  0.47298378  0.87295696  1
  Pr  Pr1  1  0.72612364  0.48775826  0.13494382  1
  Pr  Pr2  1  0.76626620  0.97720317  0.87945448  1
  Pr  Pr3  1  0.23337045  0.96353652  0.12887374  1
  Mn  Mn4  1  0.30599895  0.46057442  0.61045271  1
  Mn  Mn5  1  0.70386473  0.53053676  0.36074880  1
  Mn  Mn6  1  0.99516275  0.00064230  0.00436557  1
  Mn  Mn7  1  0.80237510  0.04013176  0.62670430  1
  Mn  Mn8  1  0.21048763  0.05788566  0.39413460  1
  Mn  Mn9  1  0.49468622  0.51772569  0.98846028  1
  Sb  Sb10  1  0.88334656  0.89521620  0.45461667  1
  Sb  Sb11  1  0.11093169  0.99081229  0.54367486  1
  Sb  Sb12  1  0.03390702  0.51076269  0.82206264  1
  Sb  Sb13  1  0.95942238  0.47484814  0.19160836  1
  Sb  Sb14  1  0.39956220  0.58369192  0.45888218  1
  Sb  Sb15  1  0.60580837  0.57896973  0.53099379  1
  Sb  Sb16  1  0.52953520  0.95945220  0.80601300  1
  Sb  Sb17  1  0.47185349  0.98201966  0.19580951  1
  S  S18  1  0.94680377  0.01590538  0.82192543  1
  S  S19  1  0.06083843  0.03540885  0.20017414  1
  S  S20  1  0.41226758  0.99387449  0.98184132  1
  S  S21  1  0.57617790  0.03966493  0.00243400  1
  S  S22  1  0.16955895  0.95695548  0.90311250  1
  S  S23  1  0.82675454  0.00775110  0.10603914  1
  S  S24  1  0.10496341  0.48044310  0.64821254  1
  S  S25  1  0.91223532  0.45835047  0.35789480  1
  S  S26  1  0.73434962  0.04278585  0.31343762  1
  S  S27  1  0.26563035  0.94650169  0.69508433  1
  S  S28  1  0.17530257  0.50839728  0.45033786  1
  S  S29  1  0.82031806  0.51305327  0.55777623  1
  S  S30  1  0.43934599  0.46342381  0.80783967  1
  S  S31  1  0.56126471  0.48935148  0.18596094  1
  S  S32  1  0.91706686  0.48948543  0.98917008  1
  S  S33  1  0.08223101  0.46482599  0.01898867  1
  S  S34  1  0.65789007  0.47395527  0.88314844  1
  S  S35  1  0.33195354  0.48643281  0.11109274  1
  S  S36  1  0.60279188  0.98811754  0.64699210  1
  S  S37  1  0.39694785  0.05285255  0.34805909  1
  S  S38  1  0.24093591  0.51589541  0.31551314  1
  S  S39  1  0.75139927  0.44190945  0.68503627  1
  S  S40  1  0.67245868  0.92884317  0.44796419  1
  S  S41  1  0.33777752  0.96391816  0.55593498  1
