# generated using pymatgen
data_Pr2Mn3(SbS3)4
_symmetry_space_group_name_H-M   'P 1'
_cell_length_a   20.02960800
_cell_length_b   3.90410600
_cell_length_c   14.95364829
_cell_angle_alpha   90.00000000
_cell_angle_beta   126.33350609
_cell_angle_gamma   90.00000000
_symmetry_Int_Tables_number   1
_chemical_formula_structural   Pr2Mn3(SbS3)4
_chemical_formula_sum   'Pr4 Mn6 Sb8 S24'
_cell_volume   942.00006694
_cell_formula_units_Z   2
loop_
 _symmetry_equiv_pos_site_id
 _symmetry_equiv_pos_as_xyz
  1  'x, y, z'
loop_
 _atom_site_type_symbol
 _atom_site_label
 _atom_site_symmetry_multiplicity
 _atom_site_fract_x
 _atom_site_fract_y
 _atom_site_fract_z
 _atom_site_occupancy
  Pr  Pr0  1  0.27120963  0.47319885  0.87292578  1
  Pr  Pr1  1  0.72595810  0.48819275  0.13483824  1
  Pr  Pr2  1  0.76610771  0.97681553  0.87917032  1
  Pr  Pr3  1  0.23339492  0.96327342  0.12880871  1
  Mn  Mn4  1  0.30591049  0.46106548  0.61039616  1
  Mn  Mn5  1  0.70373462  0.53100006  0.36061254  1
  Mn  Mn6  1  0.99495275  0.00005604  0.00419634  1
  Mn  Mn7  1  0.80246945  0.04021528  0.62660717  1
  Mn  Mn8  1  0.21036548  0.05762019  0.39408315  1
  Mn  Mn9  1  0.49463990  0.51797002  0.98831153  1
  Sb  Sb10  1  0.88326017  0.89583390  0.45456265  1
  Sb  Sb11  1  0.11092936  0.99100084  0.54360775  1
  Sb  Sb12  1  0.03385054  0.51141315  0.82196695  1
  Sb  Sb13  1  0.95938840  0.47535454  0.19163469  1
  Sb  Sb14  1  0.39961708  0.58391143  0.45888189  1
  Sb  Sb15  1  0.60587860  0.57878459  0.53085214  1
  Sb  Sb16  1  0.52955859  0.95971787  0.80600313  1
  Sb  Sb17  1  0.47181079  0.98179582  0.19572802  1
  S  S18  1  0.94697777  0.01675616  0.82186347  1
  S  S19  1  0.06087973  0.03498826  0.20029211  1
  S  S20  1  0.41215901  0.99416969  0.98174386  1
  S  S21  1  0.57598648  0.04077115  0.00210001  1
  S  S22  1  0.16958819  0.95807725  0.90293504  1
  S  S23  1  0.82635226  0.00796408  0.10588063  1
  S  S24  1  0.10491285  0.48119686  0.64810882  1
  S  S25  1  0.91231636  0.45934262  0.35774044  1
  S  S26  1  0.73423523  0.04228736  0.31318363  1
  S  S27  1  0.26570545  0.94618498  0.69511978  1
  S  S28  1  0.17551921  0.51003329  0.45086484  1
  S  S29  1  0.82009189  0.51284831  0.55751493  1
  S  S30  1  0.43938435  0.46385872  0.80795190  1
  S  S31  1  0.56142475  0.48933349  0.18595456  1
  S  S32  1  0.91743943  0.48858380  0.98917022  1
  S  S33  1  0.08210797  0.46352342  0.01898852  1
  S  S34  1  0.65775154  0.47434842  0.88301248  1
  S  S35  1  0.33183450  0.48639160  0.11082897  1
  S  S36  1  0.60266700  0.98828475  0.64678731  1
  S  S37  1  0.39690434  0.05335627  0.34797711  1
  S  S38  1  0.24091406  0.51532875  0.31542211  1
  S  S39  1  0.75135644  0.44129594  0.68503244  1
  S  S40  1  0.67223225  0.92864140  0.44750090  1
  S  S41  1  0.33780649  0.96477932  0.55584152  1
