# generated using pymatgen
data_Pr2Mn3(SbS3)4
_symmetry_space_group_name_H-M   'P 1'
_cell_length_a   20.02960800
_cell_length_b   3.90410600
_cell_length_c   14.95364829
_cell_angle_alpha   90.00000000
_cell_angle_beta   126.33350609
_cell_angle_gamma   90.00000000
_symmetry_Int_Tables_number   1
_chemical_formula_structural   Pr2Mn3(SbS3)4
_chemical_formula_sum   'Pr4 Mn6 Sb8 S24'
_cell_volume   942.00006694
_cell_formula_units_Z   2
loop_
 _symmetry_equiv_pos_site_id
 _symmetry_equiv_pos_as_xyz
  1  'x, y, z'
loop_
 _atom_site_type_symbol
 _atom_site_label
 _atom_site_symmetry_multiplicity
 _atom_site_fract_x
 _atom_site_fract_y
 _atom_site_fract_z
 _atom_site_occupancy
  Pr  Pr0  1  0.27121200  0.47341237  0.87284467  1
  Pr  Pr1  1  0.72580283  0.48839198  0.13479234  1
  Pr  Pr2  1  0.76596275  0.97635616  0.87886046  1
  Pr  Pr3  1  0.23341907  0.96302343  0.12871855  1
  Mn  Mn4  1  0.30572955  0.46177456  0.61029902  1
  Mn  Mn5  1  0.70358040  0.53115560  0.36053398  1
  Mn  Mn6  1  0.99464635  0.99925322  0.00385080  1
  Mn  Mn7  1  0.80256278  0.04039059  0.62652069  1
  Mn  Mn8  1  0.21018285  0.05748429  0.39398999  1
  Mn  Mn9  1  0.49458068  0.51825299  0.98820604  1
  Sb  Sb10  1  0.88324284  0.89645308  0.45457477  1
  Sb  Sb11  1  0.11092042  0.99120492  0.54357388  1
  Sb  Sb12  1  0.03382457  0.51170218  0.82191823  1
  Sb  Sb13  1  0.95935403  0.47566735  0.19167279  1
  Sb  Sb14  1  0.39971358  0.58426583  0.45893297  1
  Sb  Sb15  1  0.60598145  0.57854843  0.53078682  1
  Sb  Sb16  1  0.52955312  0.95986074  0.80602568  1
  Sb  Sb17  1  0.47175214  0.98160266  0.19560256  1
  S  S18  1  0.94717239  0.01723569  0.82195886  1
  S  S19  1  0.06098517  0.03468880  0.20043214  1
  S  S20  1  0.41226630  0.99406272  0.98166052  1
  S  S21  1  0.57575230  0.04174904  0.00174599  1
  S  S22  1  0.16964263  0.95930794  0.90275494  1
  S  S23  1  0.82592866  0.00842881  0.10563884  1
  S  S24  1  0.10491181  0.48217051  0.64804406  1
  S  S25  1  0.91221460  0.46014714  0.35745174  1
  S  S26  1  0.73411622  0.04161930  0.31298137  1
  S  S27  1  0.26572234  0.94644769  0.69507209  1
  S  S28  1  0.17565760  0.51145459  0.45121567  1
  S  S29  1  0.81980177  0.51211046  0.55729576  1
  S  S30  1  0.43936507  0.46410267  0.80796186  1
  S  S31  1  0.56148205  0.48962317  0.18581062  1
  S  S32  1  0.91781820  0.48797297  0.98934254  1
  S  S33  1  0.08196495  0.46301662  0.01909509  1
  S  S34  1  0.65750480  0.47515505  0.88280686  1
  S  S35  1  0.33169290  0.48650530  0.11050939  1
  S  S36  1  0.60249838  0.98818786  0.64663076  1
  S  S37  1  0.39702599  0.05403377  0.34810326  1
  S  S38  1  0.24086599  0.51492251  0.31541595  1
  S  S39  1  0.75139880  0.44080114  0.68506720  1
  S  S40  1  0.67211547  0.92829819  0.44731954  1
  S  S41  1  0.33780349  0.96537380  0.55578579  1
