# generated using pymatgen
data_Pr2Mn3(SbS3)4
_symmetry_space_group_name_H-M   'P 1'
_cell_length_a   20.02960800
_cell_length_b   3.90410600
_cell_length_c   14.95364829
_cell_angle_alpha   90.00000000
_cell_angle_beta   126.33350609
_cell_angle_gamma   90.00000000
_symmetry_Int_Tables_number   1
_chemical_formula_structural   Pr2Mn3(SbS3)4
_chemical_formula_sum   'Pr4 Mn6 Sb8 S24'
_cell_volume   942.00006694
_cell_formula_units_Z   2
loop_
 _symmetry_equiv_pos_site_id
 _symmetry_equiv_pos_as_xyz
  1  'x, y, z'
loop_
 _atom_site_type_symbol
 _atom_site_label
 _atom_site_symmetry_multiplicity
 _atom_site_fract_x
 _atom_site_fract_y
 _atom_site_fract_z
 _atom_site_occupancy
  Pr  Pr0  1  0.26681718  0.48786438  0.86389841  1
  Pr  Pr1  1  0.73629487  0.51251119  0.13649970  1
  Pr  Pr2  1  0.76272261  0.01190576  0.86187980  1
  Pr  Pr3  1  0.23552312  0.00507217  0.13615275  1
  Mn  Mn4  1  0.28854524  0.47751716  0.59523940  1
  Mn  Mn5  1  0.68910439  0.49229483  0.37247571  1
  Mn  Mn6  1  0.00818449  0.98819244  0.01932173  1
  Mn  Mn7  1  0.80535471  0.01080488  0.61812948  1
  Mn  Mn8  1  0.19855237  0.98341319  0.37690476  1
  Mn  Mn9  1  0.49299653  0.47763487  0.99005142  1
  Sb  Sb10  1  0.88996000  0.98419529  0.45014428  1
  Sb  Sb11  1  0.11193527  0.97671807  0.54694280  1
  Sb  Sb12  1  0.04052890  0.52189857  0.82268045  1
  Sb  Sb13  1  0.96364525  0.49871980  0.18327763  1
  Sb  Sb14  1  0.39583404  0.50659745  0.45109941  1
  Sb  Sb15  1  0.60575592  0.47491375  0.54732459  1
  Sb  Sb16  1  0.53287754  0.99789166  0.80833358  1
  Sb  Sb17  1  0.46346656  0.01633946  0.18611310  1
  S  S18  1  0.93758052  0.99669078  0.80447834  1
  S  S19  1  0.06542048  0.98463008  0.20097315  1
  S  S20  1  0.41111258  0.97548836  0.98099303  1
  S  S21  1  0.57785036  0.00734529  0.00927392  1
  S  S22  1  0.17210025  0.03127148  0.90181652  1
  S  S23  1  0.82340323  0.04844099  0.09542148  1
  S  S24  1  0.09631873  0.48124983  0.64680346  1
  S  S25  1  0.91132407  0.48453429  0.35406582  1
  S  S26  1  0.74020842  0.94647804  0.30236986  1
  S  S27  1  0.26420217  0.00548972  0.70930851  1
  S  S28  1  0.15858703  0.48265471  0.42802127  1
  S  S29  1  0.82459020  0.48883038  0.54799010  1
  S  S30  1  0.43275590  0.49762978  0.79948562  1
  S  S31  1  0.55710867  0.51171937  0.18460313  1
  S  S32  1  0.90934259  0.48095927  0.98596627  1
  S  S33  1  0.09154925  0.47037514  0.02646024  1
  S  S34  1  0.66396952  0.50736098  0.88525551  1
  S  S35  1  0.33196618  0.50793798  0.09852855  1
  S  S36  1  0.59723340  0.98363146  0.65477870  1
  S  S37  1  0.40462568  0.98819809  0.34999269  1
  S  S38  1  0.23894164  0.46193800  0.30767577  1
  S  S39  1  0.76186991  0.49848138  0.69726503  1
  S  S40  1  0.66774144  0.02599625  0.45321162  1
  S  S41  1  0.32434726  0.97643526  0.55115049  1
