# generated using pymatgen
data_Pr2Mn3(SbS3)4
_symmetry_space_group_name_H-M   'P 1'
_cell_length_a   20.02960800
_cell_length_b   3.90410600
_cell_length_c   14.95364829
_cell_angle_alpha   90.00000000
_cell_angle_beta   126.33350609
_cell_angle_gamma   90.00000000
_symmetry_Int_Tables_number   1
_chemical_formula_structural   Pr2Mn3(SbS3)4
_chemical_formula_sum   'Pr4 Mn6 Sb8 S24'
_cell_volume   942.00006694
_cell_formula_units_Z   2
loop_
 _symmetry_equiv_pos_site_id
 _symmetry_equiv_pos_as_xyz
  1  'x, y, z'
loop_
 _atom_site_type_symbol
 _atom_site_label
 _atom_site_symmetry_multiplicity
 _atom_site_fract_x
 _atom_site_fract_y
 _atom_site_fract_z
 _atom_site_occupancy
  Pr  Pr0  1  0.27120365  0.47369014  0.87271739  1
  Pr  Pr1  1  0.72567517  0.48870071  0.13474765  1
  Pr  Pr2  1  0.76573337  0.97589146  0.87855984  1
  Pr  Pr3  1  0.23344739  0.96285386  0.12871042  1
  Mn  Mn4  1  0.30558800  0.46248561  0.61019301  1
  Mn  Mn5  1  0.70341040  0.53155810  0.36044525  1
  Mn  Mn6  1  0.99444891  0.99866785  0.00361107  1
  Mn  Mn7  1  0.80259068  0.04055915  0.62636038  1
  Mn  Mn8  1  0.21003292  0.05736987  0.39389937  1
  Mn  Mn9  1  0.49455873  0.51835649  0.98810459  1
  Sb  Sb10  1  0.88320680  0.89713452  0.45454200  1
  Sb  Sb11  1  0.11096232  0.99140984  0.54369692  1
  Sb  Sb12  1  0.03384220  0.51180586  0.82195084  1
  Sb  Sb13  1  0.95928656  0.47616395  0.19160828  1
  Sb  Sb14  1  0.39975736  0.58467283  0.45891662  1
  Sb  Sb15  1  0.60612535  0.57820798  0.53074470  1
  Sb  Sb16  1  0.52958572  0.96031196  0.80602112  1
  Sb  Sb17  1  0.47173744  0.98139558  0.19548419  1
  S  S18  1  0.94727410  0.01792074  0.82192007  1
  S  S19  1  0.06110028  0.03469803  0.20066529  1
  S  S20  1  0.41234084  0.99456744  0.98161779  1
  S  S21  1  0.57557789  0.04293536  0.00139203  1
  S  S22  1  0.16961853  0.96057658  0.90257071  1
  S  S23  1  0.82547310  0.00913029  0.10526939  1
  S  S24  1  0.10490143  0.48346317  0.64790848  1
  S  S25  1  0.91211039  0.46068402  0.35722630  1
  S  S26  1  0.73406046  0.04115342  0.31285674  1
  S  S27  1  0.26574734  0.94689573  0.69507390  1
  S  S28  1  0.17568381  0.51254400  0.45130202  1
  S  S29  1  0.81955995  0.51161102  0.55716976  1
  S  S30  1  0.43928531  0.46430837  0.80802006  1
  S  S31  1  0.56156850  0.48945100  0.18564199  1
  S  S32  1  0.91814275  0.48706655  0.98927087  1
  S  S33  1  0.08179939  0.46277865  0.01926210  1
  S  S34  1  0.65728886  0.47570601  0.88250924  1
  S  S35  1  0.33160011  0.48649164  0.11035379  1
  S  S36  1  0.60228621  0.98822809  0.64656234  1
  S  S37  1  0.39722382  0.05494863  0.34819436  1
  S  S38  1  0.24092770  0.51427248  0.31562166  1
  S  S39  1  0.75143637  0.44029912  0.68516791  1
  S  S40  1  0.67204482  0.92840169  0.44729314  1
  S  S41  1  0.33788179  0.96589842  0.55565880  1
