# generated using pymatgen
data_Pr2Mn3(SbS3)4
_symmetry_space_group_name_H-M   'P 1'
_cell_length_a   20.02960800
_cell_length_b   3.90410600
_cell_length_c   14.95364829
_cell_angle_alpha   90.00000000
_cell_angle_beta   126.33350609
_cell_angle_gamma   90.00000000
_symmetry_Int_Tables_number   1
_chemical_formula_structural   Pr2Mn3(SbS3)4
_chemical_formula_sum   'Pr4 Mn6 Sb8 S24'
_cell_volume   942.00006694
_cell_formula_units_Z   2
loop_
 _symmetry_equiv_pos_site_id
 _symmetry_equiv_pos_as_xyz
  1  'x, y, z'
loop_
 _atom_site_type_symbol
 _atom_site_label
 _atom_site_symmetry_multiplicity
 _atom_site_fract_x
 _atom_site_fract_y
 _atom_site_fract_z
 _atom_site_occupancy
  Pr  Pr0  1  0.27121259  0.47401760  0.87259851  1
  Pr  Pr1  1  0.72550123  0.48894761  0.13466078  1
  Pr  Pr2  1  0.76549972  0.97556821  0.87831004  1
  Pr  Pr3  1  0.23342971  0.96251675  0.12864932  1
  Mn  Mn4  1  0.30546444  0.46277754  0.61018158  1
  Mn  Mn5  1  0.70329392  0.53167095  0.36038277  1
  Mn  Mn6  1  0.99432091  0.99824538  0.00342777  1
  Mn  Mn7  1  0.80264634  0.04086236  0.62629554  1
  Mn  Mn8  1  0.20990809  0.05737473  0.39378547  1
  Mn  Mn9  1  0.49454265  0.51865284  0.98789496  1
  Sb  Sb10  1  0.88311520  0.89772893  0.45442296  1
  Sb  Sb11  1  0.11097011  0.99135642  0.54377540  1
  Sb  Sb12  1  0.03387674  0.51195326  0.82201163  1
  Sb  Sb13  1  0.95925793  0.47659208  0.19162023  1
  Sb  Sb14  1  0.39979530  0.58484041  0.45897266  1
  Sb  Sb15  1  0.60624300  0.57789011  0.53069226  1
  Sb  Sb16  1  0.52959422  0.96062235  0.80598321  1
  Sb  Sb17  1  0.47166560  0.98139712  0.19539869  1
  S  S18  1  0.94732186  0.01882992  0.82183222  1
  S  S19  1  0.06130967  0.03478365  0.20096016  1
  S  S20  1  0.41241094  0.99545268  0.98172878  1
  S  S21  1  0.57548129  0.04378619  0.00106051  1
  S  S22  1  0.16952668  0.96147463  0.90232408  1
  S  S23  1  0.82510125  0.00971564  0.10499764  1
  S  S24  1  0.10487659  0.48427777  0.64777484  1
  S  S25  1  0.91197680  0.46107994  0.35687840  1
  S  S26  1  0.73403363  0.04075163  0.31267642  1
  S  S27  1  0.26579343  0.94683416  0.69509569  1
  S  S28  1  0.17578557  0.51394377  0.45144245  1
  S  S29  1  0.81931747  0.51122321  0.55693154  1
  S  S30  1  0.43916941  0.46498500  0.80811658  1
  S  S31  1  0.56173343  0.48910173  0.18567064  1
  S  S32  1  0.91833483  0.48650152  0.98909811  1
  S  S33  1  0.08169588  0.46258570  0.01939632  1
  S  S34  1  0.65716644  0.47625783  0.88239884  1
  S  S35  1  0.33155496  0.48650946  0.11003369  1
  S  S36  1  0.60202275  0.98827364  0.64623673  1
  S  S37  1  0.39735685  0.05580739  0.34820372  1
  S  S38  1  0.24110238  0.51376772  0.31593777  1
  S  S39  1  0.75154467  0.44006772  0.68539448  1
  S  S40  1  0.67196697  0.92850795  0.44733324  1
  S  S41  1  0.33783143  0.96658192  0.55551585  1
