# generated using pymatgen
data_Pr2Mn3(SbS3)4
_symmetry_space_group_name_H-M   'P 1'
_cell_length_a   20.02960800
_cell_length_b   3.90410600
_cell_length_c   14.95364829
_cell_angle_alpha   90.00000000
_cell_angle_beta   126.33350609
_cell_angle_gamma   90.00000000
_symmetry_Int_Tables_number   1
_chemical_formula_structural   Pr2Mn3(SbS3)4
_chemical_formula_sum   'Pr4 Mn6 Sb8 S24'
_cell_volume   942.00006694
_cell_formula_units_Z   2
loop_
 _symmetry_equiv_pos_site_id
 _symmetry_equiv_pos_as_xyz
  1  'x, y, z'
loop_
 _atom_site_type_symbol
 _atom_site_label
 _atom_site_symmetry_multiplicity
 _atom_site_fract_x
 _atom_site_fract_y
 _atom_site_fract_z
 _atom_site_occupancy
  Pr  Pr0  1  0.27124156  0.47423378  0.87247569  1
  Pr  Pr1  1  0.72539191  0.48907660  0.13456969  1
  Pr  Pr2  1  0.76530119  0.97518081  0.87814592  1
  Pr  Pr3  1  0.23335582  0.96222099  0.12860194  1
  Mn  Mn4  1  0.30535181  0.46290727  0.61020879  1
  Mn  Mn5  1  0.70318550  0.53156608  0.36033305  1
  Mn  Mn6  1  0.99420830  0.99776491  0.00322316  1
  Mn  Mn7  1  0.80259466  0.04098350  0.62611329  1
  Mn  Mn8  1  0.20970130  0.05779342  0.39357147  1
  Mn  Mn9  1  0.49447629  0.51912165  0.98773138  1
  Sb  Sb10  1  0.88300089  0.89819054  0.45432160  1
  Sb  Sb11  1  0.11101074  0.99112574  0.54387052  1
  Sb  Sb12  1  0.03395374  0.51210759  0.82214819  1
  Sb  Sb13  1  0.95925793  0.47674885  0.19162067  1
  Sb  Sb14  1  0.39988529  0.58493178  0.45906558  1
  Sb  Sb15  1  0.60637811  0.57756338  0.53062484  1
  Sb  Sb16  1  0.52956635  0.96099373  0.80592016  1
  Sb  Sb17  1  0.47163437  0.98130497  0.19524182  1
  S  S18  1  0.94736863  0.01963060  0.82194245  1
  S  S19  1  0.06155406  0.03491176  0.20119888  1
  S  S20  1  0.41249775  0.99601151  0.98182658  1
  S  S21  1  0.57545753  0.04479858  0.00080550  1
  S  S22  1  0.16942131  0.96197101  0.90205446  1
  S  S23  1  0.82472958  0.01016225  0.10484797  1
  S  S24  1  0.10476991  0.48508232  0.64761499  1
  S  S25  1  0.91188052  0.46136421  0.35664974  1
  S  S26  1  0.73398782  0.03998808  0.31242769  1
  S  S27  1  0.26579209  0.94709115  0.69517096  1
  S  S28  1  0.17588847  0.51540773  0.45159300  1
  S  S29  1  0.81909871  0.51105659  0.55654512  1
  S  S30  1  0.43914722  0.46546967  0.80833417  1
  S  S31  1  0.56194059  0.48822582  0.18584384  1
  S  S32  1  0.91847916  0.48581387  0.98898485  1
  S  S33  1  0.08164416  0.46332615  0.01965518  1
  S  S34  1  0.65710192  0.47704744  0.88237326  1
  S  S35  1  0.33150960  0.48588748  0.10958432  1
  S  S36  1  0.60170059  0.98816869  0.64598744  1
  S  S37  1  0.39729581  0.05647729  0.34808785  1
  S  S38  1  0.24116876  0.51298882  0.31612391  1
  S  S39  1  0.75176554  0.43958418  0.68570294  1
  S  S40  1  0.67187680  0.92869898  0.44735726  1
  S  S41  1  0.33777177  0.96722211  0.55541501  1
