# generated using pymatgen
data_Pr2Mn3(SbS3)4
_symmetry_space_group_name_H-M   'P 1'
_cell_length_a   20.02960800
_cell_length_b   3.90410600
_cell_length_c   14.95364829
_cell_angle_alpha   90.00000000
_cell_angle_beta   126.33350609
_cell_angle_gamma   90.00000000
_symmetry_Int_Tables_number   1
_chemical_formula_structural   Pr2Mn3(SbS3)4
_chemical_formula_sum   'Pr4 Mn6 Sb8 S24'
_cell_volume   942.00006694
_cell_formula_units_Z   2
loop_
 _symmetry_equiv_pos_site_id
 _symmetry_equiv_pos_as_xyz
  1  'x, y, z'
loop_
 _atom_site_type_symbol
 _atom_site_label
 _atom_site_symmetry_multiplicity
 _atom_site_fract_x
 _atom_site_fract_y
 _atom_site_fract_z
 _atom_site_occupancy
  Pr  Pr0  1  0.27123016  0.47426174  0.87239016  1
  Pr  Pr1  1  0.72525173  0.48900335  0.13446211  1
  Pr  Pr2  1  0.76513954  0.97477463  0.87797850  1
  Pr  Pr3  1  0.23325183  0.96163552  0.12848247  1
  Mn  Mn4  1  0.30520055  0.46302981  0.61012516  1
  Mn  Mn5  1  0.70314743  0.53180492  0.36033158  1
  Mn  Mn6  1  0.99409278  0.99738763  0.00300415  1
  Mn  Mn7  1  0.80251805  0.04127506  0.62591839  1
  Mn  Mn8  1  0.20955410  0.05838869  0.39347073  1
  Mn  Mn9  1  0.49432396  0.51971468  0.98744516  1
  Sb  Sb10  1  0.88291009  0.89848821  0.45420300  1
  Sb  Sb11  1  0.11103955  0.99065381  0.54387399  1
  Sb  Sb12  1  0.03403321  0.51213145  0.82225422  1
  Sb  Sb13  1  0.95929367  0.47688556  0.19171237  1
  Sb  Sb14  1  0.39996942  0.58487856  0.45917642  1
  Sb  Sb15  1  0.60650708  0.57742792  0.53059704  1
  Sb  Sb16  1  0.52954690  0.96140028  0.80588385  1
  Sb  Sb17  1  0.47155048  0.98106309  0.19501168  1
  S  S18  1  0.94732144  0.02005863  0.82207916  1
  S  S19  1  0.06185051  0.03515907  0.20148275  1
  S  S20  1  0.41266689  0.99658460  0.98211713  1
  S  S21  1  0.57544870  0.04602960  0.00052966  1
  S  S22  1  0.16935076  0.96203505  0.90199659  1
  S  S23  1  0.82439191  0.01022979  0.10465817  1
  S  S24  1  0.10474691  0.48537851  0.64758609  1
  S  S25  1  0.91182175  0.46128428  0.35640696  1
  S  S26  1  0.73402438  0.03890987  0.31224869  1
  S  S27  1  0.26578236  0.94781189  0.69522174  1
  S  S28  1  0.17605859  0.51625148  0.45178636  1
  S  S29  1  0.81886152  0.51080690  0.55615385  1
  S  S30  1  0.43925161  0.46593236  0.80857904  1
  S  S31  1  0.56216208  0.48753308  0.18590340  1
  S  S32  1  0.91861957  0.48555129  0.98885353  1
  S  S33  1  0.08155697  0.46458600  0.01991737  1
  S  S34  1  0.65702970  0.47741872  0.88230630  1
  S  S35  1  0.33148953  0.48488376  0.10925655  1
  S  S36  1  0.60137351  0.98845132  0.64580502  1
  S  S37  1  0.39731779  0.05727991  0.34804974  1
  S  S38  1  0.24123037  0.51229921  0.31629521  1
  S  S39  1  0.75208448  0.43922344  0.68615510  1
  S  S40  1  0.67174509  0.92917314  0.44739488  1
  S  S41  1  0.33771877  0.96759491  0.55528392  1
