# generated using pymatgen
data_Pr2Mn3(SbS3)4
_symmetry_space_group_name_H-M   'P 1'
_cell_length_a   20.02960800
_cell_length_b   3.90410600
_cell_length_c   14.95364829
_cell_angle_alpha   90.00000000
_cell_angle_beta   126.33350609
_cell_angle_gamma   90.00000000
_symmetry_Int_Tables_number   1
_chemical_formula_structural   Pr2Mn3(SbS3)4
_chemical_formula_sum   'Pr4 Mn6 Sb8 S24'
_cell_volume   942.00006694
_cell_formula_units_Z   2
loop_
 _symmetry_equiv_pos_site_id
 _symmetry_equiv_pos_as_xyz
  1  'x, y, z'
loop_
 _atom_site_type_symbol
 _atom_site_label
 _atom_site_symmetry_multiplicity
 _atom_site_fract_x
 _atom_site_fract_y
 _atom_site_fract_z
 _atom_site_occupancy
  Pr  Pr0  1  0.27127255  0.47406539  0.87234052  1
  Pr  Pr1  1  0.72516044  0.48880416  0.13436543  1
  Pr  Pr2  1  0.76496982  0.97429786  0.87780636  1
  Pr  Pr3  1  0.23318365  0.96123391  0.12838117  1
  Mn  Mn4  1  0.30506485  0.46299843  0.60999667  1
  Mn  Mn5  1  0.70316986  0.53183957  0.36039141  1
  Mn  Mn6  1  0.99408239  0.99679858  0.00276139  1
  Mn  Mn7  1  0.80242312  0.04160394  0.62569505  1
  Mn  Mn8  1  0.20938980  0.05900329  0.39332196  1
  Mn  Mn9  1  0.49412148  0.52030928  0.98705035  1
  Sb  Sb10  1  0.88285014  0.89872281  0.45409954  1
  Sb  Sb11  1  0.11110118  0.98994960  0.54383777  1
  Sb  Sb12  1  0.03411171  0.51219884  0.82240186  1
  Sb  Sb13  1  0.95930000  0.47681004  0.19177754  1
  Sb  Sb14  1  0.40007255  0.58474700  0.45921788  1
  Sb  Sb15  1  0.60662951  0.57734979  0.53062077  1
  Sb  Sb16  1  0.52948076  0.96199715  0.80581984  1
  Sb  Sb17  1  0.47146017  0.98108204  0.19478750  1
  S  S18  1  0.94726196  0.02014563  0.82214783  1
  S  S19  1  0.06213909  0.03516794  0.20178950  1
  S  S20  1  0.41284961  0.99678808  0.98238586  1
  S  S21  1  0.57552104  0.04706383  0.00038069  1
  S  S22  1  0.16935793  0.96164323  0.90194176  1
  S  S23  1  0.82409563  0.01027810  0.10451692  1
  S  S24  1  0.10474201  0.48607169  0.64742492  1
  S  S25  1  0.91186264  0.46167387  0.35620349  1
  S  S26  1  0.73400545  0.03809358  0.31214877  1
  S  S27  1  0.26585730  0.94811177  0.69536203  1
  S  S28  1  0.17615441  0.51707172  0.45187995  1
  S  S29  1  0.81856995  0.51071274  0.55575855  1
  S  S30  1  0.43928565  0.46625959  0.80873950  1
  S  S31  1  0.56229242  0.48720482  0.18586468  1
  S  S32  1  0.91878268  0.48569524  0.98884020  1
  S  S33  1  0.08154678  0.46640793  0.02024589  1
  S  S34  1  0.65704540  0.47857399  0.88232240  1
  S  S35  1  0.33144201  0.48412818  0.10895727  1
  S  S36  1  0.60104105  0.98838186  0.64569362  1
  S  S37  1  0.39735053  0.05862510  0.34804764  1
  S  S38  1  0.24116743  0.51202855  0.31640276  1
  S  S39  1  0.75241169  0.43858134  0.68671748  1
  S  S40  1  0.67157799  0.92917710  0.44741502  1
  S  S41  1  0.33764144  0.96814043  0.55524438  1
