# generated using pymatgen
data_Pr2Mn3(SbS3)4
_symmetry_space_group_name_H-M   'P 1'
_cell_length_a   20.02960800
_cell_length_b   3.90410600
_cell_length_c   14.95364829
_cell_angle_alpha   90.00000000
_cell_angle_beta   126.33350609
_cell_angle_gamma   90.00000000
_symmetry_Int_Tables_number   1
_chemical_formula_structural   Pr2Mn3(SbS3)4
_chemical_formula_sum   'Pr4 Mn6 Sb8 S24'
_cell_volume   942.00006694
_cell_formula_units_Z   2
loop_
 _symmetry_equiv_pos_site_id
 _symmetry_equiv_pos_as_xyz
  1  'x, y, z'
loop_
 _atom_site_type_symbol
 _atom_site_label
 _atom_site_symmetry_multiplicity
 _atom_site_fract_x
 _atom_site_fract_y
 _atom_site_fract_z
 _atom_site_occupancy
  Pr  Pr0  1  0.27135517  0.47391762  0.87233632  1
  Pr  Pr1  1  0.72507212  0.48850864  0.13423536  1
  Pr  Pr2  1  0.76487100  0.97374696  0.87774273  1
  Pr  Pr3  1  0.23306758  0.96091320  0.12824058  1
  Mn  Mn4  1  0.30496970  0.46295612  0.60993661  1
  Mn  Mn5  1  0.70311759  0.53180105  0.36041343  1
  Mn  Mn6  1  0.99404858  0.99630434  0.00258731  1
  Mn  Mn7  1  0.80244244  0.04174378  0.62556354  1
  Mn  Mn8  1  0.20920816  0.05976964  0.39328900  1
  Mn  Mn9  1  0.49392271  0.52097662  0.98670706  1
  Sb  Sb10  1  0.88282396  0.89890496  0.45398920  1
  Sb  Sb11  1  0.11118721  0.98947447  0.54387409  1
  Sb  Sb12  1  0.03417336  0.51237225  0.82245684  1
  Sb  Sb13  1  0.95929294  0.47682874  0.19188203  1
  Sb  Sb14  1  0.40016390  0.58455211  0.45929763  1
  Sb  Sb15  1  0.60672900  0.57741440  0.53060870  1
  Sb  Sb16  1  0.52939106  0.96282103  0.80578510  1
  Sb  Sb17  1  0.47128874  0.98094051  0.19451223  1
  S  S18  1  0.94710657  0.02033464  0.82208783  1
  S  S19  1  0.06246816  0.03511175  0.20211331  1
  S  S20  1  0.41307260  0.99701115  0.98272181  1
  S  S21  1  0.57574749  0.04834434  0.00042557  1
  S  S22  1  0.16929491  0.96122232  0.90176780  1
  S  S23  1  0.82384825  0.01007608  0.10426021  1
  S  S24  1  0.10475178  0.48600616  0.64739942  1
  S  S25  1  0.91185362  0.46250712  0.35608289  1
  S  S26  1  0.73392874  0.03747232  0.31198398  1
  S  S27  1  0.26600129  0.94815131  0.69548335  1
  S  S28  1  0.17616254  0.51784879  0.45192811  1
  S  S29  1  0.81831774  0.51072850  0.55548451  1
  S  S30  1  0.43922926  0.46675515  0.80869517  1
  S  S31  1  0.56242456  0.48721774  0.18586336  1
  S  S32  1  0.91896857  0.48536048  0.98875506  1
  S  S33  1  0.08154527  0.46775151  0.02056003  1
  S  S34  1  0.65709206  0.47962242  0.88226306  1
  S  S35  1  0.33151310  0.48324254  0.10876860  1
  S  S36  1  0.60075061  0.98815097  0.64574285  1
  S  S37  1  0.39728463  0.05984555  0.34795348  1
  S  S38  1  0.24118527  0.51187165  0.31658605  1
  S  S39  1  0.75261927  0.43807015  0.68708552  1
  S  S40  1  0.67149242  0.92930886  0.44759421  1
  S  S41  1  0.33747402  0.96870609  0.55513784  1
