# generated using pymatgen
data_Pr2Mn3(SbS3)4
_symmetry_space_group_name_H-M   'P 1'
_cell_length_a   20.02960800
_cell_length_b   3.90410600
_cell_length_c   14.95364829
_cell_angle_alpha   90.00000000
_cell_angle_beta   126.33350609
_cell_angle_gamma   90.00000000
_symmetry_Int_Tables_number   1
_chemical_formula_structural   Pr2Mn3(SbS3)4
_chemical_formula_sum   'Pr4 Mn6 Sb8 S24'
_cell_volume   942.00006694
_cell_formula_units_Z   2
loop_
 _symmetry_equiv_pos_site_id
 _symmetry_equiv_pos_as_xyz
  1  'x, y, z'
loop_
 _atom_site_type_symbol
 _atom_site_label
 _atom_site_symmetry_multiplicity
 _atom_site_fract_x
 _atom_site_fract_y
 _atom_site_fract_z
 _atom_site_occupancy
  Pr  Pr0  1  0.27143357  0.47377348  0.87235591  1
  Pr  Pr1  1  0.72499708  0.48839610  0.13418397  1
  Pr  Pr2  1  0.76481231  0.97332354  0.87775292  1
  Pr  Pr3  1  0.23294704  0.96047915  0.12811191  1
  Mn  Mn4  1  0.30482883  0.46265883  0.60984825  1
  Mn  Mn5  1  0.70306212  0.53137302  0.36044225  1
  Mn  Mn6  1  0.99404572  0.99559085  0.00245034  1
  Mn  Mn7  1  0.80252608  0.04214983  0.62546696  1
  Mn  Mn8  1  0.20912786  0.06049636  0.39335141  1
  Mn  Mn9  1  0.49379169  0.52167139  0.98638473  1
  Sb  Sb10  1  0.88281448  0.89897644  0.45390860  1
  Sb  Sb11  1  0.11123038  0.98902577  0.54386692  1
  Sb  Sb12  1  0.03420522  0.51239653  0.82253979  1
  Sb  Sb13  1  0.95929035  0.47674308  0.19194454  1
  Sb  Sb14  1  0.40031314  0.58429323  0.45937590  1
  Sb  Sb15  1  0.60681249  0.57747717  0.53056736  1
  Sb  Sb16  1  0.52940290  0.96325761  0.80576389  1
  Sb  Sb17  1  0.47111425  0.98085996  0.19424900  1
  S  S18  1  0.94698057  0.02050392  0.82200903  1
  S  S19  1  0.06262631  0.03490255  0.20238141  1
  S  S20  1  0.41333028  0.99675064  0.98307404  1
  S  S21  1  0.57588009  0.04918193  0.00044167  1
  S  S22  1  0.16914079  0.96082932  0.90150866  1
  S  S23  1  0.82347681  0.01068615  0.10399792  1
  S  S24  1  0.10483135  0.48592387  0.64736222  1
  S  S25  1  0.91179413  0.46321162  0.35594188  1
  S  S26  1  0.73389003  0.03709348  0.31189107  1
  S  S27  1  0.26613222  0.94810742  0.69560749  1
  S  S28  1  0.17620436  0.51875950  0.45201388  1
  S  S29  1  0.81804856  0.51053716  0.55521691  1
  S  S30  1  0.43907092  0.46712971  0.80854456  1
  S  S31  1  0.56255563  0.48717683  0.18583355  1
  S  S32  1  0.91924334  0.48467578  0.98865803  1
  S  S33  1  0.08143100  0.46894311  0.02082444  1
  S  S34  1  0.65712728  0.48123928  0.88224154  1
  S  S35  1  0.33161130  0.48334790  0.10867156  1
  S  S36  1  0.60038121  0.98825059  0.64581832  1
  S  S37  1  0.39722156  0.06026257  0.34797473  1
  S  S38  1  0.24131402  0.51168075  0.31681924  1
  S  S39  1  0.75283217  0.43767203  0.68756783  1
  S  S40  1  0.67155420  0.92890428  0.44797896  1
  S  S41  1  0.33733964  0.96899341  0.55497447  1
