# generated using pymatgen
data_Pr2Mn3(SbS3)4
_symmetry_space_group_name_H-M   'P 1'
_cell_length_a   20.02960800
_cell_length_b   3.90410600
_cell_length_c   14.95364829
_cell_angle_alpha   90.00000000
_cell_angle_beta   126.33350609
_cell_angle_gamma   90.00000000
_symmetry_Int_Tables_number   1
_chemical_formula_structural   Pr2Mn3(SbS3)4
_chemical_formula_sum   'Pr4 Mn6 Sb8 S24'
_cell_volume   942.00006694
_cell_formula_units_Z   2
loop_
 _symmetry_equiv_pos_site_id
 _symmetry_equiv_pos_as_xyz
  1  'x, y, z'
loop_
 _atom_site_type_symbol
 _atom_site_label
 _atom_site_symmetry_multiplicity
 _atom_site_fract_x
 _atom_site_fract_y
 _atom_site_fract_z
 _atom_site_occupancy
  Pr  Pr0  1  0.27151366  0.47356375  0.87238679  1
  Pr  Pr1  1  0.72490104  0.48805317  0.13408712  1
  Pr  Pr2  1  0.76475508  0.97281137  0.87780630  1
  Pr  Pr3  1  0.23283456  0.95997106  0.12806737  1
  Mn  Mn4  1  0.30466387  0.46198940  0.60991762  1
  Mn  Mn5  1  0.70302368  0.53105028  0.36034010  1
  Mn  Mn6  1  0.99400130  0.99519416  0.00228549  1
  Mn  Mn7  1  0.80258469  0.04241931  0.62537960  1
  Mn  Mn8  1  0.20911327  0.06133240  0.39342898  1
  Mn  Mn9  1  0.49368872  0.52248891  0.98613227  1
  Sb  Sb10  1  0.88281514  0.89905926  0.45383514  1
  Sb  Sb11  1  0.11125709  0.98861646  0.54382331  1
  Sb  Sb12  1  0.03421640  0.51248579  0.82260652  1
  Sb  Sb13  1  0.95922858  0.47663677  0.19189365  1
  Sb  Sb14  1  0.40040509  0.58402985  0.45944161  1
  Sb  Sb15  1  0.60685206  0.57767653  0.53049491  1
  Sb  Sb16  1  0.52942118  0.96386557  0.80577986  1
  Sb  Sb17  1  0.47101275  0.98060271  0.19402365  1
  S  S18  1  0.94676412  0.02068909  0.82183585  1
  S  S19  1  0.06270884  0.03481293  0.20262315  1
  S  S20  1  0.41361175  0.99621229  0.98335157  1
  S  S21  1  0.57596874  0.04995361  0.00041620  1
  S  S22  1  0.16915146  0.96027283  0.90145060  1
  S  S23  1  0.82313648  0.01080366  0.10380530  1
  S  S24  1  0.10476191  0.48591144  0.64736302  1
  S  S25  1  0.91168167  0.46354799  0.35582279  1
  S  S26  1  0.73382229  0.03655891  0.31182071  1
  S  S27  1  0.26623231  0.94777924  0.69560778  1
  S  S28  1  0.17634811  0.51957139  0.45206021  1
  S  S29  1  0.81782773  0.51007740  0.55501256  1
  S  S30  1  0.43901324  0.46754021  0.80843586  1
  S  S31  1  0.56266470  0.48746545  0.18581244  1
  S  S32  1  0.91947975  0.48342960  0.98861628  1
  S  S33  1  0.08133602  0.47000059  0.02113665  1
  S  S34  1  0.65725556  0.48311730  0.88224492  1
  S  S35  1  0.33156405  0.48331541  0.10842849  1
  S  S36  1  0.60007818  0.98836290  0.64592761  1
  S  S37  1  0.39710252  0.06034308  0.34800604  1
  S  S38  1  0.24131057  0.51155535  0.31690254  1
  S  S39  1  0.75310880  0.43746092  0.68809318  1
  S  S40  1  0.67164116  0.92858265  0.44839982  1
  S  S41  1  0.33722000  0.96880281  0.55485043  1
