# generated using pymatgen
data_Pr2Mn3(SbS3)4
_symmetry_space_group_name_H-M   'P 1'
_cell_length_a   20.02960800
_cell_length_b   3.90410600
_cell_length_c   14.95364829
_cell_angle_alpha   90.00000000
_cell_angle_beta   126.33350609
_cell_angle_gamma   90.00000000
_symmetry_Int_Tables_number   1
_chemical_formula_structural   Pr2Mn3(SbS3)4
_chemical_formula_sum   'Pr4 Mn6 Sb8 S24'
_cell_volume   942.00006694
_cell_formula_units_Z   2
loop_
 _symmetry_equiv_pos_site_id
 _symmetry_equiv_pos_as_xyz
  1  'x, y, z'
loop_
 _atom_site_type_symbol
 _atom_site_label
 _atom_site_symmetry_multiplicity
 _atom_site_fract_x
 _atom_site_fract_y
 _atom_site_fract_z
 _atom_site_occupancy
  Pr  Pr0  1  0.27162504  0.47359283  0.87245086  1
  Pr  Pr1  1  0.72480981  0.48769085  0.13396496  1
  Pr  Pr2  1  0.76470304  0.97243650  0.87787783  1
  Pr  Pr3  1  0.23266377  0.95948640  0.12792581  1
  Mn  Mn4  1  0.30455657  0.46140504  0.61000189  1
  Mn  Mn5  1  0.70294050  0.53027796  0.36030575  1
  Mn  Mn6  1  0.99396472  0.99472449  0.00208947  1
  Mn  Mn7  1  0.80243893  0.04239264  0.62518961  1
  Mn  Mn8  1  0.20915466  0.06194872  0.39360384  1
  Mn  Mn9  1  0.49362744  0.52288562  0.98587608  1
  Sb  Sb10  1  0.88281367  0.89928017  0.45380013  1
  Sb  Sb11  1  0.11134084  0.98844389  0.54391197  1
  Sb  Sb12  1  0.03418603  0.51266068  0.82268680  1
  Sb  Sb13  1  0.95919804  0.47639988  0.19185024  1
  Sb  Sb14  1  0.40047368  0.58369744  0.45950959  1
  Sb  Sb15  1  0.60692771  0.57800726  0.53045979  1
  Sb  Sb16  1  0.52940806  0.96465828  0.80575638  1
  Sb  Sb17  1  0.47093697  0.98037631  0.19381800  1
  S  S18  1  0.94653706  0.02080958  0.82160976  1
  S  S19  1  0.06263142  0.03449613  0.20281304  1
  S  S20  1  0.41394918  0.99589257  0.98370681  1
  S  S21  1  0.57605766  0.05067692  0.00026716  1
  S  S22  1  0.16924014  0.96043885  0.90157027  1
  S  S23  1  0.82288551  0.01112783  0.10359415  1
  S  S24  1  0.10462314  0.48592927  0.64741971  1
  S  S25  1  0.91161483  0.46378104  0.35578121  1
  S  S26  1  0.73377296  0.03624309  0.31184372  1
  S  S27  1  0.26635335  0.94706410  0.69568073  1
  S  S28  1  0.17653895  0.52071509  0.45207290  1
  S  S29  1  0.81770460  0.50967496  0.55481647  1
  S  S30  1  0.43905356  0.46785534  0.80842827  1
  S  S31  1  0.56266834  0.48789642  0.18582785  1
  S  S32  1  0.91958730  0.48287540  0.98844748  1
  S  S33  1  0.08126244  0.47111443  0.02141651  1
  S  S34  1  0.65741496  0.48451234  0.88212698  1
  S  S35  1  0.33135019  0.48330283  0.10805023  1
  S  S36  1  0.59979549  0.98842348  0.64596752  1
  S  S37  1  0.39700735  0.05987934  0.34796081  1
  S  S38  1  0.24129750  0.51117975  0.31694986  1
  S  S39  1  0.75343490  0.43751693  0.68860712  1
  S  S40  1  0.67169489  0.92838420  0.44865428  1
  S  S41  1  0.33710831  0.96856131  0.55483725  1
