# generated using pymatgen
data_Pr2Mn3(SbS3)4
_symmetry_space_group_name_H-M   'P 1'
_cell_length_a   20.02960800
_cell_length_b   3.90410600
_cell_length_c   14.95364829
_cell_angle_alpha   90.00000000
_cell_angle_beta   126.33350609
_cell_angle_gamma   90.00000000
_symmetry_Int_Tables_number   1
_chemical_formula_structural   Pr2Mn3(SbS3)4
_chemical_formula_sum   'Pr4 Mn6 Sb8 S24'
_cell_volume   942.00006694
_cell_formula_units_Z   2
loop_
 _symmetry_equiv_pos_site_id
 _symmetry_equiv_pos_as_xyz
  1  'x, y, z'
loop_
 _atom_site_type_symbol
 _atom_site_label
 _atom_site_symmetry_multiplicity
 _atom_site_fract_x
 _atom_site_fract_y
 _atom_site_fract_z
 _atom_site_occupancy
  Pr  Pr0  1  0.27179356  0.47337973  0.87252654  1
  Pr  Pr1  1  0.72471585  0.48738720  0.13381142  1
  Pr  Pr2  1  0.76464621  0.97225245  0.87789598  1
  Pr  Pr3  1  0.23246241  0.95923783  0.12773683  1
  Mn  Mn4  1  0.30441227  0.46075258  0.61003840  1
  Mn  Mn5  1  0.70277202  0.52929426  0.36028039  1
  Mn  Mn6  1  0.99392548  0.99461312  0.00190310  1
  Mn  Mn7  1  0.80226407  0.04230690  0.62492294  1
  Mn  Mn8  1  0.20919541  0.06261217  0.39379778  1
  Mn  Mn9  1  0.49350383  0.52275708  0.98548603  1
  Sb  Sb10  1  0.88285114  0.89954873  0.45385873  1
  Sb  Sb11  1  0.11145221  0.98830564  0.54399028  1
  Sb  Sb12  1  0.03408944  0.51257809  0.82272935  1
  Sb  Sb13  1  0.95909859  0.47644119  0.19176066  1
  Sb  Sb14  1  0.40051715  0.58368844  0.45963849  1
  Sb  Sb15  1  0.60695627  0.57826813  0.53036738  1
  Sb  Sb16  1  0.52936643  0.96541894  0.80571357  1
  Sb  Sb17  1  0.47082943  0.98002290  0.19356840  1
  S  S18  1  0.94627817  0.02046876  0.82143538  1
  S  S19  1  0.06249667  0.03387761  0.20301227  1
  S  S20  1  0.41429353  0.99630095  0.98410213  1
  S  S21  1  0.57638281  0.05110530  0.00027420  1
  S  S22  1  0.16945421  0.96075548  0.90187035  1
  S  S23  1  0.82270150  0.01124066  0.10342677  1
  S  S24  1  0.10443621  0.48598900  0.64739241  1
  S  S25  1  0.91154569  0.46373522  0.35580373  1
  S  S26  1  0.73369011  0.03614634  0.31192116  1
  S  S27  1  0.26652678  0.94641476  0.69581324  1
  S  S28  1  0.17670540  0.52278359  0.45216315  1
  S  S29  1  0.81767195  0.50977815  0.55478906  1
  S  S30  1  0.43901482  0.46794888  0.80839048  1
  S  S31  1  0.56276982  0.48867509  0.18597872  1
  S  S32  1  0.91960810  0.48212869  0.98817514  1
  S  S33  1  0.08113363  0.47179505  0.02160222  1
  S  S34  1  0.65748738  0.48596152  0.88196899  1
  S  S35  1  0.33120093  0.48326090  0.10788080  1
  S  S36  1  0.59953301  0.98862029  0.64587596  1
  S  S37  1  0.39699179  0.05904540  0.34800157  1
  S  S38  1  0.24130151  0.51046917  0.31697633  1
  S  S39  1  0.75370312  0.43776554  0.68891019  1
  S  S40  1  0.67178027  0.92839126  0.44885877  1
  S  S41  1  0.33704516  0.96864214  0.55483474  1
