# generated using pymatgen
data_Pr2Mn3(SbS3)4
_symmetry_space_group_name_H-M   'P 1'
_cell_length_a   20.02960800
_cell_length_b   3.90410600
_cell_length_c   14.95364829
_cell_angle_alpha   90.00000000
_cell_angle_beta   126.33350609
_cell_angle_gamma   90.00000000
_symmetry_Int_Tables_number   1
_chemical_formula_structural   Pr2Mn3(SbS3)4
_chemical_formula_sum   'Pr4 Mn6 Sb8 S24'
_cell_volume   942.00006694
_cell_formula_units_Z   2
loop_
 _symmetry_equiv_pos_site_id
 _symmetry_equiv_pos_as_xyz
  1  'x, y, z'
loop_
 _atom_site_type_symbol
 _atom_site_label
 _atom_site_symmetry_multiplicity
 _atom_site_fract_x
 _atom_site_fract_y
 _atom_site_fract_z
 _atom_site_occupancy
  Pr  Pr0  1  0.26169072  0.49771217  0.86508361  1
  Pr  Pr1  1  0.73996566  0.50026298  0.13724892  1
  Pr  Pr2  1  0.76044558  0.00599709  0.86224770  1
  Pr  Pr3  1  0.24010372  0.99188137  0.13808041  1
  Mn  Mn4  1  0.29961089  0.50570480  0.62033082  1
  Mn  Mn5  1  0.69707245  0.49993818  0.37870096  1
  Mn  Mn6  1  0.00046806  0.99776616  0.00097794  1
  Mn  Mn7  1  0.80237158  0.99406741  0.61965823  1
  Mn  Mn8  1  0.19904428  0.99472977  0.37895771  1
  Mn  Mn9  1  0.49979641  0.48736990  0.00124594  1
  Sb  Sb10  1  0.89492971  0.00462871  0.45388747  1
  Sb  Sb11  1  0.10652965  0.99400634  0.54919228  1
  Sb  Sb12  1  0.03787706  0.49456207  0.81401174  1
  Sb  Sb13  1  0.96263502  0.49744758  0.18780927  1
  Sb  Sb14  1  0.39453990  0.49237254  0.45552000  1
  Sb  Sb15  1  0.60578868  0.49632419  0.54781458  1
  Sb  Sb16  1  0.53847274  0.99817066  0.81480072  1
  Sb  Sb17  1  0.46274902  0.99957550  0.18533134  1
  S  S18  1  0.93955791  0.99700762  0.79791240  1
  S  S19  1  0.05752891  0.99303785  0.19502586  1
  S  S20  1  0.40246218  0.98228238  0.98020404  1
  S  S21  1  0.59867278  0.99662130  0.01865916  1
  S  S22  1  0.16867976  0.98972632  0.89875209  1
  S  S23  1  0.82879940  0.00492536  0.10363175  1
  S  S24  1  0.08838704  0.49324559  0.64796127  1
  S  S25  1  0.91014097  0.49192153  0.34907551  1
  S  S26  1  0.74410788  0.98406530  0.29623987  1
  S  S27  1  0.25616905  0.00982046  0.70227438  1
  S  S28  1  0.15747493  0.49222997  0.44897929  1
  S  S29  1  0.83831100  0.50036550  0.54645052  1
  S  S30  1  0.44087508  0.49564196  0.79884163  1
  S  S31  1  0.56046038  0.49284730  0.19972353  1
  S  S32  1  0.90262431  0.48868221  0.97920860  1
  S  S33  1  0.09593226  0.49009654  0.02008097  1
  S  S34  1  0.66579994  0.51043673  0.89532098  1
  S  S35  1  0.33419908  0.49977596  0.10640434  1
  S  S36  1  0.58852252  0.01553128  0.64746262  1
  S  S37  1  0.41327210  0.99420892  0.35533509  1
  S  S38  1  0.24324957  0.48362167  0.29142118  1
  S  S39  1  0.76129972  0.49983950  0.70645067  1
  S  S40  1  0.65821057  0.99555645  0.45441652  1
  S  S41  1  0.34163516  0.99259607  0.54567194  1
