# generated using pymatgen
data_Pr2Mn3(SbS3)4
_symmetry_space_group_name_H-M   'P 1'
_cell_length_a   20.02960800
_cell_length_b   3.90410600
_cell_length_c   14.95364829
_cell_angle_alpha   90.00000000
_cell_angle_beta   126.33350609
_cell_angle_gamma   90.00000000
_symmetry_Int_Tables_number   1
_chemical_formula_structural   Pr2Mn3(SbS3)4
_chemical_formula_sum   'Pr4 Mn6 Sb8 S24'
_cell_volume   942.00006694
_cell_formula_units_Z   2
loop_
 _symmetry_equiv_pos_site_id
 _symmetry_equiv_pos_as_xyz
  1  'x, y, z'
loop_
 _atom_site_type_symbol
 _atom_site_label
 _atom_site_symmetry_multiplicity
 _atom_site_fract_x
 _atom_site_fract_y
 _atom_site_fract_z
 _atom_site_occupancy
  Pr  Pr0  1  0.26683745  0.48824387  0.86396925  1
  Pr  Pr1  1  0.73637627  0.51222136  0.13669680  1
  Pr  Pr2  1  0.76266108  0.01156535  0.86170774  1
  Pr  Pr3  1  0.23543722  0.00519190  0.13606290  1
  Mn  Mn4  1  0.28843920  0.47775670  0.59485457  1
  Mn  Mn5  1  0.68890780  0.49167615  0.37219564  1
  Mn  Mn6  1  0.00818075  0.98796424  0.01955912  1
  Mn  Mn7  1  0.80554098  0.01029273  0.61822727  1
  Mn  Mn8  1  0.19859496  0.98288551  0.37682514  1
  Mn  Mn9  1  0.49298144  0.47783038  0.99001480  1
  Sb  Sb10  1  0.88991580  0.98465746  0.45013395  1
  Sb  Sb11  1  0.11191139  0.97691081  0.54678649  1
  Sb  Sb12  1  0.04047069  0.52208247  0.82263714  1
  Sb  Sb13  1  0.96348671  0.49844533  0.18322741  1
  Sb  Sb14  1  0.39576500  0.50637433  0.45098090  1
  Sb  Sb15  1  0.60581095  0.47508295  0.54737957  1
  Sb  Sb16  1  0.53275735  0.99804030  0.80807945  1
  Sb  Sb17  1  0.46360407  0.01638126  0.18643009  1
  S  S18  1  0.93741151  0.99741423  0.80441632  1
  S  S19  1  0.06515929  0.98465168  0.20079760  1
  S  S20  1  0.41128258  0.97588264  0.98091728  1
  S  S21  1  0.57768506  0.00913730  0.00933402  1
  S  S22  1  0.17225369  0.03138340  0.90231128  1
  S  S23  1  0.82339995  0.04849023  0.09525402  1
  S  S24  1  0.09637407  0.48129241  0.64682325  1
  S  S25  1  0.91118744  0.48514059  0.35371368  1
  S  S26  1  0.74016714  0.94577271  0.30223315  1
  S  S27  1  0.26433188  0.00524000  0.70920449  1
  S  S28  1  0.15869088  0.48300200  0.42773203  1
  S  S29  1  0.82455063  0.48929845  0.54811059  1
  S  S30  1  0.43253802  0.49828903  0.79934723  1
  S  S31  1  0.55694035  0.51231362  0.18476101  1
  S  S32  1  0.90951101  0.48058764  0.98594637  1
  S  S33  1  0.09178537  0.47177224  0.02674735  1
  S  S34  1  0.66380851  0.50734573  0.88504932  1
  S  S35  1  0.33201710  0.50738977  0.09878985  1
  S  S36  1  0.59732813  0.98377411  0.65494266  1
  S  S37  1  0.40457906  0.98816240  0.34971596  1
  S  S38  1  0.23888965  0.46171932  0.30755479  1
  S  S39  1  0.76175141  0.49719211  0.69704782  1
  S  S40  1  0.66768973  0.02605782  0.45300249  1
  S  S41  1  0.32471804  0.97598453  0.55135846  1
