# generated using pymatgen
data_Pr2Mn3(SbS3)4
_symmetry_space_group_name_H-M   'P 1'
_cell_length_a   20.02960800
_cell_length_b   3.90410600
_cell_length_c   14.95364829
_cell_angle_alpha   90.00000000
_cell_angle_beta   126.33350609
_cell_angle_gamma   90.00000000
_symmetry_Int_Tables_number   1
_chemical_formula_structural   Pr2Mn3(SbS3)4
_chemical_formula_sum   'Pr4 Mn6 Sb8 S24'
_cell_volume   942.00006694
_cell_formula_units_Z   2
loop_
 _symmetry_equiv_pos_site_id
 _symmetry_equiv_pos_as_xyz
  1  'x, y, z'
loop_
 _atom_site_type_symbol
 _atom_site_label
 _atom_site_symmetry_multiplicity
 _atom_site_fract_x
 _atom_site_fract_y
 _atom_site_fract_z
 _atom_site_occupancy
  Pr  Pr0  1  0.25957692  0.49984976  0.86276471  1
  Pr  Pr1  1  0.74030025  0.49901774  0.13721760  1
  Pr  Pr2  1  0.75961475  0.99909262  0.86282715  1
  Pr  Pr3  1  0.24043581  0.99996558  0.13725533  1
  Mn  Mn4  1  0.30082242  0.49993512  0.62041487  1
  Mn  Mn5  1  0.69928770  0.49963556  0.37957778  1
  Mn  Mn6  1  0.00006522  0.99992580  0.99957598  1
  Mn  Mn7  1  0.80077870  0.99914699  0.62063111  1
  Mn  Mn8  1  0.19906672  0.00011841  0.37953593  1
  Mn  Mn9  1  0.50014781  0.49862256  0.00007162  1
  Sb  Sb10  1  0.89361232  0.00053273  0.45204743  1
  Sb  Sb11  1  0.10642351  0.99958002  0.54792263  1
  Sb  Sb12  1  0.03842668  0.50010288  0.81465091  1
  Sb  Sb13  1  0.96155559  0.50059213  0.18539682  1
  Sb  Sb14  1  0.39385033  0.49980325  0.45257507  1
  Sb  Sb15  1  0.60647724  0.50020781  0.54808421  1
  Sb  Sb16  1  0.53841119  0.00037253  0.81450542  1
  Sb  Sb17  1  0.46140260  0.99940981  0.18519379  1
  S  S18  1  0.94199287  0.99970593  0.80195308  1
  S  S19  1  0.05827286  0.00068854  0.19839863  1
  S  S20  1  0.40053498  0.00026088  0.97901694  1
  S  S21  1  0.59946589  0.00035747  0.02084118  1
  S  S22  1  0.16750176  0.00020588  0.89542713  1
  S  S23  1  0.83253677  0.00133973  0.10547567  1
  S  S24  1  0.08839252  0.49969574  0.64999613  1
  S  S25  1  0.91109428  0.49859524  0.34941948  1
  S  S26  1  0.74270127  0.00004874  0.29365575  1
  S  S27  1  0.25731214  0.00083164  0.70710400  1
  S  S28  1  0.15745616  0.49832858  0.45231722  1
  S  S29  1  0.84286465  0.49970036  0.54706865  1
  S  S30  1  0.44194554  0.50056627  0.80172283  1
  S  S31  1  0.55797976  0.49981548  0.19795476  1
  S  S32  1  0.90076665  0.49930639  0.97925756  1
  S  S33  1  0.09983567  0.49988907  0.02118871  1
  S  S34  1  0.66742879  0.49927089  0.89440511  1
  S  S35  1  0.33223814  0.49834788  0.10445146  1
  S  S36  1  0.58860240  0.00102879  0.64976488  1
  S  S37  1  0.41147493  0.00034465  0.35058875  1
  S  S38  1  0.24256949  0.50113429  0.29326807  1
  S  S39  1  0.75734088  0.50030815  0.70716982  1
  S  S40  1  0.65713506  0.00063739  0.45199024  1
  S  S41  1  0.34263060  0.99975607  0.54732347  1
