# generated using pymatgen
data_Pr2Mn3(SbS3)4
_symmetry_space_group_name_H-M   'P 1'
_cell_length_a   20.02960800
_cell_length_b   3.90410600
_cell_length_c   14.95364829
_cell_angle_alpha   90.00000000
_cell_angle_beta   126.33350609
_cell_angle_gamma   90.00000000
_symmetry_Int_Tables_number   1
_chemical_formula_structural   Pr2Mn3(SbS3)4
_chemical_formula_sum   'Pr4 Mn6 Sb8 S24'
_cell_volume   942.00006694
_cell_formula_units_Z   2
loop_
 _symmetry_equiv_pos_site_id
 _symmetry_equiv_pos_as_xyz
  1  'x, y, z'
loop_
 _atom_site_type_symbol
 _atom_site_label
 _atom_site_symmetry_multiplicity
 _atom_site_fract_x
 _atom_site_fract_y
 _atom_site_fract_z
 _atom_site_occupancy
  Pr  Pr0  1  0.25963399  0.49986727  0.86278098  1
  Pr  Pr1  1  0.74020107  0.49827951  0.13724988  1
  Pr  Pr2  1  0.75964150  0.99813615  0.86286496  1
  Pr  Pr3  1  0.24043125  0.00020380  0.13733150  1
  Mn  Mn4  1  0.30095740  0.49995827  0.62039950  1
  Mn  Mn5  1  0.69913117  0.49938870  0.37936782  1
  Mn  Mn6  1  0.00019411  0.99987982  0.99913743  1
  Mn  Mn7  1  0.80083694  0.99870728  0.62114592  1
  Mn  Mn8  1  0.19895921  0.00057892  0.37955495  1
  Mn  Mn9  1  0.50037229  0.49704338  0.00018201  1
  Sb  Sb10  1  0.89365389  0.00121069  0.45199785  1
  Sb  Sb11  1  0.10636274  0.99907044  0.54788754  1
  Sb  Sb12  1  0.03833184  0.49989093  0.81476526  1
  Sb  Sb13  1  0.96155377  0.50066932  0.18536728  1
  Sb  Sb14  1  0.39419311  0.49979238  0.45308773  1
  Sb  Sb15  1  0.60654016  0.50047496  0.54824739  1
  Sb  Sb16  1  0.53841178  0.00066928  0.81444090  1
  Sb  Sb17  1  0.46137074  0.99896704  0.18500099  1
  S  S18  1  0.94231265  0.99964936  0.80180899  1
  S  S19  1  0.05851533  0.00145708  0.19884801  1
  S  S20  1  0.40070290  0.00057325  0.97921501  1
  S  S21  1  0.59940122  0.00042340  0.02047785  1
  S  S22  1  0.16749548  0.00061964  0.89614080  1
  S  S23  1  0.83240339  0.00280245  0.10558683  1
  S  S24  1  0.08813070  0.49948177  0.65012614  1
  S  S25  1  0.91103953  0.49754804  0.34884037  1
  S  S26  1  0.74277221  0.99967746  0.29413937  1
  S  S27  1  0.25729704  0.00150031  0.70732902  1
  S  S28  1  0.15787062  0.49670292  0.45237068  1
  S  S29  1  0.84278998  0.49982940  0.54650226  1
  S  S30  1  0.44199728  0.50110064  0.80138500  1
  S  S31  1  0.55794489  0.49963198  0.19797361  1
  S  S32  1  0.90107622  0.49832565  0.97950524  1
  S  S33  1  0.10018150  0.49989414  0.02131743  1
  S  S34  1  0.66739837  0.49853318  0.89412630  1
  S  S35  1  0.33204370  0.49652011  0.10389873  1
  S  S36  1  0.58838810  0.00155263  0.64955463  1
  S  S37  1  0.41174442  0.00079186  0.35115514  1
  S  S38  1  0.24265797  0.50259431  0.29349255  1
  S  S39  1  0.75719793  0.50002862  0.70743455  1
  S  S40  1  0.65710136  0.00057246  0.45144888  1
  S  S41  1  0.34254444  0.00043770  0.54717775  1
