# generated using pymatgen
data_Pr2Mn3(SbS3)4
_symmetry_space_group_name_H-M   'P 1'
_cell_length_a   20.02960800
_cell_length_b   3.90410600
_cell_length_c   14.95364829
_cell_angle_alpha   90.00000000
_cell_angle_beta   126.33350609
_cell_angle_gamma   90.00000000
_symmetry_Int_Tables_number   1
_chemical_formula_structural   Pr2Mn3(SbS3)4
_chemical_formula_sum   'Pr4 Mn6 Sb8 S24'
_cell_volume   942.00006694
_cell_formula_units_Z   2
loop_
 _symmetry_equiv_pos_site_id
 _symmetry_equiv_pos_as_xyz
  1  'x, y, z'
loop_
 _atom_site_type_symbol
 _atom_site_label
 _atom_site_symmetry_multiplicity
 _atom_site_fract_x
 _atom_site_fract_y
 _atom_site_fract_z
 _atom_site_occupancy
  Pr  Pr0  1  0.25973895  0.49991613  0.86281542  1
  Pr  Pr1  1  0.74003752  0.49769941  0.13718639  1
  Pr  Pr2  1  0.75974958  0.99731137  0.86287835  1
  Pr  Pr3  1  0.24043269  0.00047634  0.13739082  1
  Mn  Mn4  1  0.30112258  0.49994870  0.62033755  1
  Mn  Mn5  1  0.69901927  0.49904445  0.37921031  1
  Mn  Mn6  1  0.00027774  0.99945349  0.99861735  1
  Mn  Mn7  1  0.80079639  0.99841668  0.62145029  1
  Mn  Mn8  1  0.19882062  0.00096520  0.37960040  1
  Mn  Mn9  1  0.50059627  0.49561385  0.00022851  1
  Sb  Sb10  1  0.89363852  0.00196099  0.45192870  1
  Sb  Sb11  1  0.10626504  0.99861153  0.54780009  1
  Sb  Sb12  1  0.03822253  0.49986204  0.81481240  1
  Sb  Sb13  1  0.96163181  0.50067725  0.18541793  1
  Sb  Sb14  1  0.39437905  0.50001639  0.45346069  1
  Sb  Sb15  1  0.60652648  0.50030990  0.54833827  1
  Sb  Sb16  1  0.53849075  0.00113337  0.81447772  1
  Sb  Sb17  1  0.46144460  0.99869716  0.18485231  1
  S  S18  1  0.94266378  0.99909033  0.80171707  1
  S  S19  1  0.05866333  0.00248283  0.19911638  1
  S  S20  1  0.40088350  0.00101154  0.97940988  1
  S  S21  1  0.59935122  0.00059711  0.01996212  1
  S  S22  1  0.16749746  0.00038368  0.89677256  1
  S  S23  1  0.83230682  0.00465012  0.10567336  1
  S  S24  1  0.08800934  0.49926619  0.65042391  1
  S  S25  1  0.91107816  0.49652582  0.34842461  1
  S  S26  1  0.74282930  0.99918956  0.29470569  1
  S  S27  1  0.25742036  0.00221906  0.70743673  1
  S  S28  1  0.15839439  0.49500956  0.45266918  1
  S  S29  1  0.84269158  0.50030741  0.54589824  1
  S  S30  1  0.44204215  0.50167588  0.80100903  1
  S  S31  1  0.55802990  0.49845265  0.19814845  1
  S  S32  1  0.90134648  0.49802296  0.97985807  1
  S  S33  1  0.10050160  0.50046055  0.02150017  1
  S  S34  1  0.66739281  0.49790085  0.89397702  1
  S  S35  1  0.33187949  0.49458451  0.10332047  1
  S  S36  1  0.58825240  0.00214404  0.64935009  1
  S  S37  1  0.41213928  0.00154516  0.35181489  1
  S  S38  1  0.24274903  0.50305762  0.29392188  1
  S  S39  1  0.75715592  0.49957478  0.70789689  1
  S  S40  1  0.65723290  0.00081399  0.45103773  1
  S  S41  1  0.34232129  0.00108333  0.54687589  1
