# generated using pymatgen
data_Pr2Mn3(SbS3)4
_symmetry_space_group_name_H-M   'P 1'
_cell_length_a   20.02960800
_cell_length_b   3.90410600
_cell_length_c   14.95364829
_cell_angle_alpha   90.00000000
_cell_angle_beta   126.33350609
_cell_angle_gamma   90.00000000
_symmetry_Int_Tables_number   1
_chemical_formula_structural   Pr2Mn3(SbS3)4
_chemical_formula_sum   'Pr4 Mn6 Sb8 S24'
_cell_volume   942.00006694
_cell_formula_units_Z   2
loop_
 _symmetry_equiv_pos_site_id
 _symmetry_equiv_pos_as_xyz
  1  'x, y, z'
loop_
 _atom_site_type_symbol
 _atom_site_label
 _atom_site_symmetry_multiplicity
 _atom_site_fract_x
 _atom_site_fract_y
 _atom_site_fract_z
 _atom_site_occupancy
  Pr  Pr0  1  0.25978607  0.49994386  0.86286840  1
  Pr  Pr1  1  0.73979859  0.49711679  0.13692947  1
  Pr  Pr2  1  0.75989010  0.99666837  0.86294086  1
  Pr  Pr3  1  0.24049300  0.00064512  0.13754395  1
  Mn  Mn4  1  0.30121508  0.49942110  0.62023680  1
  Mn  Mn5  1  0.69885583  0.49921096  0.37893351  1
  Mn  Mn6  1  0.00032549  0.99967412  0.99806912  1
  Mn  Mn7  1  0.80073914  0.99764798  0.62160403  1
  Mn  Mn8  1  0.19875223  0.00088194  0.37988414  1
  Mn  Mn9  1  0.50081675  0.49468889  0.00034164  1
  Sb  Sb10  1  0.89369522  0.00283195  0.45192212  1
  Sb  Sb11  1  0.10625179  0.99831851  0.54782137  1
  Sb  Sb12  1  0.03819552  0.49975721  0.81493476  1
  Sb  Sb13  1  0.96175046  0.50070071  0.18545780  1
  Sb  Sb14  1  0.39450341  0.50021211  0.45386213  1
  Sb  Sb15  1  0.60645140  0.50032062  0.54841490  1
  Sb  Sb16  1  0.53860030  0.00153521  0.81458245  1
  Sb  Sb17  1  0.46157686  0.99828401  0.18481544  1
  S  S18  1  0.94294779  0.99873870  0.80166048  1
  S  S19  1  0.05884933  0.00359953  0.19940885  1
  S  S20  1  0.40091060  0.00128534  0.97936030  1
  S  S21  1  0.59933338  0.00024133  0.01949405  1
  S  S22  1  0.16744674  0.00040158  0.89737022  1
  S  S23  1  0.83214176  0.00624072  0.10551643  1
  S  S24  1  0.08797992  0.49944921  0.65055408  1
  S  S25  1  0.91089496  0.49558997  0.34787907  1
  S  S26  1  0.74290333  0.99881977  0.29522706  1
  S  S27  1  0.25762161  0.00283570  0.70750663  1
  S  S28  1  0.15896278  0.49290599  0.45299584  1
  S  S29  1  0.84256371  0.50015476  0.54537956  1
  S  S30  1  0.44215120  0.50201466  0.80074550  1
  S  S31  1  0.55825607  0.49683364  0.19829024  1
  S  S32  1  0.90150487  0.49680210  0.98009008  1
  S  S33  1  0.10070653  0.50025845  0.02162084  1
  S  S34  1  0.66737293  0.49705122  0.89383957  1
  S  S35  1  0.33176503  0.49328503  0.10284345  1
  S  S36  1  0.58814355  0.00267845  0.64896545  1
  S  S37  1  0.41253818  0.00218661  0.35245031  1
  S  S38  1  0.24280146  0.50287773  0.29430033  1
  S  S39  1  0.75700413  0.49968473  0.70803820  1
  S  S40  1  0.65749087  0.00119969  0.45071468  1
  S  S41  1  0.34215165  0.00237934  0.54667145  1
