# generated using pymatgen
data_Pr2Mn3(SbS3)4
_symmetry_space_group_name_H-M   'P 1'
_cell_length_a   20.02960800
_cell_length_b   3.90410600
_cell_length_c   14.95364829
_cell_angle_alpha   90.00000000
_cell_angle_beta   126.33350609
_cell_angle_gamma   90.00000000
_symmetry_Int_Tables_number   1
_chemical_formula_structural   Pr2Mn3(SbS3)4
_chemical_formula_sum   'Pr4 Mn6 Sb8 S24'
_cell_volume   942.00006694
_cell_formula_units_Z   2
loop_
 _symmetry_equiv_pos_site_id
 _symmetry_equiv_pos_as_xyz
  1  'x, y, z'
loop_
 _atom_site_type_symbol
 _atom_site_label
 _atom_site_symmetry_multiplicity
 _atom_site_fract_x
 _atom_site_fract_y
 _atom_site_fract_z
 _atom_site_occupancy
  Pr  Pr0  1  0.25980191  0.50032920  0.86288920  1
  Pr  Pr1  1  0.73966538  0.49693111  0.13673279  1
  Pr  Pr2  1  0.76002132  0.99573588  0.86299778  1
  Pr  Pr3  1  0.24051575  0.00073699  0.13777145  1
  Mn  Mn4  1  0.30131620  0.49904833  0.62012300  1
  Mn  Mn5  1  0.69867983  0.49943036  0.37863715  1
  Mn  Mn6  1  0.00039338  0.00014186  0.99758276  1
  Mn  Mn7  1  0.80073200  0.99725346  0.62164636  1
  Mn  Mn8  1  0.19871307  0.00086684  0.38019075  1
  Mn  Mn9  1  0.50102467  0.49392296  0.00043992  1
  Sb  Sb10  1  0.89368045  0.00356744  0.45190784  1
  Sb  Sb11  1  0.10627402  0.99791233  0.54794304  1
  Sb  Sb12  1  0.03815814  0.49956156  0.81497712  1
  Sb  Sb13  1  0.96184729  0.50084126  0.18557265  1
  Sb  Sb14  1  0.39455463  0.50095384  0.45427913  1
  Sb  Sb15  1  0.60640079  0.50030274  0.54852016  1
  Sb  Sb16  1  0.53866372  0.00210888  0.81465975  1
  Sb  Sb17  1  0.46169042  0.99796717  0.18474739  1
  S  S18  1  0.94309238  0.99821152  0.80139085  1
  S  S19  1  0.05918316  0.00445668  0.19975860  1
  S  S20  1  0.40092003  0.00100855  0.97934581  1
  S  S21  1  0.59937612  0.99967504  0.01913112  1
  S  S22  1  0.16753177  0.00059369  0.89802398  1
  S  S23  1  0.83199527  0.00760743  0.10538534  1
  S  S24  1  0.08778697  0.49941346  0.65059827  1
  S  S25  1  0.91070811  0.49398889  0.34752547  1
  S  S26  1  0.74287748  0.99815429  0.29571315  1
  S  S27  1  0.25774794  0.00332828  0.70733365  1
  S  S28  1  0.15941691  0.49123481  0.45320436  1
  S  S29  1  0.84247659  0.49958788  0.54492256  1
  S  S30  1  0.44225754  0.50161246  0.80058709  1
  S  S31  1  0.55842861  0.49480228  0.19827959  1
  S  S32  1  0.90149543  0.49550050  0.98026989  1
  S  S33  1  0.10068006  0.50089227  0.02162307  1
  S  S34  1  0.66733383  0.49603584  0.89373006  1
  S  S35  1  0.33172101  0.49287756  0.10236456  1
  S  S36  1  0.58811137  0.00342284  0.64871057  1
  S  S37  1  0.41280864  0.00323377  0.35285564  1
  S  S38  1  0.24296541  0.50278226  0.29478057  1
  S  S39  1  0.75686225  0.49935777  0.70817081  1
  S  S40  1  0.65773994  0.00139375  0.45041517  1
  S  S41  1  0.34186758  0.00310134  0.54642439  1
