# generated using pymatgen
data_Pr2Mn3(SbS3)4
_symmetry_space_group_name_H-M   'P 1'
_cell_length_a   20.02960800
_cell_length_b   3.90410600
_cell_length_c   14.95364829
_cell_angle_alpha   90.00000000
_cell_angle_beta   126.33350609
_cell_angle_gamma   90.00000000
_symmetry_Int_Tables_number   1
_chemical_formula_structural   Pr2Mn3(SbS3)4
_chemical_formula_sum   'Pr4 Mn6 Sb8 S24'
_cell_volume   942.00006694
_cell_formula_units_Z   2
loop_
 _symmetry_equiv_pos_site_id
 _symmetry_equiv_pos_as_xyz
  1  'x, y, z'
loop_
 _atom_site_type_symbol
 _atom_site_label
 _atom_site_symmetry_multiplicity
 _atom_site_fract_x
 _atom_site_fract_y
 _atom_site_fract_z
 _atom_site_occupancy
  Pr  Pr0  1  0.25979640  0.50035853  0.86286687  1
  Pr  Pr1  1  0.73951783  0.49685044  0.13649247  1
  Pr  Pr2  1  0.76015226  0.99475443  0.86301851  1
  Pr  Pr3  1  0.24061565  0.00047563  0.13800520  1
  Mn  Mn4  1  0.30124092  0.49835057  0.62005815  1
  Mn  Mn5  1  0.69847349  0.49944928  0.37844669  1
  Mn  Mn6  1  0.00040392  0.00074955  0.99714725  1
  Mn  Mn7  1  0.80085652  0.99633742  0.62165618  1
  Mn  Mn8  1  0.19870094  0.00043925  0.38048348  1
  Mn  Mn9  1  0.50118044  0.49359165  0.00074321  1
  Sb  Sb10  1  0.89363219  0.00443827  0.45187019  1
  Sb  Sb11  1  0.10629484  0.99783076  0.54799641  1
  Sb  Sb12  1  0.03821839  0.49934114  0.81510337  1
  Sb  Sb13  1  0.96188095  0.50092256  0.18571772  1
  Sb  Sb14  1  0.39455699  0.50191218  0.45456683  1
  Sb  Sb15  1  0.60638836  0.50019086  0.54871750  1
  Sb  Sb16  1  0.53865948  0.00224142  0.81465494  1
  Sb  Sb17  1  0.46187584  0.99753468  0.18480101  1
  S  S18  1  0.94323137  0.99783519  0.80105629  1
  S  S19  1  0.05952488  0.00544512  0.20005147  1
  S  S20  1  0.40094458  0.00050752  0.97925344  1
  S  S21  1  0.59924241  0.99917099  0.01867639  1
  S  S22  1  0.16764899  0.00132987  0.89873859  1
  S  S23  1  0.83188871  0.00899619  0.10535652  1
  S  S24  1  0.08751240  0.49941609  0.65054731  1
  S  S25  1  0.91044810  0.49259394  0.34730797  1
  S  S26  1  0.74265433  0.99877204  0.29595808  1
  S  S27  1  0.25785360  0.00393009  0.70709785  1
  S  S28  1  0.15983770  0.48964043  0.45346555  1
  S  S29  1  0.84243160  0.49882318  0.54465974  1
  S  S30  1  0.44229844  0.50075914  0.80053330  1
  S  S31  1  0.55850211  0.49261945  0.19830703  1
  S  S32  1  0.90155522  0.49518513  0.98050181  1
  S  S33  1  0.10059101  0.50137358  0.02157318  1
  S  S34  1  0.66721508  0.49514580  0.89354664  1
  S  S35  1  0.33168310  0.49288801  0.10219693  1
  S  S36  1  0.58802505  0.00385566  0.64841938  1
  S  S37  1  0.41297209  0.00452123  0.35303532  1
  S  S38  1  0.24309834  0.50298768  0.29538053  1
  S  S39  1  0.75670427  0.49900504  0.70809743  1
  S  S40  1  0.65791108  0.00152973  0.45003428  1
  S  S41  1  0.34156396  0.00351180  0.54617538  1
