# generated using pymatgen
data_Pr2Mn3(SbS3)4
_symmetry_space_group_name_H-M   'P 1'
_cell_length_a   20.02960800
_cell_length_b   3.90410600
_cell_length_c   14.95364829
_cell_angle_alpha   90.00000000
_cell_angle_beta   126.33350609
_cell_angle_gamma   90.00000000
_symmetry_Int_Tables_number   1
_chemical_formula_structural   Pr2Mn3(SbS3)4
_chemical_formula_sum   'Pr4 Mn6 Sb8 S24'
_cell_volume   942.00006694
_cell_formula_units_Z   2
loop_
 _symmetry_equiv_pos_site_id
 _symmetry_equiv_pos_as_xyz
  1  'x, y, z'
loop_
 _atom_site_type_symbol
 _atom_site_label
 _atom_site_symmetry_multiplicity
 _atom_site_fract_x
 _atom_site_fract_y
 _atom_site_fract_z
 _atom_site_occupancy
  Pr  Pr0  1  0.25975727  0.50092333  0.86286696  1
  Pr  Pr1  1  0.73940790  0.49664063  0.13626196  1
  Pr  Pr2  1  0.76027622  0.99360640  0.86306091  1
  Pr  Pr3  1  0.24072880  0.00021045  0.13822633  1
  Mn  Mn4  1  0.30115231  0.49794316  0.61992936  1
  Mn  Mn5  1  0.69812173  0.49908893  0.37823567  1
  Mn  Mn6  1  0.00043439  0.00148225  0.99675157  1
  Mn  Mn7  1  0.80091785  0.99612728  0.62157323  1
  Mn  Mn8  1  0.19869215  0.99984585  0.38076597  1
  Mn  Mn9  1  0.50130021  0.49363326  0.00096699  1
  Sb  Sb10  1  0.89364166  0.00532763  0.45177734  1
  Sb  Sb11  1  0.10631635  0.99765961  0.54808251  1
  Sb  Sb12  1  0.03821464  0.49954307  0.81513607  1
  Sb  Sb13  1  0.96195049  0.50080776  0.18585181  1
  Sb  Sb14  1  0.39454859  0.50265439  0.45481156  1
  Sb  Sb15  1  0.60640989  0.50008471  0.54896718  1
  Sb  Sb16  1  0.53860936  0.00254133  0.81459988  1
  Sb  Sb17  1  0.46202682  0.99733857  0.18487933  1
  S  S18  1  0.94339920  0.99782735  0.80098601  1
  S  S19  1  0.05997245  0.00611866  0.20034683  1
  S  S20  1  0.40113727  0.00095692  0.97949604  1
  S  S21  1  0.59905309  0.99922010  0.01825326  1
  S  S22  1  0.16769564  0.00268712  0.89939515  1
  S  S23  1  0.83187794  0.00984740  0.10554188  1
  S  S24  1  0.08716457  0.49966506  0.65056854  1
  S  S25  1  0.91032794  0.49116705  0.34718700  1
  S  S26  1  0.74236983  0.99986247  0.29602663  1
  S  S27  1  0.25794626  0.00454289  0.70676834  1
  S  S28  1  0.16048783  0.48840731  0.45392982  1
  S  S29  1  0.84253653  0.49854696  0.54461084  1
  S  S30  1  0.44234179  0.50007045  0.80054350  1
  S  S31  1  0.55855920  0.49049004  0.19824947  1
  S  S32  1  0.90172841  0.49458692  0.98084962  1
  S  S33  1  0.10036333  0.50128844  0.02142648  1
  S  S34  1  0.66709398  0.49388796  0.89320367  1
  S  S35  1  0.33163460  0.49323164  0.10216331  1
  S  S36  1  0.58805977  0.00437289  0.64820056  1
  S  S37  1  0.41315440  0.00594359  0.35336617  1
  S  S38  1  0.24328566  0.50276765  0.29607542  1
  S  S39  1  0.75644944  0.49822062  0.70789559  1
  S  S40  1  0.65807865  0.00137588  0.44974819  1
  S  S41  1  0.34139866  0.00399855  0.54613974  1
