# generated using pymatgen
data_Pr2Mn3(SbS3)4
_symmetry_space_group_name_H-M   'P 1'
_cell_length_a   20.02960800
_cell_length_b   3.90410600
_cell_length_c   14.95364829
_cell_angle_alpha   90.00000000
_cell_angle_beta   126.33350609
_cell_angle_gamma   90.00000000
_symmetry_Int_Tables_number   1
_chemical_formula_structural   Pr2Mn3(SbS3)4
_chemical_formula_sum   'Pr4 Mn6 Sb8 S24'
_cell_volume   942.00006694
_cell_formula_units_Z   2
loop_
 _symmetry_equiv_pos_site_id
 _symmetry_equiv_pos_as_xyz
  1  'x, y, z'
loop_
 _atom_site_type_symbol
 _atom_site_label
 _atom_site_symmetry_multiplicity
 _atom_site_fract_x
 _atom_site_fract_y
 _atom_site_fract_z
 _atom_site_occupancy
  Pr  Pr0  1  0.25967436  0.50164578  0.86279640  1
  Pr  Pr1  1  0.73938388  0.49621810  0.13619300  1
  Pr  Pr2  1  0.76043232  0.99256068  0.86318908  1
  Pr  Pr3  1  0.24086457  0.99966766  0.13854725  1
  Mn  Mn4  1  0.30108081  0.49782538  0.61980945  1
  Mn  Mn5  1  0.69777060  0.49927726  0.37812279  1
  Mn  Mn6  1  0.00046375  0.00205607  0.99640590  1
  Mn  Mn7  1  0.80093732  0.99524067  0.62137834  1
  Mn  Mn8  1  0.19869096  0.99953498  0.38110263  1
  Mn  Mn9  1  0.50135156  0.49370106  0.00136014  1
  Sb  Sb10  1  0.89364254  0.00609100  0.45180229  1
  Sb  Sb11  1  0.10635029  0.99787539  0.54821621  1
  Sb  Sb12  1  0.03815573  0.49960733  0.81517646  1
  Sb  Sb13  1  0.96204637  0.50076804  0.18601937  1
  Sb  Sb14  1  0.39452683  0.50311617  0.45498309  1
  Sb  Sb15  1  0.60642986  0.49975018  0.54914717  1
  Sb  Sb16  1  0.53857044  0.00287689  0.81450772  1
  Sb  Sb17  1  0.46212226  0.99680389  0.18485639  1
  S  S18  1  0.94344549  0.99702609  0.80079939  1
  S  S19  1  0.06034284  0.00700329  0.20060451  1
  S  S20  1  0.40143484  0.00090842  0.97981859  1
  S  S21  1  0.59882049  0.99863055  0.01779718  1
  S  S22  1  0.16757546  0.00435311  0.89996231  1
  S  S23  1  0.83187647  0.01007459  0.10558913  1
  S  S24  1  0.08691148  0.50040055  0.65060155  1
  S  S25  1  0.91033024  0.48985784  0.34701536  1
  S  S26  1  0.74227983  0.00091706  0.29622127  1
  S  S27  1  0.25818231  0.00545683  0.70657708  1
  S  S28  1  0.16107535  0.48699597  0.45427867  1
  S  S29  1  0.84251521  0.49893901  0.54442203  1
  S  S30  1  0.44225321  0.49884496  0.80052993  1
  S  S31  1  0.55869559  0.48882657  0.19828740  1
  S  S32  1  0.90192900  0.49362035  0.98132951  1
  S  S33  1  0.10023343  0.50103307  0.02146622  1
  S  S34  1  0.66695139  0.49270173  0.89309259  1
  S  S35  1  0.33163778  0.49371642  0.10237616  1
  S  S36  1  0.58806498  0.00455316  0.64814420  1
  S  S37  1  0.41337000  0.00684399  0.35364458  1
  S  S38  1  0.24342718  0.50246509  0.29666744  1
  S  S39  1  0.75631289  0.49740485  0.70774308  1
  S  S40  1  0.65834800  0.00144208  0.44949029  1
  S  S41  1  0.34122714  0.00482081  0.54598829  1
