# generated using pymatgen
data_Pr2Mn3(SbS3)4
_symmetry_space_group_name_H-M   'P 1'
_cell_length_a   20.02960800
_cell_length_b   3.90410600
_cell_length_c   14.95364829
_cell_angle_alpha   90.00000000
_cell_angle_beta   126.33350609
_cell_angle_gamma   90.00000000
_symmetry_Int_Tables_number   1
_chemical_formula_structural   Pr2Mn3(SbS3)4
_chemical_formula_sum   'Pr4 Mn6 Sb8 S24'
_cell_volume   942.00006694
_cell_formula_units_Z   2
loop_
 _symmetry_equiv_pos_site_id
 _symmetry_equiv_pos_as_xyz
  1  'x, y, z'
loop_
 _atom_site_type_symbol
 _atom_site_label
 _atom_site_symmetry_multiplicity
 _atom_site_fract_x
 _atom_site_fract_y
 _atom_site_fract_z
 _atom_site_occupancy
  Pr  Pr0  1  0.25959012  0.50206237  0.86270863  1
  Pr  Pr1  1  0.73945064  0.49569336  0.13617216  1
  Pr  Pr2  1  0.76057240  0.99146877  0.86328913  1
  Pr  Pr3  1  0.24103815  0.99948894  0.13887789  1
  Mn  Mn4  1  0.30086194  0.49772022  0.61965397  1
  Mn  Mn5  1  0.69743368  0.49942501  0.37827125  1
  Mn  Mn6  1  0.00065607  0.00256381  0.99623392  1
  Mn  Mn7  1  0.80105083  0.99461629  0.62129199  1
  Mn  Mn8  1  0.19856753  0.99947833  0.38124073  1
  Mn  Mn9  1  0.50135552  0.49351423  0.00155337  1
  Sb  Sb10  1  0.89362863  0.00689539  0.45183376  1
  Sb  Sb11  1  0.10632928  0.99814974  0.54829975  1
  Sb  Sb12  1  0.03812051  0.49941769  0.81525189  1
  Sb  Sb13  1  0.96223016  0.50102414  0.18623575  1
  Sb  Sb14  1  0.39454258  0.50357977  0.45514359  1
  Sb  Sb15  1  0.60640585  0.49947383  0.54933362  1
  Sb  Sb16  1  0.53855332  0.00308524  0.81454530  1
  Sb  Sb17  1  0.46223810  0.99644390  0.18486377  1
  S  S18  1  0.94338395  0.99614765  0.80053510  1
  S  S19  1  0.06069492  0.00752213  0.20068046  1
  S  S20  1  0.40146281  0.00062673  0.97988948  1
  S  S21  1  0.59869791  0.99752111  0.01757354  1
  S  S22  1  0.16744763  0.00595018  0.90036220  1
  S  S23  1  0.83186470  0.01031287  0.10570366  1
  S  S24  1  0.08661097  0.50098231  0.65064393  1
  S  S25  1  0.91037047  0.48857235  0.34697592  1
  S  S26  1  0.74219046  0.00173783  0.29661384  1
  S  S27  1  0.25836852  0.00676132  0.70630332  1
  S  S28  1  0.16175699  0.48500765  0.45478217  1
  S  S29  1  0.84236413  0.49968675  0.54419802  1
  S  S30  1  0.44221200  0.49733976  0.80048088  1
  S  S31  1  0.55873654  0.48718525  0.19838127  1
  S  S32  1  0.90214449  0.49225771  0.98169473  1
  S  S33  1  0.10016636  0.50119038  0.02163018  1
  S  S34  1  0.66702823  0.49192200  0.89318989  1
  S  S35  1  0.33155800  0.49426078  0.10248626  1
  S  S36  1  0.58791732  0.00449431  0.64800105  1
  S  S37  1  0.41352883  0.00697986  0.35399116  1
  S  S38  1  0.24357439  0.50217739  0.29727223  1
  S  S39  1  0.75627991  0.49679233  0.70762562  1
  S  S40  1  0.65861486  0.00170844  0.44925879  1
  S  S41  1  0.34109106  0.00579587  0.54582912  1
