# generated using pymatgen
data_Pr2Mn3(SbS3)4
_symmetry_space_group_name_H-M   'P 1'
_cell_length_a   20.02960800
_cell_length_b   3.90410600
_cell_length_c   14.95364829
_cell_angle_alpha   90.00000000
_cell_angle_beta   126.33350609
_cell_angle_gamma   90.00000000
_symmetry_Int_Tables_number   1
_chemical_formula_structural   Pr2Mn3(SbS3)4
_chemical_formula_sum   'Pr4 Mn6 Sb8 S24'
_cell_volume   942.00006694
_cell_formula_units_Z   2
loop_
 _symmetry_equiv_pos_site_id
 _symmetry_equiv_pos_as_xyz
  1  'x, y, z'
loop_
 _atom_site_type_symbol
 _atom_site_label
 _atom_site_symmetry_multiplicity
 _atom_site_fract_x
 _atom_site_fract_y
 _atom_site_fract_z
 _atom_site_occupancy
  Pr  Pr0  1  0.26685664  0.48863749  0.86403632  1
  Pr  Pr1  1  0.73641106  0.51218166  0.13682576  1
  Pr  Pr2  1  0.76264956  0.01130576  0.86162613  1
  Pr  Pr3  1  0.23539120  0.00520231  0.13598293  1
  Mn  Mn4  1  0.28823607  0.47817781  0.59436397  1
  Mn  Mn5  1  0.68871709  0.49074131  0.37180329  1
  Mn  Mn6  1  0.00819378  0.98785056  0.01980300  1
  Mn  Mn7  1  0.80573634  0.00980218  0.61840016  1
  Mn  Mn8  1  0.19860113  0.98242677  0.37675341  1
  Mn  Mn9  1  0.49297620  0.47823042  0.98999238  1
  Sb  Sb10  1  0.88984319  0.98522105  0.45005571  1
  Sb  Sb11  1  0.11187598  0.97685814  0.54670516  1
  Sb  Sb12  1  0.04046583  0.52235479  0.82262370  1
  Sb  Sb13  1  0.96332252  0.49838248  0.18319952  1
  Sb  Sb14  1  0.39568099  0.50610361  0.45091354  1
  Sb  Sb15  1  0.60583887  0.47509362  0.54741335  1
  Sb  Sb16  1  0.53269803  0.99826335  0.80790987  1
  Sb  Sb17  1  0.46374276  0.01642110  0.18678408  1
  S  S18  1  0.93735338  0.99828568  0.80438083  1
  S  S19  1  0.06500972  0.98447484  0.20061604  1
  S  S20  1  0.41146894  0.97600526  0.98076764  1
  S  S21  1  0.57763051  0.01095404  0.00940879  1
  S  S22  1  0.17242424  0.03166204  0.90283222  1
  S  S23  1  0.82353914  0.04857219  0.09528956  1
  S  S24  1  0.09645006  0.48130102  0.64679853  1
  S  S25  1  0.91110735  0.48607179  0.35341542  1
  S  S26  1  0.74022329  0.94542678  0.30217909  1
  S  S27  1  0.26435456  0.00511254  0.70911432  1
  S  S28  1  0.15878000  0.48346118  0.42738095  1
  S  S29  1  0.82453632  0.48939657  0.54829989  1
  S  S30  1  0.43231610  0.49840846  0.79934796  1
  S  S31  1  0.55668566  0.51320051  0.18473995  1
  S  S32  1  0.90962860  0.48027952  0.98610944  1
  S  S33  1  0.09202425  0.47334077  0.02703411  1
  S  S34  1  0.66368233  0.50711302  0.88493888  1
  S  S35  1  0.33205823  0.50653372  0.09906314  1
  S  S36  1  0.59740191  0.98423471  0.65506136  1
  S  S37  1  0.40455630  0.98812084  0.34936578  1
  S  S38  1  0.23892702  0.46159044  0.30767460  1
  S  S39  1  0.76175255  0.49643133  0.69696063  1
  S  S40  1  0.66766261  0.02618609  0.45280623  1
  S  S41  1  0.32512401  0.97625243  0.55163316  1
