# generated using pymatgen
data_Pr2Mn3(SbS3)4
_symmetry_space_group_name_H-M   'P 1'
_cell_length_a   20.02960800
_cell_length_b   3.90410600
_cell_length_c   14.95364829
_cell_angle_alpha   90.00000000
_cell_angle_beta   126.33350609
_cell_angle_gamma   90.00000000
_symmetry_Int_Tables_number   1
_chemical_formula_structural   Pr2Mn3(SbS3)4
_chemical_formula_sum   'Pr4 Mn6 Sb8 S24'
_cell_volume   942.00006694
_cell_formula_units_Z   2
loop_
 _symmetry_equiv_pos_site_id
 _symmetry_equiv_pos_as_xyz
  1  'x, y, z'
loop_
 _atom_site_type_symbol
 _atom_site_label
 _atom_site_symmetry_multiplicity
 _atom_site_fract_x
 _atom_site_fract_y
 _atom_site_fract_z
 _atom_site_occupancy
  Pr  Pr0  1  0.25947758  0.50224419  0.86260413  1
  Pr  Pr1  1  0.73951107  0.49518587  0.13614566  1
  Pr  Pr2  1  0.76081068  0.99029527  0.86344846  1
  Pr  Pr3  1  0.24128515  0.99942271  0.13921882  1
  Mn  Mn4  1  0.30071789  0.49812077  0.61956286  1
  Mn  Mn5  1  0.69728341  0.49977866  0.37860010  1
  Mn  Mn6  1  0.00093689  0.00304695  0.99615363  1
  Mn  Mn7  1  0.80131174  0.99455911  0.62140944  1
  Mn  Mn8  1  0.19847653  0.99899760  0.38142178  1
  Mn  Mn9  1  0.50147794  0.49351329  0.00190063  1
  Sb  Sb10  1  0.89363296  0.00761093  0.45183636  1
  Sb  Sb11  1  0.10628053  0.99834914  0.54831477  1
  Sb  Sb12  1  0.03804178  0.49933463  0.81520983  1
  Sb  Sb13  1  0.96236354  0.50119889  0.18638466  1
  Sb  Sb14  1  0.39460309  0.50418726  0.45538569  1
  Sb  Sb15  1  0.60632411  0.49941022  0.54952878  1
  Sb  Sb16  1  0.53850382  0.00283309  0.81457948  1
  Sb  Sb17  1  0.46240980  0.99601753  0.18499688  1
  S  S18  1  0.94327731  0.99484035  0.80038428  1
  S  S19  1  0.06108230  0.00823287  0.20083765  1
  S  S20  1  0.40160321  0.99958022  0.98004451  1
  S  S21  1  0.59855658  0.99688175  0.01732652  1
  S  S22  1  0.16737560  0.00698559  0.90062362  1
  S  S23  1  0.83201844  0.01042485  0.10567647  1
  S  S24  1  0.08631163  0.50088011  0.65076430  1
  S  S25  1  0.91042632  0.48709527  0.34700961  1
  S  S26  1  0.74213239  0.00379985  0.29710824  1
  S  S27  1  0.25863861  0.00737883  0.70612960  1
  S  S28  1  0.16246935  0.48332567  0.45536904  1
  S  S29  1  0.84228483  0.50072018  0.54390639  1
  S  S30  1  0.44217104  0.49577539  0.80022995  1
  S  S31  1  0.55875423  0.48501668  0.19835615  1
  S  S32  1  0.90242246  0.49087918  0.98207595  1
  S  S33  1  0.10014146  0.50096490  0.02199791  1
  S  S34  1  0.66699905  0.49138691  0.89330041  1
  S  S35  1  0.33151353  0.49448626  0.10254901  1
  S  S36  1  0.58776193  0.00477360  0.64784981  1
  S  S37  1  0.41365664  0.00782026  0.35462394  1
  S  S38  1  0.24384831  0.50208368  0.29792578  1
  S  S39  1  0.75634466  0.49655211  0.70748621  1
  S  S40  1  0.65884599  0.00236705  0.44899496  1
  S  S41  1  0.34112069  0.00725168  0.54581784  1
