# generated using pymatgen
data_Pr2Mn3(SbS3)4
_symmetry_space_group_name_H-M   'P 1'
_cell_length_a   20.02960800
_cell_length_b   3.90410600
_cell_length_c   14.95364829
_cell_angle_alpha   90.00000000
_cell_angle_beta   126.33350609
_cell_angle_gamma   90.00000000
_symmetry_Int_Tables_number   1
_chemical_formula_structural   Pr2Mn3(SbS3)4
_chemical_formula_sum   'Pr4 Mn6 Sb8 S24'
_cell_volume   942.00006694
_cell_formula_units_Z   2
loop_
 _symmetry_equiv_pos_site_id
 _symmetry_equiv_pos_as_xyz
  1  'x, y, z'
loop_
 _atom_site_type_symbol
 _atom_site_label
 _atom_site_symmetry_multiplicity
 _atom_site_fract_x
 _atom_site_fract_y
 _atom_site_fract_z
 _atom_site_occupancy
  Pr  Pr0  1  0.25928688  0.50247095  0.86244275  1
  Pr  Pr1  1  0.73955407  0.49499345  0.13611231  1
  Pr  Pr2  1  0.76099537  0.98928684  0.86358591  1
  Pr  Pr3  1  0.24146761  0.99927009  0.13942140  1
  Mn  Mn4  1  0.30057697  0.49897074  0.61939611  1
  Mn  Mn5  1  0.69708449  0.50006411  0.37891058  1
  Mn  Mn6  1  0.00120865  0.00348480  0.99617603  1
  Mn  Mn7  1  0.80142623  0.99411833  0.62143692  1
  Mn  Mn8  1  0.19845722  0.99887087  0.38163986  1
  Mn  Mn9  1  0.50156156  0.49270764  0.00202177  1
  Sb  Sb10  1  0.89351023  0.00850795  0.45181860  1
  Sb  Sb11  1  0.10623155  0.99877504  0.54835841  1
  Sb  Sb12  1  0.03794974  0.49923768  0.81511967  1
  Sb  Sb13  1  0.96258666  0.50116597  0.18659924  1
  Sb  Sb14  1  0.39459536  0.50452207  0.45565050  1
  Sb  Sb15  1  0.60624168  0.49936785  0.54973793  1
  Sb  Sb16  1  0.53849627  0.00254110  0.81464628  1
  Sb  Sb17  1  0.46252811  0.99559489  0.18516626  1
  S  S18  1  0.94317441  0.99331009  0.80049956  1
  S  S19  1  0.06141889  0.00920906  0.20120269  1
  S  S20  1  0.40163116  0.99925053  0.98017336  1
  S  S21  1  0.59837207  0.99595042  0.01703172  1
  S  S22  1  0.16711563  0.00753530  0.90078474  1
  S  S23  1  0.83207532  0.01022627  0.10532759  1
  S  S24  1  0.08593625  0.50069689  0.65074209  1
  S  S25  1  0.91021499  0.48634201  0.34687854  1
  S  S26  1  0.74208726  0.00568615  0.29762834  1
  S  S27  1  0.25891476  0.00773481  0.70602226  1
  S  S28  1  0.16290631  0.48131543  0.45567772  1
  S  S29  1  0.84222017  0.50123946  0.54372625  1
  S  S30  1  0.44203591  0.49399424  0.79985884  1
  S  S31  1  0.55866181  0.48305656  0.19818084  1
  S  S32  1  0.90265634  0.49035945  0.98245083  1
  S  S33  1  0.10008669  0.50127215  0.02230047  1
  S  S34  1  0.66685028  0.49128811  0.89324575  1
  S  S35  1  0.33145053  0.49451570  0.10269381  1
  S  S36  1  0.58759777  0.00453407  0.64766715  1
  S  S37  1  0.41399842  0.00829306  0.35542651  1
  S  S38  1  0.24397306  0.50218736  0.29839400  1
  S  S39  1  0.75637085  0.49644822  0.70730389  1
  S  S40  1  0.65906428  0.00329623  0.44868542  1
  S  S41  1  0.34106168  0.00792951  0.54567597  1
