# generated using pymatgen
data_Pr2Mn3(SbS3)4
_symmetry_space_group_name_H-M   'P 1'
_cell_length_a   20.02960800
_cell_length_b   3.90410600
_cell_length_c   14.95364829
_cell_angle_alpha   90.00000000
_cell_angle_beta   126.33350609
_cell_angle_gamma   90.00000000
_symmetry_Int_Tables_number   1
_chemical_formula_structural   Pr2Mn3(SbS3)4
_chemical_formula_sum   'Pr4 Mn6 Sb8 S24'
_cell_volume   942.00006694
_cell_formula_units_Z   2
loop_
 _symmetry_equiv_pos_site_id
 _symmetry_equiv_pos_as_xyz
  1  'x, y, z'
loop_
 _atom_site_type_symbol
 _atom_site_label
 _atom_site_symmetry_multiplicity
 _atom_site_fract_x
 _atom_site_fract_y
 _atom_site_fract_z
 _atom_site_occupancy
  Pr  Pr0  1  0.25907076  0.50259883  0.86219704  1
  Pr  Pr1  1  0.73955740  0.49509750  0.13605704  1
  Pr  Pr2  1  0.76107524  0.98827512  0.86361017  1
  Pr  Pr3  1  0.24168189  0.99908668  0.13962022  1
  Mn  Mn4  1  0.30035472  0.49962326  0.61910765  1
  Mn  Mn5  1  0.69695631  0.49977626  0.37909775  1
  Mn  Mn6  1  0.00130130  0.00450798  0.99600112  1
  Mn  Mn7  1  0.80157936  0.99378142  0.62157792  1
  Mn  Mn8  1  0.19836770  0.99843404  0.38172234  1
  Mn  Mn9  1  0.50162994  0.49207665  0.00218618  1
  Sb  Sb10  1  0.89339084  0.00930812  0.45179649  1
  Sb  Sb11  1  0.10620359  0.99897182  0.54843958  1
  Sb  Sb12  1  0.03785619  0.49919282  0.81508978  1
  Sb  Sb13  1  0.96286576  0.50161121  0.18685098  1
  Sb  Sb14  1  0.39459936  0.50491439  0.45594115  1
  Sb  Sb15  1  0.60625446  0.49937224  0.54996570  1
  Sb  Sb16  1  0.53846461  0.00230740  0.81470851  1
  Sb  Sb17  1  0.46258799  0.99521035  0.18523083  1
  S  S18  1  0.94316247  0.99244982  0.80059462  1
  S  S19  1  0.06186743  0.01035316  0.20179151  1
  S  S20  1  0.40175590  0.99952750  0.98031266  1
  S  S21  1  0.59827766  0.99522458  0.01673386  1
  S  S22  1  0.16691537  0.00808732  0.90076767  1
  S  S23  1  0.83209160  0.00983078  0.10498155  1
  S  S24  1  0.08542770  0.50115146  0.65047037  1
  S  S25  1  0.91008725  0.48569503  0.34684513  1
  S  S26  1  0.74197096  0.00697550  0.29808855  1
  S  S27  1  0.25911119  0.00820389  0.70589456  1
  S  S28  1  0.16339752  0.47880110  0.45602168  1
  S  S29  1  0.84207159  0.50318634  0.54362071  1
  S  S30  1  0.44194009  0.49206572  0.79952372  1
  S  S31  1  0.55856082  0.48048278  0.19798492  1
  S  S32  1  0.90286712  0.49047276  0.98275124  1
  S  S33  1  0.09989044  0.50207040  0.02238733  1
  S  S34  1  0.66675503  0.49075370  0.89329393  1
  S  S35  1  0.33120795  0.49394403  0.10272391  1
  S  S36  1  0.58745480  0.00400422  0.64741715  1
  S  S37  1  0.41433473  0.00874014  0.35622009  1
  S  S38  1  0.24392114  0.50159748  0.29856381  1
  S  S39  1  0.75639680  0.49610082  0.70717822  1
  S  S40  1  0.65932406  0.00448200  0.44822618  1
  S  S41  1  0.34109819  0.00789243  0.54567054  1
