# generated using pymatgen
data_Pr2Mn3(SbS3)4
_symmetry_space_group_name_H-M   'P 1'
_cell_length_a   20.02960800
_cell_length_b   3.90410600
_cell_length_c   14.95364829
_cell_angle_alpha   90.00000000
_cell_angle_beta   126.33350609
_cell_angle_gamma   90.00000000
_symmetry_Int_Tables_number   1
_chemical_formula_structural   Pr2Mn3(SbS3)4
_chemical_formula_sum   'Pr4 Mn6 Sb8 S24'
_cell_volume   942.00006694
_cell_formula_units_Z   2
loop_
 _symmetry_equiv_pos_site_id
 _symmetry_equiv_pos_as_xyz
  1  'x, y, z'
loop_
 _atom_site_type_symbol
 _atom_site_label
 _atom_site_symmetry_multiplicity
 _atom_site_fract_x
 _atom_site_fract_y
 _atom_site_fract_z
 _atom_site_occupancy
  Pr  Pr0  1  0.25890860  0.50265281  0.86194384  1
  Pr  Pr1  1  0.73950327  0.49531778  0.13603367  1
  Pr  Pr2  1  0.76113506  0.98728535  0.86361961  1
  Pr  Pr3  1  0.24182921  0.99874261  0.13974288  1
  Mn  Mn4  1  0.30002321  0.50062481  0.61873391  1
  Mn  Mn5  1  0.69669367  0.49894597  0.37909405  1
  Mn  Mn6  1  0.00139252  0.00555981  0.99583500  1
  Mn  Mn7  1  0.80178000  0.99331284  0.62186776  1
  Mn  Mn8  1  0.19817628  0.99820598  0.38165022  1
  Mn  Mn9  1  0.50170781  0.49155468  0.00239150  1
  Sb  Sb10  1  0.89326562  0.01016356  0.45172980  1
  Sb  Sb11  1  0.10618871  0.99898761  0.54845019  1
  Sb  Sb12  1  0.03777653  0.49944757  0.81501841  1
  Sb  Sb13  1  0.96319263  0.50224938  0.18725726  1
  Sb  Sb14  1  0.39463536  0.50486955  0.45627093  1
  Sb  Sb15  1  0.60622635  0.49931170  0.55015871  1
  Sb  Sb16  1  0.53843776  0.00217224  0.81478230  1
  Sb  Sb17  1  0.46268040  0.99469694  0.18533818  1
  S  S18  1  0.94308495  0.99119840  0.80059413  1
  S  S19  1  0.06228230  0.01151365  0.20235233  1
  S  S20  1  0.40196042  0.99968771  0.98039095  1
  S  S21  1  0.59816179  0.99438470  0.01634557  1
  S  S22  1  0.16670885  0.00854748  0.90069960  1
  S  S23  1  0.83214347  0.00981573  0.10479660  1
  S  S24  1  0.08507659  0.50082727  0.65025517  1
  S  S25  1  0.91013749  0.48554278  0.34694836  1
  S  S26  1  0.74192483  0.00823839  0.29850275  1
  S  S27  1  0.25928061  0.00886935  0.70570297  1
  S  S28  1  0.16376388  0.47668884  0.45619752  1
  S  S29  1  0.84186330  0.50454939  0.54350514  1
  S  S30  1  0.44193295  0.49056554  0.79917676  1
  S  S31  1  0.55850762  0.47843322  0.19786574  1
  S  S32  1  0.90308313  0.49080425  0.98316191  1
  S  S33  1  0.09970316  0.50259047  0.02247344  1
  S  S34  1  0.66664458  0.49003651  0.89315871  1
  S  S35  1  0.33095845  0.49359499  0.10263785  1
  S  S36  1  0.58730563  0.00381385  0.64713864  1
  S  S37  1  0.41476010  0.00887586  0.35711103  1
  S  S38  1  0.24384836  0.50028592  0.29858946  1
  S  S39  1  0.75638981  0.49515217  0.70716382  1
  S  S40  1  0.65951455  0.00588770  0.44793115  1
  S  S41  1  0.34109493  0.00728918  0.54563616  1
