# generated using pymatgen
data_Pr2Mn3(SbS3)4
_symmetry_space_group_name_H-M   'P 1'
_cell_length_a   20.02960800
_cell_length_b   3.90410600
_cell_length_c   14.95364829
_cell_angle_alpha   90.00000000
_cell_angle_beta   126.33350609
_cell_angle_gamma   90.00000000
_symmetry_Int_Tables_number   1
_chemical_formula_structural   Pr2Mn3(SbS3)4
_chemical_formula_sum   'Pr4 Mn6 Sb8 S24'
_cell_volume   942.00006694
_cell_formula_units_Z   2
loop_
 _symmetry_equiv_pos_site_id
 _symmetry_equiv_pos_as_xyz
  1  'x, y, z'
loop_
 _atom_site_type_symbol
 _atom_site_label
 _atom_site_symmetry_multiplicity
 _atom_site_fract_x
 _atom_site_fract_y
 _atom_site_fract_z
 _atom_site_occupancy
  Pr  Pr0  1  0.25879794  0.50280079  0.86160158  1
  Pr  Pr1  1  0.73946038  0.49527696  0.13603187  1
  Pr  Pr2  1  0.76122024  0.98602498  0.86360781  1
  Pr  Pr3  1  0.24197739  0.99831531  0.13993620  1
  Mn  Mn4  1  0.29971850  0.50149528  0.61833966  1
  Mn  Mn5  1  0.69653879  0.49842202  0.37914204  1
  Mn  Mn6  1  0.00158702  0.00643007  0.99579658  1
  Mn  Mn7  1  0.80195209  0.99299760  0.62206101  1
  Mn  Mn8  1  0.19799959  0.99769693  0.38178549  1
  Mn  Mn9  1  0.50178981  0.49120110  0.00253913  1
  Sb  Sb10  1  0.89314833  0.01086507  0.45170438  1
  Sb  Sb11  1  0.10627869  0.99891272  0.54854551  1
  Sb  Sb12  1  0.03764335  0.49984950  0.81488679  1
  Sb  Sb13  1  0.96361169  0.50264696  0.18779487  1
  Sb  Sb14  1  0.39466650  0.50511324  0.45650907  1
  Sb  Sb15  1  0.60616911  0.49899635  0.55027715  1
  Sb  Sb16  1  0.53838777  0.00199593  0.81473605  1
  Sb  Sb17  1  0.46274352  0.99422417  0.18538565  1
  S  S18  1  0.94295259  0.98987722  0.80048750  1
  S  S19  1  0.06257960  0.01244133  0.20260825  1
  S  S20  1  0.40226972  0.99982669  0.98063125  1
  S  S21  1  0.59794791  0.99331277  0.01602133  1
  S  S22  1  0.16651924  0.00855906  0.90069561  1
  S  S23  1  0.83201949  0.00985840  0.10444150  1
  S  S24  1  0.08469756  0.50063931  0.65002896  1
  S  S25  1  0.91035248  0.48552366  0.34699581  1
  S  S26  1  0.74191264  0.00924702  0.29877906  1
  S  S27  1  0.25964560  0.00932056  0.70572782  1
  S  S28  1  0.16414747  0.47496161  0.45635750  1
  S  S29  1  0.84167285  0.50586297  0.54330435  1
  S  S30  1  0.44193221  0.48929907  0.79883811  1
  S  S31  1  0.55833824  0.47611601  0.19753772  1
  S  S32  1  0.90345474  0.49106610  0.98382520  1
  S  S33  1  0.09947229  0.50234857  0.02261491  1
  S  S34  1  0.66635849  0.48902837  0.89292183  1
  S  S35  1  0.33077564  0.49361670  0.10249721  1
  S  S36  1  0.58715799  0.00383578  0.64700875  1
  S  S37  1  0.41518318  0.00945317  0.35800952  1
  S  S38  1  0.24370450  0.49891437  0.29861340  1
  S  S39  1  0.75640997  0.49428027  0.70710430  1
  S  S40  1  0.65974329  0.00714065  0.44782723  1
  S  S41  1  0.34103509  0.00660604  0.54543107  1
