# generated using pymatgen
data_Pr2Mn3(SbS3)4
_symmetry_space_group_name_H-M   'P 1'
_cell_length_a   20.02960800
_cell_length_b   3.90410600
_cell_length_c   14.95364829
_cell_angle_alpha   90.00000000
_cell_angle_beta   126.33350609
_cell_angle_gamma   90.00000000
_symmetry_Int_Tables_number   1
_chemical_formula_structural   Pr2Mn3(SbS3)4
_chemical_formula_sum   'Pr4 Mn6 Sb8 S24'
_cell_volume   942.00006694
_cell_formula_units_Z   2
loop_
 _symmetry_equiv_pos_site_id
 _symmetry_equiv_pos_as_xyz
  1  'x, y, z'
loop_
 _atom_site_type_symbol
 _atom_site_label
 _atom_site_symmetry_multiplicity
 _atom_site_fract_x
 _atom_site_fract_y
 _atom_site_fract_z
 _atom_site_occupancy
  Pr  Pr0  1  0.25873836  0.50278144  0.86130507  1
  Pr  Pr1  1  0.73934403  0.49501100  0.13606098  1
  Pr  Pr2  1  0.76136519  0.98494020  0.86362954  1
  Pr  Pr3  1  0.24217531  0.99796196  0.14024465  1
  Mn  Mn4  1  0.29937219  0.50235482  0.61784796  1
  Mn  Mn5  1  0.69646821  0.49814113  0.37933546  1
  Mn  Mn6  1  0.00169538  0.00733448  0.99577469  1
  Mn  Mn7  1  0.80212685  0.99266619  0.62226883  1
  Mn  Mn8  1  0.19791441  0.99689265  0.38207325  1
  Mn  Mn9  1  0.50185228  0.49062600  0.00265966  1
  Sb  Sb10  1  0.89300915  0.01122831  0.45160155  1
  Sb  Sb11  1  0.10634330  0.99870521  0.54864589  1
  Sb  Sb12  1  0.03752654  0.50058548  0.81481217  1
  Sb  Sb13  1  0.96398030  0.50309990  0.18835761  1
  Sb  Sb14  1  0.39459117  0.50498086  0.45674245  1
  Sb  Sb15  1  0.60613983  0.49836392  0.55046860  1
  Sb  Sb16  1  0.53831348  0.00172193  0.81463383  1
  Sb  Sb17  1  0.46287690  0.99399623  0.18549565  1
  S  S18  1  0.94283126  0.98908913  0.80029699  1
  S  S19  1  0.06296695  0.01292957  0.20274996  1
  S  S20  1  0.40270985  0.00072319  0.98075742  1
  S  S21  1  0.59796146  0.99270365  0.01599965  1
  S  S22  1  0.16608987  0.00779138  0.90056047  1
  S  S23  1  0.83185728  0.00937388  0.10412642  1
  S  S24  1  0.08421598  0.50060455  0.64970876  1
  S  S25  1  0.91054605  0.48539922  0.34705587  1
  S  S26  1  0.74200591  0.01001744  0.29895972  1
  S  S27  1  0.25995601  0.01034384  0.70594529  1
  S  S28  1  0.16441202  0.47316927  0.45643595  1
  S  S29  1  0.84152922  0.50692873  0.54308680  1
  S  S30  1  0.44196320  0.48766556  0.79875608  1
  S  S31  1  0.55821527  0.47376819  0.19719229  1
  S  S32  1  0.90381105  0.49152832  0.98441255  1
  S  S33  1  0.09918023  0.50240259  0.02275184  1
  S  S34  1  0.66601635  0.48797167  0.89258524  1
  S  S35  1  0.33065597  0.49395902  0.10251201  1
  S  S36  1  0.58690441  0.00372310  0.64677594  1
  S  S37  1  0.41557177  0.01005284  0.35868250  1
  S  S38  1  0.24352860  0.49771288  0.29875393  1
  S  S39  1  0.75638399  0.49368180  0.70709015  1
  S  S40  1  0.66007881  0.00791269  0.44787158  1
  S  S41  1  0.34087850  0.00606829  0.54516727  1
