# generated using pymatgen
data_Pr2Mn3(SbS3)4
_symmetry_space_group_name_H-M   'P 1'
_cell_length_a   20.02960800
_cell_length_b   3.90410600
_cell_length_c   14.95364829
_cell_angle_alpha   90.00000000
_cell_angle_beta   126.33350609
_cell_angle_gamma   90.00000000
_symmetry_Int_Tables_number   1
_chemical_formula_structural   Pr2Mn3(SbS3)4
_chemical_formula_sum   'Pr4 Mn6 Sb8 S24'
_cell_volume   942.00006694
_cell_formula_units_Z   2
loop_
 _symmetry_equiv_pos_site_id
 _symmetry_equiv_pos_as_xyz
  1  'x, y, z'
loop_
 _atom_site_type_symbol
 _atom_site_label
 _atom_site_symmetry_multiplicity
 _atom_site_fract_x
 _atom_site_fract_y
 _atom_site_fract_z
 _atom_site_occupancy
  Pr  Pr0  1  0.25871413  0.50273502  0.86096381  1
  Pr  Pr1  1  0.73915405  0.49504637  0.13594788  1
  Pr  Pr2  1  0.76147247  0.98378068  0.86365973  1
  Pr  Pr3  1  0.24237666  0.99762044  0.14059501  1
  Mn  Mn4  1  0.29913937  0.50277249  0.61756145  1
  Mn  Mn5  1  0.69644404  0.49790194  0.37952911  1
  Mn  Mn6  1  0.00180128  0.00821713  0.99585263  1
  Mn  Mn7  1  0.80221977  0.99264713  0.62236621  1
  Mn  Mn8  1  0.19777602  0.99621620  0.38231307  1
  Mn  Mn9  1  0.50183295  0.49091377  0.00273363  1
  Sb  Sb10  1  0.89291822  0.01191113  0.45146494  1
  Sb  Sb11  1  0.10645004  0.99865048  0.54876427  1
  Sb  Sb12  1  0.03744683  0.50133218  0.81480569  1
  Sb  Sb13  1  0.96421852  0.50346810  0.18871610  1
  Sb  Sb14  1  0.39451874  0.50479357  0.45696266  1
  Sb  Sb15  1  0.60613540  0.49762564  0.55069551  1
  Sb  Sb16  1  0.53824484  0.00175090  0.81464095  1
  Sb  Sb17  1  0.46306136  0.99371455  0.18565938  1
  S  S18  1  0.94258304  0.98769499  0.80002058  1
  S  S19  1  0.06359221  0.01347721  0.20314619  1
  S  S20  1  0.40296957  0.00231496  0.98072229  1
  S  S21  1  0.59803430  0.99196452  0.01601911  1
  S  S22  1  0.16570890  0.00743733  0.90047826  1
  S  S23  1  0.83188070  0.00978895  0.10406565  1
  S  S24  1  0.08394139  0.50070950  0.64970158  1
  S  S25  1  0.91070875  0.48497021  0.34727228  1
  S  S26  1  0.74203356  0.01050446  0.29896050  1
  S  S27  1  0.26012916  0.01125677  0.70603174  1
  S  S28  1  0.16465046  0.47178161  0.45668530  1
  S  S29  1  0.84126535  0.50847418  0.54283008  1
  S  S30  1  0.44201391  0.48607021  0.79874397  1
  S  S31  1  0.55814523  0.47194792  0.19690600  1
  S  S32  1  0.90416462  0.49234048  0.98508751  1
  S  S33  1  0.09882320  0.50272651  0.02278807  1
  S  S34  1  0.66562339  0.48673106  0.89201577  1
  S  S35  1  0.33052532  0.49481569  0.10245693  1
  S  S36  1  0.58670394  0.00369431  0.64657339  1
  S  S37  1  0.41597187  0.01086711  0.35929652  1
  S  S38  1  0.24328132  0.49667650  0.29874058  1
  S  S39  1  0.75640049  0.49353174  0.70708864  1
  S  S40  1  0.66027231  0.00897649  0.44790616  1
  S  S41  1  0.34073732  0.00485192  0.54476465  1
