# generated using pymatgen
data_Pr2Mn3(SbS3)4
_symmetry_space_group_name_H-M   'P 1'
_cell_length_a   20.02960800
_cell_length_b   3.90410600
_cell_length_c   14.95364829
_cell_angle_alpha   90.00000000
_cell_angle_beta   126.33350609
_cell_angle_gamma   90.00000000
_symmetry_Int_Tables_number   1
_chemical_formula_structural   Pr2Mn3(SbS3)4
_chemical_formula_sum   'Pr4 Mn6 Sb8 S24'
_cell_volume   942.00006694
_cell_formula_units_Z   2
loop_
 _symmetry_equiv_pos_site_id
 _symmetry_equiv_pos_as_xyz
  1  'x, y, z'
loop_
 _atom_site_type_symbol
 _atom_site_label
 _atom_site_symmetry_multiplicity
 _atom_site_fract_x
 _atom_site_fract_y
 _atom_site_fract_z
 _atom_site_occupancy
  Pr  Pr0  1  0.25870666  0.50279181  0.86071799  1
  Pr  Pr1  1  0.73897609  0.49499427  0.13582901  1
  Pr  Pr2  1  0.76166725  0.98262840  0.86377615  1
  Pr  Pr3  1  0.24264101  0.99734478  0.14101176  1
  Mn  Mn4  1  0.29901864  0.50309277  0.61740925  1
  Mn  Mn5  1  0.69652695  0.49766239  0.37969835  1
  Mn  Mn6  1  0.00185840  0.00884880  0.99601862  1
  Mn  Mn7  1  0.80231066  0.99227619  0.62245781  1
  Mn  Mn8  1  0.19765629  0.99511945  0.38260518  1
  Mn  Mn9  1  0.50170525  0.49105679  0.00277939  1
  Sb  Sb10  1  0.89293731  0.01214106  0.45144603  1
  Sb  Sb11  1  0.10656502  0.99873314  0.54893177  1
  Sb  Sb12  1  0.03730147  0.50193410  0.81479141  1
  Sb  Sb13  1  0.96442542  0.50371300  0.18899390  1
  Sb  Sb14  1  0.39443357  0.50412439  0.45708654  1
  Sb  Sb15  1  0.60613878  0.49683071  0.55093432  1
  Sb  Sb16  1  0.53817021  0.00218469  0.81465584  1
  Sb  Sb17  1  0.46320770  0.99390257  0.18587583  1
  S  S18  1  0.94214072  0.98659964  0.79950851  1
  S  S19  1  0.06427579  0.01344645  0.20376570  1
  S  S20  1  0.40324580  0.00414286  0.98058689  1
  S  S21  1  0.59813396  0.99130240  0.01624530  1
  S  S22  1  0.16528990  0.00717645  0.90052558  1
  S  S23  1  0.83198448  0.01059367  0.10408041  1
  S  S24  1  0.08373197  0.50103865  0.64968059  1
  S  S25  1  0.91101657  0.48474474  0.34757312  1
  S  S26  1  0.74208797  0.01035130  0.29906411  1
  S  S27  1  0.26014668  0.01211605  0.70586144  1
  S  S28  1  0.16490252  0.47114255  0.45680318  1
  S  S29  1  0.84075505  0.50963954  0.54254722  1
  S  S30  1  0.44202109  0.48461085  0.79858859  1
  S  S31  1  0.55793613  0.47066103  0.19670380  1
  S  S32  1  0.90463542  0.49274994  0.98576658  1
  S  S33  1  0.09854344  0.50319133  0.02299155  1
  S  S34  1  0.66522882  0.48611210  0.89147492  1
  S  S35  1  0.33060202  0.49586226  0.10257323  1
  S  S36  1  0.58658294  0.00379463  0.64652563  1
  S  S37  1  0.41628067  0.01196528  0.35987624  1
  S  S38  1  0.24298523  0.49590020  0.29886115  1
  S  S39  1  0.75646648  0.49363317  0.70681677  1
  S  S40  1  0.66046754  0.00948468  0.44799136  1
  S  S41  1  0.34061022  0.00431705  0.54439813  1
