# generated using pymatgen
data_Pr2Mn3(SbS3)4
_symmetry_space_group_name_H-M   'P 1'
_cell_length_a   20.02960800
_cell_length_b   3.90410600
_cell_length_c   14.95364829
_cell_angle_alpha   90.00000000
_cell_angle_beta   126.33350609
_cell_angle_gamma   90.00000000
_symmetry_Int_Tables_number   1
_chemical_formula_structural   Pr2Mn3(SbS3)4
_chemical_formula_sum   'Pr4 Mn6 Sb8 S24'
_cell_volume   942.00006694
_cell_formula_units_Z   2
loop_
 _symmetry_equiv_pos_site_id
 _symmetry_equiv_pos_as_xyz
  1  'x, y, z'
loop_
 _atom_site_type_symbol
 _atom_site_label
 _atom_site_symmetry_multiplicity
 _atom_site_fract_x
 _atom_site_fract_y
 _atom_site_fract_z
 _atom_site_occupancy
  Pr  Pr0  1  0.25870502  0.50287049  0.86056450  1
  Pr  Pr1  1  0.73874331  0.49504847  0.13567760  1
  Pr  Pr2  1  0.76185089  0.98136459  0.86388309  1
  Pr  Pr3  1  0.24283444  0.99685224  0.14133169  1
  Mn  Mn4  1  0.29891184  0.50358602  0.61716517  1
  Mn  Mn5  1  0.69654436  0.49732601  0.37979208  1
  Mn  Mn6  1  0.00188442  0.00963982  0.99617809  1
  Mn  Mn7  1  0.80228848  0.99198399  0.62217213  1
  Mn  Mn8  1  0.19748516  0.99397882  0.38280542  1
  Mn  Mn9  1  0.50156014  0.49155364  0.00272249  1
  Sb  Sb10  1  0.89300490  0.01222296  0.45141290  1
  Sb  Sb11  1  0.10663702  0.99898411  0.54903829  1
  Sb  Sb12  1  0.03717965  0.50239847  0.81482461  1
  Sb  Sb13  1  0.96461886  0.50413676  0.18930551  1
  Sb  Sb14  1  0.39436283  0.50370875  0.45709702  1
  Sb  Sb15  1  0.60627307  0.49630252  0.55116411  1
  Sb  Sb16  1  0.53821425  0.00253692  0.81477560  1
  Sb  Sb17  1  0.46321600  0.99447352  0.18594566  1
  S  S18  1  0.94167558  0.98555019  0.79893567  1
  S  S19  1  0.06494959  0.01318169  0.20426118  1
  S  S20  1  0.40355368  0.00614063  0.98060373  1
  S  S21  1  0.59831285  0.99105155  0.01647503  1
  S  S22  1  0.16485356  0.00754332  0.90046797  1
  S  S23  1  0.83208876  0.01102552  0.10417433  1
  S  S24  1  0.08359068  0.50148644  0.64995547  1
  S  S25  1  0.91122268  0.48468657  0.34778641  1
  S  S26  1  0.74213814  0.00969401  0.29909529  1
  S  S27  1  0.26018313  0.01281065  0.70584709  1
  S  S28  1  0.16514398  0.47025387  0.45691123  1
  S  S29  1  0.84022064  0.51117206  0.54236119  1
  S  S30  1  0.44199701  0.48284568  0.79842828  1
  S  S31  1  0.55782449  0.46937807  0.19668392  1
  S  S32  1  0.90513702  0.49326707  0.98666764  1
  S  S33  1  0.09827597  0.50389750  0.02315802  1
  S  S34  1  0.66504318  0.48567975  0.89124223  1
  S  S35  1  0.33058107  0.49765937  0.10265563  1
  S  S36  1  0.58644768  0.00394305  0.64641409  1
  S  S37  1  0.41645045  0.01268772  0.36024919  1
  S  S38  1  0.24281447  0.49430924  0.29914667  1
  S  S39  1  0.75652224  0.49296279  0.70668374  1
  S  S40  1  0.66071790  0.01035174  0.44815247  1
  S  S41  1  0.34056180  0.00407847  0.54429435  1
