# generated using pymatgen
data_Pr2Mn3(SbS3)4
_symmetry_space_group_name_H-M   'P 1'
_cell_length_a   20.02960800
_cell_length_b   3.90410600
_cell_length_c   14.95364829
_cell_angle_alpha   90.00000000
_cell_angle_beta   126.33350609
_cell_angle_gamma   90.00000000
_symmetry_Int_Tables_number   1
_chemical_formula_structural   Pr2Mn3(SbS3)4
_chemical_formula_sum   'Pr4 Mn6 Sb8 S24'
_cell_volume   942.00006694
_cell_formula_units_Z   2
loop_
 _symmetry_equiv_pos_site_id
 _symmetry_equiv_pos_as_xyz
  1  'x, y, z'
loop_
 _atom_site_type_symbol
 _atom_site_label
 _atom_site_symmetry_multiplicity
 _atom_site_fract_x
 _atom_site_fract_y
 _atom_site_fract_z
 _atom_site_occupancy
  Pr  Pr0  1  0.25868375  0.50293916  0.86040858  1
  Pr  Pr1  1  0.73853013  0.49518594  0.13559470  1
  Pr  Pr2  1  0.76197930  0.98014989  0.86405279  1
  Pr  Pr3  1  0.24298070  0.99618062  0.14157750  1
  Mn  Mn4  1  0.29881769  0.50377479  0.61688011  1
  Mn  Mn5  1  0.69667422  0.49707453  0.37990644  1
  Mn  Mn6  1  0.00185718  0.01045825  0.99607763  1
  Mn  Mn7  1  0.80226034  0.99181888  0.62185882  1
  Mn  Mn8  1  0.19735543  0.99298853  0.38309373  1
  Mn  Mn9  1  0.50138094  0.49197820  0.00268655  1
  Sb  Sb10  1  0.89315504  0.01212067  0.45136683  1
  Sb  Sb11  1  0.10659936  0.99933530  0.54905499  1
  Sb  Sb12  1  0.03707610  0.50276178  0.81478909  1
  Sb  Sb13  1  0.96478435  0.50460651  0.18950256  1
  Sb  Sb14  1  0.39433506  0.50364722  0.45715390  1
  Sb  Sb15  1  0.60635965  0.49591414  0.55133060  1
  Sb  Sb16  1  0.53825552  0.00296962  0.81482499  1
  Sb  Sb17  1  0.46328035  0.99493739  0.18608365  1
  S  S18  1  0.94114001  0.98418320  0.79851482  1
  S  S19  1  0.06560926  0.01297773  0.20472476  1
  S  S20  1  0.40383401  0.00762477  0.98071555  1
  S  S21  1  0.59850542  0.99119754  0.01683272  1
  S  S22  1  0.16439636  0.00756221  0.90042038  1
  S  S23  1  0.83211783  0.01058006  0.10424498  1
  S  S24  1  0.08340509  0.50175051  0.65019662  1
  S  S25  1  0.91139938  0.48466231  0.34786641  1
  S  S26  1  0.74223405  0.00929830  0.29900917  1
  S  S27  1  0.26012865  0.01320074  0.70570607  1
  S  S28  1  0.16538451  0.47019148  0.45709534  1
  S  S29  1  0.83980984  0.51263496  0.54221481  1
  S  S30  1  0.44198660  0.48117376  0.79824995  1
  S  S31  1  0.55765527  0.46876933  0.19665725  1
  S  S32  1  0.90575184  0.49348323  0.98762498  1
  S  S33  1  0.09803071  0.50442252  0.02333637  1
  S  S34  1  0.66479326  0.48583515  0.89093466  1
  S  S35  1  0.33032739  0.49870519  0.10242178  1
  S  S36  1  0.58633091  0.00358555  0.64623383  1
  S  S37  1  0.41648239  0.01319801  0.36042979  1
  S  S38  1  0.24258431  0.49338350  0.29924676  1
  S  S39  1  0.75675530  0.49315541  0.70694484  1
  S  S40  1  0.66095748  0.01155340  0.44833391  1
  S  S41  1  0.34067607  0.00379875  0.54428436  1
