# generated using pymatgen
data_Pr2Mn3(SbS3)4
_symmetry_space_group_name_H-M   'P 1'
_cell_length_a   20.02960800
_cell_length_b   3.90410600
_cell_length_c   14.95364829
_cell_angle_alpha   90.00000000
_cell_angle_beta   126.33350609
_cell_angle_gamma   90.00000000
_symmetry_Int_Tables_number   1
_chemical_formula_structural   Pr2Mn3(SbS3)4
_chemical_formula_sum   'Pr4 Mn6 Sb8 S24'
_cell_volume   942.00006694
_cell_formula_units_Z   2
loop_
 _symmetry_equiv_pos_site_id
 _symmetry_equiv_pos_as_xyz
  1  'x, y, z'
loop_
 _atom_site_type_symbol
 _atom_site_label
 _atom_site_symmetry_multiplicity
 _atom_site_fract_x
 _atom_site_fract_y
 _atom_site_fract_z
 _atom_site_occupancy
  Pr  Pr0  1  0.26687205  0.48919026  0.86410157  1
  Pr  Pr1  1  0.73643799  0.51223440  0.13689504  1
  Pr  Pr2  1  0.76262407  0.01110664  0.86153138  1
  Pr  Pr3  1  0.23532375  0.00519020  0.13590474  1
  Mn  Mn4  1  0.28804478  0.47870694  0.59388726  1
  Mn  Mn5  1  0.68851665  0.49000286  0.37143994  1
  Mn  Mn6  1  0.00822326  0.98752552  0.01995587  1
  Mn  Mn7  1  0.80581630  0.00946922  0.61849799  1
  Mn  Mn8  1  0.19856857  0.98183181  0.37662109  1
  Mn  Mn9  1  0.49298028  0.47867153  0.99002426  1
  Sb  Sb10  1  0.88978532  0.98570898  0.45004098  1
  Sb  Sb11  1  0.11187686  0.97690424  0.54656159  1
  Sb  Sb12  1  0.04039843  0.52260986  0.82254461  1
  Sb  Sb13  1  0.96312839  0.49811431  0.18313349  1
  Sb  Sb14  1  0.39559285  0.50586756  0.45088812  1
  Sb  Sb15  1  0.60582900  0.47479621  0.54749444  1
  Sb  Sb16  1  0.53266083  0.99845304  0.80775712  1
  Sb  Sb17  1  0.46390646  0.01625241  0.18714766  1
  S  S18  1  0.93727378  0.99880387  0.80438534  1
  S  S19  1  0.06483782  0.98425045  0.20042546  1
  S  S20  1  0.41166394  0.97637214  0.98069562  1
  S  S21  1  0.57764564  0.01232635  0.00963173  1
  S  S22  1  0.17266393  0.03170002  0.90330609  1
  S  S23  1  0.82358603  0.04927283  0.09525511  1
  S  S24  1  0.09642502  0.48159717  0.64675189  1
  S  S25  1  0.91115622  0.48710099  0.35330404  1
  S  S26  1  0.74025788  0.94540856  0.30222313  1
  S  S27  1  0.26426343  0.00445393  0.70886335  1
  S  S28  1  0.15889063  0.48419835  0.42713748  1
  S  S29  1  0.82461275  0.48934359  0.54860191  1
  S  S30  1  0.43194302  0.49830428  0.79919650  1
  S  S31  1  0.55653212  0.51397073  0.18473282  1
  S  S32  1  0.90979328  0.48023660  0.98618231  1
  S  S33  1  0.09219584  0.47451891  0.02728103  1
  S  S34  1  0.66348056  0.50688982  0.88478789  1
  S  S35  1  0.33194526  0.50599078  0.09922620  1
  S  S36  1  0.59748170  0.98497927  0.65507175  1
  S  S37  1  0.40449852  0.98811430  0.34898489  1
  S  S38  1  0.23883448  0.46196981  0.30782839  1
  S  S39  1  0.76166750  0.49568678  0.69687427  1
  S  S40  1  0.66769583  0.02636595  0.45270133  1
  S  S41  1  0.32557454  0.97688405  0.55203153  1
