# generated using pymatgen
data_Pr2Mn3(SbS3)4
_symmetry_space_group_name_H-M   'P 1'
_cell_length_a   20.02960800
_cell_length_b   3.90410600
_cell_length_c   14.95364829
_cell_angle_alpha   90.00000000
_cell_angle_beta   126.33350609
_cell_angle_gamma   90.00000000
_symmetry_Int_Tables_number   1
_chemical_formula_structural   Pr2Mn3(SbS3)4
_chemical_formula_sum   'Pr4 Mn6 Sb8 S24'
_cell_volume   942.00006694
_cell_formula_units_Z   2
loop_
 _symmetry_equiv_pos_site_id
 _symmetry_equiv_pos_as_xyz
  1  'x, y, z'
loop_
 _atom_site_type_symbol
 _atom_site_label
 _atom_site_symmetry_multiplicity
 _atom_site_fract_x
 _atom_site_fract_y
 _atom_site_fract_z
 _atom_site_occupancy
  Pr  Pr0  1  0.25870374  0.50292865  0.86032609  1
  Pr  Pr1  1  0.73834494  0.49531235  0.13553684  1
  Pr  Pr2  1  0.76211294  0.97908955  0.86420703  1
  Pr  Pr3  1  0.24318722  0.99529347  0.14186055  1
  Mn  Mn4  1  0.29869597  0.50356208  0.61660676  1
  Mn  Mn5  1  0.69689549  0.49649398  0.38006862  1
  Mn  Mn6  1  0.00194563  0.01106283  0.99612347  1
  Mn  Mn7  1  0.80218223  0.99182210  0.62156692  1
  Mn  Mn8  1  0.19720582  0.99218086  0.38325016  1
  Mn  Mn9  1  0.50126821  0.49197875  0.00277756  1
  Sb  Sb10  1  0.89325236  0.01209333  0.45136404  1
  Sb  Sb11  1  0.10648223  0.99970763  0.54896448  1
  Sb  Sb12  1  0.03700932  0.50301560  0.81475886  1
  Sb  Sb13  1  0.96492446  0.50513866  0.18976992  1
  Sb  Sb14  1  0.39435833  0.50323415  0.45704910  1
  Sb  Sb15  1  0.60637861  0.49555255  0.55138276  1
  Sb  Sb16  1  0.53825361  0.00311428  0.81496783  1
  Sb  Sb17  1  0.46332425  0.99551418  0.18616448  1
  S  S18  1  0.94051472  0.98328754  0.79820964  1
  S  S19  1  0.06610879  0.01296728  0.20511513  1
  S  S20  1  0.40430826  0.00880922  0.98089126  1
  S  S21  1  0.59857011  0.99174065  0.01707451  1
  S  S22  1  0.16397926  0.00742372  0.90039950  1
  S  S23  1  0.83219474  0.01045172  0.10433280  1
  S  S24  1  0.08302147  0.50176402  0.65020277  1
  S  S25  1  0.91167070  0.48505603  0.34823958  1
  S  S26  1  0.74228276  0.00864870  0.29908223  1
  S  S27  1  0.26007154  0.01307439  0.70550413  1
  S  S28  1  0.16565456  0.47024510  0.45733973  1
  S  S29  1  0.83947239  0.51351453  0.54210830  1
  S  S30  1  0.44197634  0.47961309  0.79799347  1
  S  S31  1  0.55749664  0.46856869  0.19672677  1
  S  S32  1  0.90621828  0.49357442  0.98825159  1
  S  S33  1  0.09778735  0.50442597  0.02337576  1
  S  S34  1  0.66462446  0.48568474  0.89089626  1
  S  S35  1  0.33008010  0.49988835  0.10231687  1
  S  S36  1  0.58619158  0.00310970  0.64602937  1
  S  S37  1  0.41652738  0.01271025  0.36066948  1
  S  S38  1  0.24238668  0.49247092  0.29932628  1
  S  S39  1  0.75691821  0.49394410  0.70716830  1
  S  S40  1  0.66115080  0.01231711  0.44851691  1
  S  S41  1  0.34084994  0.00365772  0.54444447  1
