# generated using pymatgen
data_Pr2Mn3(SbS3)4
_symmetry_space_group_name_H-M   'P 1'
_cell_length_a   20.02960800
_cell_length_b   3.90410600
_cell_length_c   14.95364829
_cell_angle_alpha   90.00000000
_cell_angle_beta   126.33350609
_cell_angle_gamma   90.00000000
_symmetry_Int_Tables_number   1
_chemical_formula_structural   Pr2Mn3(SbS3)4
_chemical_formula_sum   'Pr4 Mn6 Sb8 S24'
_cell_volume   942.00006694
_cell_formula_units_Z   2
loop_
 _symmetry_equiv_pos_site_id
 _symmetry_equiv_pos_as_xyz
  1  'x, y, z'
loop_
 _atom_site_type_symbol
 _atom_site_label
 _atom_site_symmetry_multiplicity
 _atom_site_fract_x
 _atom_site_fract_y
 _atom_site_fract_z
 _atom_site_occupancy
  Pr  Pr0  1  0.25865154  0.50320929  0.86019197  1
  Pr  Pr1  1  0.73815683  0.49543824  0.13549450  1
  Pr  Pr2  1  0.76213747  0.97806740  0.86428519  1
  Pr  Pr3  1  0.24339706  0.99453661  0.14223499  1
  Mn  Mn4  1  0.29863827  0.50338295  0.61649466  1
  Mn  Mn5  1  0.69714603  0.49589983  0.38017549  1
  Mn  Mn6  1  0.00195035  0.01133412  0.99609747  1
  Mn  Mn7  1  0.80212295  0.99140658  0.62112195  1
  Mn  Mn8  1  0.19707200  0.99128174  0.38348712  1
  Mn  Mn9  1  0.50114400  0.49232705  0.00282245  1
  Sb  Sb10  1  0.89332679  0.01202874  0.45138603  1
  Sb  Sb11  1  0.10640581  0.00037013  0.54882797  1
  Sb  Sb12  1  0.03688653  0.50326079  0.81461549  1
  Sb  Sb13  1  0.96503910  0.50540922  0.19007410  1
  Sb  Sb14  1  0.39437198  0.50245109  0.45681627  1
  Sb  Sb15  1  0.60646388  0.49548237  0.55152050  1
  Sb  Sb16  1  0.53820592  0.00279272  0.81502114  1
  Sb  Sb17  1  0.46328070  0.99604021  0.18613946  1
  S  S18  1  0.93996314  0.98271425  0.79792264  1
  S  S19  1  0.06667357  0.01284523  0.20554394  1
  S  S20  1  0.40474858  0.00931342  0.98109550  1
  S  S21  1  0.59876698  0.99301858  0.01750615  1
  S  S22  1  0.16353095  0.00674539  0.90040269  1
  S  S23  1  0.83236076  0.00993427  0.10435688  1
  S  S24  1  0.08282143  0.50228948  0.65041663  1
  S  S25  1  0.91197825  0.48516504  0.34854965  1
  S  S26  1  0.74230217  0.00860752  0.29920319  1
  S  S27  1  0.26003427  0.01313418  0.70524783  1
  S  S28  1  0.16591652  0.47031175  0.45753010  1
  S  S29  1  0.83904638  0.51400712  0.54156909  1
  S  S30  1  0.44205441  0.47779026  0.79768711  1
  S  S31  1  0.55715446  0.46835877  0.19656191  1
  S  S32  1  0.90656737  0.49381088  0.98884255  1
  S  S33  1  0.09735476  0.50444856  0.02330182  1
  S  S34  1  0.66450499  0.48544381  0.89087780  1
  S  S35  1  0.32986057  0.50054526  0.10234476  1
  S  S36  1  0.58590810  0.00293077  0.64588197  1
  S  S37  1  0.41667249  0.01196137  0.36103634  1
  S  S38  1  0.24221903  0.49189015  0.29952256  1
  S  S39  1  0.75706245  0.49457232  0.70725969  1
  S  S40  1  0.66126612  0.01318210  0.44862751  1
  S  S41  1  0.34099072  0.00326566  0.54441438  1
