# generated using pymatgen
data_Pr2Mn3(SbS3)4
_symmetry_space_group_name_H-M   'P 1'
_cell_length_a   20.02960800
_cell_length_b   3.90410600
_cell_length_c   14.95364829
_cell_angle_alpha   90.00000000
_cell_angle_beta   126.33350609
_cell_angle_gamma   90.00000000
_symmetry_Int_Tables_number   1
_chemical_formula_structural   Pr2Mn3(SbS3)4
_chemical_formula_sum   'Pr4 Mn6 Sb8 S24'
_cell_volume   942.00006694
_cell_formula_units_Z   2
loop_
 _symmetry_equiv_pos_site_id
 _symmetry_equiv_pos_as_xyz
  1  'x, y, z'
loop_
 _atom_site_type_symbol
 _atom_site_label
 _atom_site_symmetry_multiplicity
 _atom_site_fract_x
 _atom_site_fract_y
 _atom_site_fract_z
 _atom_site_occupancy
  Pr  Pr0  1  0.25855948  0.50333596  0.86001376  1
  Pr  Pr1  1  0.73803372  0.49559132  0.13551400  1
  Pr  Pr2  1  0.76213224  0.97731912  0.86430593  1
  Pr  Pr3  1  0.24363096  0.99341056  0.14268102  1
  Mn  Mn4  1  0.29860840  0.50318071  0.61655329  1
  Mn  Mn5  1  0.69742694  0.49503278  0.38034470  1
  Mn  Mn6  1  0.00195769  0.01159063  0.99629164  1
  Mn  Mn7  1  0.80215001  0.99109176  0.62083030  1
  Mn  Mn8  1  0.19699153  0.99061282  0.38378179  1
  Mn  Mn9  1  0.50115230  0.49266867  0.00287251  1
  Sb  Sb10  1  0.89343962  0.01189710  0.45143471  1
  Sb  Sb11  1  0.10641483  0.00087822  0.54876897  1
  Sb  Sb12  1  0.03670802  0.50359294  0.81444469  1
  Sb  Sb13  1  0.96509214  0.50576733  0.19037621  1
  Sb  Sb14  1  0.39436653  0.50176922  0.45657467  1
  Sb  Sb15  1  0.60647843  0.49546635  0.55161069  1
  Sb  Sb16  1  0.53822633  0.00239098  0.81514490  1
  Sb  Sb17  1  0.46327688  0.99648309  0.18613553  1
  S  S18  1  0.93963399  0.98208404  0.79759942  1
  S  S19  1  0.06712017  0.01285892  0.20604375  1
  S  S20  1  0.40523733  0.01013099  0.98132685  1
  S  S21  1  0.59886282  0.99392159  0.01793815  1
  S  S22  1  0.16332587  0.00637382  0.90061166  1
  S  S23  1  0.83256201  0.00935966  0.10442559  1
  S  S24  1  0.08237808  0.50352826  0.65043579  1
  S  S25  1  0.91226059  0.48573854  0.34894632  1
  S  S26  1  0.74243525  0.00846702  0.29918668  1
  S  S27  1  0.26025201  0.01366942  0.70513068  1
  S  S28  1  0.16623298  0.47009283  0.45777579  1
  S  S29  1  0.83876139  0.51537731  0.54114312  1
  S  S30  1  0.44212033  0.47595569  0.79740528  1
  S  S31  1  0.55676513  0.46808588  0.19639449  1
  S  S32  1  0.90686120  0.49431136  0.98924255  1
  S  S33  1  0.09673349  0.50438900  0.02311780  1
  S  S34  1  0.66445380  0.48515849  0.89072303  1
  S  S35  1  0.32965715  0.50135213  0.10231368  1
  S  S36  1  0.58552175  0.00250889  0.64583675  1
  S  S37  1  0.41676293  0.01114772  0.36119250  1
  S  S38  1  0.24212656  0.49108013  0.29981501  1
  S  S39  1  0.75719149  0.49503689  0.70719838  1
  S  S40  1  0.66135795  0.01405265  0.44869881  1
  S  S41  1  0.34104340  0.00267697  0.54427744  1
