# generated using pymatgen
data_Pr2Mn3(SbS3)4
_symmetry_space_group_name_H-M   'P 1'
_cell_length_a   20.02960800
_cell_length_b   3.90410600
_cell_length_c   14.95364829
_cell_angle_alpha   90.00000000
_cell_angle_beta   126.33350609
_cell_angle_gamma   90.00000000
_symmetry_Int_Tables_number   1
_chemical_formula_structural   Pr2Mn3(SbS3)4
_chemical_formula_sum   'Pr4 Mn6 Sb8 S24'
_cell_volume   942.00006694
_cell_formula_units_Z   2
loop_
 _symmetry_equiv_pos_site_id
 _symmetry_equiv_pos_as_xyz
  1  'x, y, z'
loop_
 _atom_site_type_symbol
 _atom_site_label
 _atom_site_symmetry_multiplicity
 _atom_site_fract_x
 _atom_site_fract_y
 _atom_site_fract_z
 _atom_site_occupancy
  Pr  Pr0  1  0.25845836  0.50384202  0.85978775  1
  Pr  Pr1  1  0.73787576  0.49599103  0.13551283  1
  Pr  Pr2  1  0.76210057  0.97713570  0.86415337  1
  Pr  Pr3  1  0.24382426  0.99230857  0.14313601  1
  Mn  Mn4  1  0.29860405  0.50316778  0.61668621  1
  Mn  Mn5  1  0.69760418  0.49408442  0.38033830  1
  Mn  Mn6  1  0.00187487  0.01162201  0.99638321  1
  Mn  Mn7  1  0.80202309  0.99069785  0.62045239  1
  Mn  Mn8  1  0.19693007  0.99007271  0.38404367  1
  Mn  Mn9  1  0.50130062  0.49304367  0.00316323  1
  Sb  Sb10  1  0.89354077  0.01170180  0.45149360  1
  Sb  Sb11  1  0.10641366  0.00142936  0.54874127  1
  Sb  Sb12  1  0.03653767  0.50380256  0.81434053  1
  Sb  Sb13  1  0.96516632  0.50599438  0.19070579  1
  Sb  Sb14  1  0.39437117  0.50118408  0.45640859  1
  Sb  Sb15  1  0.60646747  0.49557958  0.55167977  1
  Sb  Sb16  1  0.53828718  0.00188171  0.81536318  1
  Sb  Sb17  1  0.46321598  0.99710411  0.18600206  1
  S  S18  1  0.93936513  0.98193092  0.79747865  1
  S  S19  1  0.06758728  0.01320593  0.20646491  1
  S  S20  1  0.40574629  0.01066167  0.98160451  1
  S  S21  1  0.59900172  0.99431961  0.01832079  1
  S  S22  1  0.16310306  0.00563551  0.90072895  1
  S  S23  1  0.83279767  0.00926568  0.10451539  1
  S  S24  1  0.08194935  0.50443350  0.65065052  1
  S  S25  1  0.91243906  0.48634047  0.34911122  1
  S  S26  1  0.74260917  0.00811040  0.29927844  1
  S  S27  1  0.26040129  0.01353068  0.70498368  1
  S  S28  1  0.16659133  0.46940649  0.45787069  1
  S  S29  1  0.83855309  0.51691211  0.54077574  1
  S  S30  1  0.44220762  0.47356940  0.79728894  1
  S  S31  1  0.55650199  0.46832986  0.19616714  1
  S  S32  1  0.90701462  0.49416800  0.98951917  1
  S  S33  1  0.09620780  0.50437123  0.02305911  1
  S  S34  1  0.66434458  0.48535109  0.89051934  1
  S  S35  1  0.32939136  0.50142295  0.10213626  1
  S  S36  1  0.58527404  0.00199491  0.64602725  1
  S  S37  1  0.41699549  0.01032400  0.36142363  1
  S  S38  1  0.24206714  0.49026164  0.30008520  1
  S  S39  1  0.75733094  0.49547781  0.70713774  1
  S  S40  1  0.66150232  0.01424965  0.44884184  1
  S  S41  1  0.34111726  0.00211908  0.54426595  1
