# generated using pymatgen
data_Pr2Mn3(SbS3)4
_symmetry_space_group_name_H-M   'P 1'
_cell_length_a   20.02960800
_cell_length_b   3.90410600
_cell_length_c   14.95364829
_cell_angle_alpha   90.00000000
_cell_angle_beta   126.33350609
_cell_angle_gamma   90.00000000
_symmetry_Int_Tables_number   1
_chemical_formula_structural   Pr2Mn3(SbS3)4
_chemical_formula_sum   'Pr4 Mn6 Sb8 S24'
_cell_volume   942.00006694
_cell_formula_units_Z   2
loop_
 _symmetry_equiv_pos_site_id
 _symmetry_equiv_pos_as_xyz
  1  'x, y, z'
loop_
 _atom_site_type_symbol
 _atom_site_label
 _atom_site_symmetry_multiplicity
 _atom_site_fract_x
 _atom_site_fract_y
 _atom_site_fract_z
 _atom_site_occupancy
  Pr  Pr0  1  0.25831657  0.50404563  0.85959129  1
  Pr  Pr1  1  0.73765822  0.49671352  0.13549143  1
  Pr  Pr2  1  0.76214811  0.97678581  0.86408758  1
  Pr  Pr3  1  0.24390663  0.99132416  0.14351945  1
  Mn  Mn4  1  0.29864205  0.50336943  0.61682543  1
  Mn  Mn5  1  0.69780938  0.49345235  0.38039744  1
  Mn  Mn6  1  0.00179988  0.01141798  0.99645086  1
  Mn  Mn7  1  0.80195735  0.99019055  0.62013279  1
  Mn  Mn8  1  0.19680071  0.98988014  0.38419017  1
  Mn  Mn9  1  0.50152354  0.49334128  0.00344243  1
  Sb  Sb10  1  0.89362145  0.01173398  0.45157628  1
  Sb  Sb11  1  0.10633200  0.00195405  0.54872435  1
  Sb  Sb12  1  0.03642900  0.50415110  0.81421028  1
  Sb  Sb13  1  0.96515625  0.50615619  0.19103865  1
  Sb  Sb14  1  0.39442270  0.50061341  0.45627716  1
  Sb  Sb15  1  0.60649814  0.49560477  0.55182648  1
  Sb  Sb16  1  0.53831496  0.00163456  0.81545470  1
  Sb  Sb17  1  0.46310667  0.99801187  0.18590965  1
  S  S18  1  0.93927368  0.98195181  0.79751861  1
  S  S19  1  0.06796158  0.01332907  0.20685791  1
  S  S20  1  0.40615379  0.01051784  0.98192583  1
  S  S21  1  0.59904592  0.99530117  0.01872477  1
  S  S22  1  0.16293484  0.00507522  0.90079954  1
  S  S23  1  0.83295950  0.00931495  0.10464222  1
  S  S24  1  0.08146043  0.50572548  0.65081406  1
  S  S25  1  0.91271247  0.48725312  0.34923124  1
  S  S26  1  0.74270921  0.00780892  0.29931913  1
  S  S27  1  0.26050657  0.01304022  0.70482772  1
  S  S28  1  0.16696452  0.46913848  0.45793296  1
  S  S29  1  0.83820411  0.51800464  0.54047530  1
  S  S30  1  0.44217198  0.47165341  0.79689446  1
  S  S31  1  0.55636861  0.46855867  0.19597110  1
  S  S32  1  0.90729407  0.49421527  0.99003326  1
  S  S33  1  0.09569399  0.50448172  0.02296895  1
  S  S34  1  0.66430345  0.48556308  0.89044198  1
  S  S35  1  0.32906816  0.50174600  0.10193394  1
  S  S36  1  0.58499560  0.00104697  0.64611862  1
  S  S37  1  0.41719039  0.00964030  0.36173953  1
  S  S38  1  0.24192842  0.48945161  0.30016869  1
  S  S39  1  0.75752360  0.49550398  0.70692491  1
  S  S40  1  0.66156511  0.01464119  0.44902466  1
  S  S41  1  0.34090289  0.00166968  0.54406221  1
