# generated using pymatgen
data_Pr2Mn3(SbS3)4
_symmetry_space_group_name_H-M   'P 1'
_cell_length_a   20.02960800
_cell_length_b   3.90410600
_cell_length_c   14.95364829
_cell_angle_alpha   90.00000000
_cell_angle_beta   126.33350609
_cell_angle_gamma   90.00000000
_symmetry_Int_Tables_number   1
_chemical_formula_structural   Pr2Mn3(SbS3)4
_chemical_formula_sum   'Pr4 Mn6 Sb8 S24'
_cell_volume   942.00006694
_cell_formula_units_Z   2
loop_
 _symmetry_equiv_pos_site_id
 _symmetry_equiv_pos_as_xyz
  1  'x, y, z'
loop_
 _atom_site_type_symbol
 _atom_site_label
 _atom_site_symmetry_multiplicity
 _atom_site_fract_x
 _atom_site_fract_y
 _atom_site_fract_z
 _atom_site_occupancy
  Pr  Pr0  1  0.25819377  0.50395650  0.85944556  1
  Pr  Pr1  1  0.73739806  0.49725569  0.13545251  1
  Pr  Pr2  1  0.76217015  0.97640286  0.86405435  1
  Pr  Pr3  1  0.24400145  0.99047645  0.14392371  1
  Mn  Mn4  1  0.29873300  0.50368404  0.61692582  1
  Mn  Mn5  1  0.69802579  0.49250458  0.38037049  1
  Mn  Mn6  1  0.00183931  0.01133797  0.99662651  1
  Mn  Mn7  1  0.80191318  0.98979572  0.61978078  1
  Mn  Mn8  1  0.19678815  0.98895023  0.38451931  1
  Mn  Mn9  1  0.50160421  0.49394117  0.00367180  1
  Sb  Sb10  1  0.89374736  0.01204829  0.45175747  1
  Sb  Sb11  1  0.10622349  0.00256030  0.54867237  1
  Sb  Sb12  1  0.03638193  0.50452289  0.81400932  1
  Sb  Sb13  1  0.96520994  0.50650900  0.19135639  1
  Sb  Sb14  1  0.39445333  0.50033172  0.45613596  1
  Sb  Sb15  1  0.60654862  0.49565581  0.55206234  1
  Sb  Sb16  1  0.53828846  0.00180043  0.81551136  1
  Sb  Sb17  1  0.46299520  0.99854507  0.18587793  1
  S  S18  1  0.93917733  0.98285279  0.79755577  1
  S  S19  1  0.06822260  0.01338955  0.20702176  1
  S  S20  1  0.40646785  0.01032077  0.98225856  1
  S  S21  1  0.59904201  0.99611988  0.01910935  1
  S  S22  1  0.16287959  0.00489763  0.90105050  1
  S  S23  1  0.83310647  0.00957662  0.10484713  1
  S  S24  1  0.08101086  0.50661518  0.65089724  1
  S  S25  1  0.91287804  0.48823189  0.34920101  1
  S  S26  1  0.74281903  0.00722119  0.29934046  1
  S  S27  1  0.26065459  0.01313783  0.70475578  1
  S  S28  1  0.16724510  0.46837146  0.45790881  1
  S  S29  1  0.83795998  0.51879452  0.54027397  1
  S  S30  1  0.44210360  0.46926955  0.79645349  1
  S  S31  1  0.55613496  0.46814714  0.19588522  1
  S  S32  1  0.90771095  0.49473262  0.99062482  1
  S  S33  1  0.09524633  0.50468482  0.02283706  1
  S  S34  1  0.66425661  0.48538457  0.89045621  1
  S  S35  1  0.32864746  0.50209137  0.10156749  1
  S  S36  1  0.58488888  0.00015634  0.64653373  1
  S  S37  1  0.41725672  0.00852097  0.36200721  1
  S  S38  1  0.24176688  0.48835807  0.30017763  1
  S  S39  1  0.75759928  0.49556639  0.70661096  1
  S  S40  1  0.66164097  0.01523084  0.44912724  1
  S  S41  1  0.34062828  0.00095093  0.54384754  1
