# generated using pymatgen
data_Pr2Mn3(SbS3)4
_symmetry_space_group_name_H-M   'P 1'
_cell_length_a   20.02960800
_cell_length_b   3.90410600
_cell_length_c   14.95364829
_cell_angle_alpha   90.00000000
_cell_angle_beta   126.33350609
_cell_angle_gamma   90.00000000
_symmetry_Int_Tables_number   1
_chemical_formula_structural   Pr2Mn3(SbS3)4
_chemical_formula_sum   'Pr4 Mn6 Sb8 S24'
_cell_volume   942.00006694
_cell_formula_units_Z   2
loop_
 _symmetry_equiv_pos_site_id
 _symmetry_equiv_pos_as_xyz
  1  'x, y, z'
loop_
 _atom_site_type_symbol
 _atom_site_label
 _atom_site_symmetry_multiplicity
 _atom_site_fract_x
 _atom_site_fract_y
 _atom_site_fract_z
 _atom_site_occupancy
  Pr  Pr0  1  0.25806818  0.50412217  0.85933334  1
  Pr  Pr1  1  0.73720224  0.49794006  0.13532171  1
  Pr  Pr2  1  0.76221349  0.97619008  0.86403645  1
  Pr  Pr3  1  0.24405200  0.98968501  0.14430319  1
  Mn  Mn4  1  0.29878878  0.50397692  0.61703240  1
  Mn  Mn5  1  0.69816138  0.49151330  0.38032687  1
  Mn  Mn6  1  0.00186076  0.01173399  0.99674122  1
  Mn  Mn7  1  0.80182557  0.98969790  0.61936104  1
  Mn  Mn8  1  0.19679376  0.98789951  0.38486165  1
  Mn  Mn9  1  0.50167734  0.49450664  0.00398873  1
  Sb  Sb10  1  0.89391001  0.01246070  0.45203417  1
  Sb  Sb11  1  0.10617638  0.00306210  0.54870872  1
  Sb  Sb12  1  0.03639170  0.50470790  0.81384903  1
  Sb  Sb13  1  0.96522113  0.50674997  0.19164681  1
  Sb  Sb14  1  0.39450057  0.50036336  0.45603389  1
  Sb  Sb15  1  0.60663571  0.49612046  0.55230637  1
  Sb  Sb16  1  0.53833178  0.00213213  0.81572449  1
  Sb  Sb17  1  0.46285360  0.99914674  0.18588963  1
  S  S18  1  0.93920561  0.98390760  0.79773837  1
  S  S19  1  0.06840763  0.01328207  0.20701348  1
  S  S20  1  0.40659117  0.00960659  0.98241334  1
  S  S21  1  0.59911848  0.99640248  0.01944605  1
  S  S22  1  0.16290149  0.00485878  0.90130197  1
  S  S23  1  0.83317156  0.00967088  0.10514826  1
  S  S24  1  0.08052428  0.50661998  0.65074397  1
  S  S25  1  0.91290429  0.48890330  0.34909308  1
  S  S26  1  0.74273202  0.00708217  0.29930150  1
  S  S27  1  0.26063214  0.01267796  0.70470156  1
  S  S28  1  0.16753741  0.46762969  0.45787687  1
  S  S29  1  0.83793567  0.51860221  0.54041467  1
  S  S30  1  0.44206904  0.46651737  0.79610404  1
  S  S31  1  0.55603521  0.46873005  0.19597433  1
  S  S32  1  0.90807092  0.49522069  0.99103648  1
  S  S33  1  0.09486073  0.50509511  0.02279053  1
  S  S34  1  0.66417927  0.48503855  0.89050690  1
  S  S35  1  0.32818267  0.50227683  0.10099274  1
  S  S36  1  0.58474364  0.00043820  0.64707782  1
  S  S37  1  0.41726899  0.00703054  0.36234707  1
  S  S38  1  0.24159279  0.48763504  0.29995406  1
  S  S39  1  0.75747695  0.49559956  0.70619359  1
  S  S40  1  0.66166453  0.01625973  0.44918441  1
  S  S41  1  0.34033472  0.00005160  0.54404479  1
