# generated using pymatgen
data_Pr2Mn3(SbS3)4
_symmetry_space_group_name_H-M   'P 1'
_cell_length_a   20.02960800
_cell_length_b   3.90410600
_cell_length_c   14.95364829
_cell_angle_alpha   90.00000000
_cell_angle_beta   126.33350609
_cell_angle_gamma   90.00000000
_symmetry_Int_Tables_number   1
_chemical_formula_structural   Pr2Mn3(SbS3)4
_chemical_formula_sum   'Pr4 Mn6 Sb8 S24'
_cell_volume   942.00006694
_cell_formula_units_Z   2
loop_
 _symmetry_equiv_pos_site_id
 _symmetry_equiv_pos_as_xyz
  1  'x, y, z'
loop_
 _atom_site_type_symbol
 _atom_site_label
 _atom_site_symmetry_multiplicity
 _atom_site_fract_x
 _atom_site_fract_y
 _atom_site_fract_z
 _atom_site_occupancy
  Pr  Pr0  1  0.25800071  0.50432595  0.85923396  1
  Pr  Pr1  1  0.73698816  0.49874896  0.13519693  1
  Pr  Pr2  1  0.76230243  0.97574694  0.86404971  1
  Pr  Pr3  1  0.24408686  0.98923184  0.14468469  1
  Mn  Mn4  1  0.29891458  0.50393521  0.61712381  1
  Mn  Mn5  1  0.69828147  0.49045567  0.38036727  1
  Mn  Mn6  1  0.00183984  0.01202834  0.99688028  1
  Mn  Mn7  1  0.80169246  0.98982898  0.61896631  1
  Mn  Mn8  1  0.19676690  0.98705434  0.38516481  1
  Mn  Mn9  1  0.50183341  0.49451201  0.00431868  1
  Sb  Sb10  1  0.89408518  0.01287643  0.45231439  1
  Sb  Sb11  1  0.10614209  0.00329457  0.54874668  1
  Sb  Sb12  1  0.03636393  0.50511959  0.81364118  1
  Sb  Sb13  1  0.96526624  0.50697562  0.19206429  1
  Sb  Sb14  1  0.39451493  0.50069499  0.45585499  1
  Sb  Sb15  1  0.60669076  0.49642364  0.55246211  1
  Sb  Sb16  1  0.53837752  0.00244777  0.81582522  1
  Sb  Sb17  1  0.46271426  0.99948570  0.18600925  1
  S  S18  1  0.93918477  0.98498862  0.79784815  1
  S  S19  1  0.06845248  0.01336250  0.20678687  1
  S  S20  1  0.40665171  0.00936888  0.98257053  1
  S  S21  1  0.59924508  0.99636969  0.01999097  1
  S  S22  1  0.16289759  0.00472037  0.90134257  1
  S  S23  1  0.83326942  0.00948435  0.10551988  1
  S  S24  1  0.08013113  0.50639832  0.65079594  1
  S  S25  1  0.91300892  0.48874716  0.34915653  1
  S  S26  1  0.74280020  0.00688034  0.29935079  1
  S  S27  1  0.26064610  0.01196398  0.70456406  1
  S  S28  1  0.16779002  0.46769347  0.45793207  1
  S  S29  1  0.83780217  0.51914824  0.54052194  1
  S  S30  1  0.44218772  0.46396550  0.79599424  1
  S  S31  1  0.55604828  0.46917919  0.19608678  1
  S  S32  1  0.90834957  0.49526147  0.99137317  1
  S  S33  1  0.09443508  0.50548927  0.02261850  1
  S  S34  1  0.66412229  0.48432402  0.89056940  1
  S  S35  1  0.32799275  0.50289121  0.10059347  1
  S  S36  1  0.58474970  0.00022942  0.64773825  1
  S  S37  1  0.41724133  0.00524944  0.36274300  1
  S  S38  1  0.24146532  0.48648185  0.29967147  1
  S  S39  1  0.75742351  0.49608299  0.70585928  1
  S  S40  1  0.66171102  0.01636969  0.44902788  1
  S  S41  1  0.34020133  0.99908027  0.54420342  1
