# generated using pymatgen
data_Pr2Mn3(SbS3)4
_symmetry_space_group_name_H-M   'P 1'
_cell_length_a   20.02960800
_cell_length_b   3.90410600
_cell_length_c   14.95364829
_cell_angle_alpha   90.00000000
_cell_angle_beta   126.33350609
_cell_angle_gamma   90.00000000
_symmetry_Int_Tables_number   1
_chemical_formula_structural   Pr2Mn3(SbS3)4
_chemical_formula_sum   'Pr4 Mn6 Sb8 S24'
_cell_volume   942.00006694
_cell_formula_units_Z   2
loop_
 _symmetry_equiv_pos_site_id
 _symmetry_equiv_pos_as_xyz
  1  'x, y, z'
loop_
 _atom_site_type_symbol
 _atom_site_label
 _atom_site_symmetry_multiplicity
 _atom_site_fract_x
 _atom_site_fract_y
 _atom_site_fract_z
 _atom_site_occupancy
  Pr  Pr0  1  0.25791660  0.50477167  0.85915169  1
  Pr  Pr1  1  0.73683761  0.49950424  0.13520346  1
  Pr  Pr2  1  0.76231362  0.97544001  0.86406404  1
  Pr  Pr3  1  0.24411055  0.98896706  0.14489778  1
  Mn  Mn4  1  0.29901436  0.50379378  0.61709712  1
  Mn  Mn5  1  0.69838214  0.48943478  0.38047870  1
  Mn  Mn6  1  0.00174473  0.01148641  0.99712554  1
  Mn  Mn7  1  0.80154958  0.99004727  0.61856794  1
  Mn  Mn8  1  0.19684155  0.98667809  0.38559150  1
  Mn  Mn9  1  0.50195579  0.49460743  0.00464900  1
  Sb  Sb10  1  0.89422588  0.01321733  0.45249188  1
  Sb  Sb11  1  0.10608179  0.00362500  0.54861897  1
  Sb  Sb12  1  0.03625798  0.50583328  0.81334273  1
  Sb  Sb13  1  0.96535931  0.50708772  0.19253657  1
  Sb  Sb14  1  0.39461686  0.50082072  0.45575370  1
  Sb  Sb15  1  0.60673691  0.49702225  0.55270463  1
  Sb  Sb16  1  0.53841169  0.00276658  0.81601439  1
  Sb  Sb17  1  0.46260817  0.99997136  0.18614782  1
  S  S18  1  0.93905055  0.98557549  0.79790639  1
  S  S19  1  0.06837690  0.01317184  0.20642863  1
  S  S20  1  0.40669607  0.00858372  0.98281579  1
  S  S21  1  0.59936209  0.99626395  0.02031262  1
  S  S22  1  0.16290507  0.00494559  0.90142332  1
  S  S23  1  0.83349100  0.00952010  0.10603839  1
  S  S24  1  0.08000098  0.50630472  0.65086668  1
  S  S25  1  0.91301019  0.48840634  0.34898112  1
  S  S26  1  0.74293486  0.00673542  0.29924043  1
  S  S27  1  0.26064470  0.01145774  0.70441179  1
  S  S28  1  0.16818329  0.46754949  0.45793165  1
  S  S29  1  0.83764263  0.51997243  0.54084061  1
  S  S30  1  0.44229022  0.46178190  0.79593848  1
  S  S31  1  0.55610420  0.46910279  0.19632939  1
  S  S32  1  0.90862077  0.49494283  0.99171972  1
  S  S33  1  0.09402843  0.50531532  0.02247936  1
  S  S34  1  0.66404784  0.48346581  0.89062907  1
  S  S35  1  0.32805407  0.50343441  0.10039937  1
  S  S36  1  0.58451640  0.00015425  0.64824740  1
  S  S37  1  0.41726275  0.00316050  0.36321465  1
  S  S38  1  0.24129389  0.48555784  0.29906498  1
  S  S39  1  0.75737995  0.49661628  0.70553549  1
  S  S40  1  0.66167109  0.01638705  0.44882494  1
  S  S41  1  0.33998769  0.99797868  0.54427833  1
