# generated using pymatgen
data_Pr2Mn3(SbS3)4
_symmetry_space_group_name_H-M   'P 1'
_cell_length_a   20.02960800
_cell_length_b   3.90410600
_cell_length_c   14.95364829
_cell_angle_alpha   90.00000000
_cell_angle_beta   126.33350609
_cell_angle_gamma   90.00000000
_symmetry_Int_Tables_number   1
_chemical_formula_structural   Pr2Mn3(SbS3)4
_chemical_formula_sum   'Pr4 Mn6 Sb8 S24'
_cell_volume   942.00006694
_cell_formula_units_Z   2
loop_
 _symmetry_equiv_pos_site_id
 _symmetry_equiv_pos_as_xyz
  1  'x, y, z'
loop_
 _atom_site_type_symbol
 _atom_site_label
 _atom_site_symmetry_multiplicity
 _atom_site_fract_x
 _atom_site_fract_y
 _atom_site_fract_z
 _atom_site_occupancy
  Pr  Pr0  1  0.25781741  0.50525717  0.85909792  1
  Pr  Pr1  1  0.73668803  0.50038534  0.13514364  1
  Pr  Pr2  1  0.76231417  0.97540504  0.86406874  1
  Pr  Pr3  1  0.24408127  0.98855143  0.14510730  1
  Mn  Mn4  1  0.29904635  0.50338860  0.61707550  1
  Mn  Mn5  1  0.69841821  0.48885647  0.38056372  1
  Mn  Mn6  1  0.00176462  0.01114968  0.99732159  1
  Mn  Mn7  1  0.80147536  0.98998381  0.61825840  1
  Mn  Mn8  1  0.19688209  0.98674080  0.38593801  1
  Mn  Mn9  1  0.50208193  0.49478842  0.00490465  1
  Sb  Sb10  1  0.89442092  0.01348418  0.45266703  1
  Sb  Sb11  1  0.10600000  0.00414881  0.54853572  1
  Sb  Sb12  1  0.03619250  0.50664854  0.81304758  1
  Sb  Sb13  1  0.96540056  0.50723544  0.19293945  1
  Sb  Sb14  1  0.39474364  0.50092640  0.45572550  1
  Sb  Sb15  1  0.60674395  0.49756421  0.55292995  1
  Sb  Sb16  1  0.53842219  0.00296289  0.81624543  1
  Sb  Sb17  1  0.46253314  0.00005732  0.18628662  1
  S  S18  1  0.93879210  0.98573240  0.79792728  1
  S  S19  1  0.06829401  0.01331170  0.20625890  1
  S  S20  1  0.40688622  0.00807069  0.98331609  1
  S  S21  1  0.59950425  0.99673783  0.02074230  1
  S  S22  1  0.16296307  0.00522205  0.90151394  1
  S  S23  1  0.83362949  0.00912475  0.10652552  1
  S  S24  1  0.07991902  0.50690043  0.65114625  1
  S  S25  1  0.91298369  0.48761514  0.34897489  1
  S  S26  1  0.74296528  0.00714659  0.29927418  1
  S  S27  1  0.26068785  0.01073895  0.70425417  1
  S  S28  1  0.16851872  0.46775636  0.45804829  1
  S  S29  1  0.83750755  0.52072333  0.54145532  1
  S  S30  1  0.44252943  0.46054564  0.79619756  1
  S  S31  1  0.55631430  0.46934479  0.19667385  1
  S  S32  1  0.90887884  0.49433287  0.99186782  1
  S  S33  1  0.09365578  0.50496677  0.02250156  1
  S  S34  1  0.66405085  0.48231685  0.89076280  1
  S  S35  1  0.32824468  0.50374098  0.10030988  1
  S  S36  1  0.58443402  0.99973312  0.64890351  1
  S  S37  1  0.41722734  0.00060157  0.36362262  1
  S  S38  1  0.24120195  0.48428742  0.29862499  1
  S  S39  1  0.75734703  0.49782816  0.70534408  1
  S  S40  1  0.66173040  0.01632878  0.44860793  1
  S  S41  1  0.33975594  0.99765499  0.54427552  1
