# generated using pymatgen
data_Pr2Mn3(SbS3)4
_symmetry_space_group_name_H-M   'P 1'
_cell_length_a   20.02960800
_cell_length_b   3.90410600
_cell_length_c   14.95364829
_cell_angle_alpha   90.00000000
_cell_angle_beta   126.33350609
_cell_angle_gamma   90.00000000
_symmetry_Int_Tables_number   1
_chemical_formula_structural   Pr2Mn3(SbS3)4
_chemical_formula_sum   'Pr4 Mn6 Sb8 S24'
_cell_volume   942.00006694
_cell_formula_units_Z   2
loop_
 _symmetry_equiv_pos_site_id
 _symmetry_equiv_pos_as_xyz
  1  'x, y, z'
loop_
 _atom_site_type_symbol
 _atom_site_label
 _atom_site_symmetry_multiplicity
 _atom_site_fract_x
 _atom_site_fract_y
 _atom_site_fract_z
 _atom_site_occupancy
  Pr  Pr0  1  0.26690047  0.48970444  0.86414502  1
  Pr  Pr1  1  0.73644178  0.51216877  0.13694072  1
  Pr  Pr2  1  0.76260368  0.01107753  0.86145901  1
  Pr  Pr3  1  0.23530464  0.00509539  0.13579104  1
  Mn  Mn4  1  0.28788827  0.47908300  0.59331628  1
  Mn  Mn5  1  0.68832641  0.48906837  0.37099960  1
  Mn  Mn6  1  0.00835384  0.98706528  0.02016566  1
  Mn  Mn7  1  0.80592400  0.00927120  0.61857925  1
  Mn  Mn8  1  0.19848220  0.98101957  0.37645275  1
  Mn  Mn9  1  0.49296596  0.47904436  0.99001729  1
  Sb  Sb10  1  0.88971373  0.98644136  0.45008435  1
  Sb  Sb11  1  0.11185875  0.97688567  0.54636176  1
  Sb  Sb12  1  0.04036446  0.52292612  0.82248250  1
  Sb  Sb13  1  0.96291765  0.49785269  0.18312407  1
  Sb  Sb14  1  0.39549254  0.50579450  0.45085237  1
  Sb  Sb15  1  0.60582899  0.47460225  0.54761100  1
  Sb  Sb16  1  0.53268131  0.99857303  0.80771166  1
  Sb  Sb17  1  0.46406022  0.01619014  0.18754840  1
  S  S18  1  0.93715157  0.99835064  0.80430470  1
  S  S19  1  0.06470027  0.98420819  0.20032865  1
  S  S20  1  0.41191222  0.97637880  0.98066439  1
  S  S21  1  0.57752662  0.01406164  0.00961152  1
  S  S22  1  0.17289403  0.03175119  0.90377292  1
  S  S23  1  0.82368547  0.04971922  0.09516213  1
  S  S24  1  0.09633791  0.48200483  0.64660198  1
  S  S25  1  0.91127009  0.48759569  0.35316829  1
  S  S26  1  0.74016647  0.94512635  0.30224918  1
  S  S27  1  0.26420112  0.00437057  0.70866086  1
  S  S28  1  0.15898794  0.48514886  0.42690155  1
  S  S29  1  0.82476008  0.48943758  0.54883967  1
  S  S30  1  0.43165472  0.49851629  0.79911051  1
  S  S31  1  0.55617959  0.51522558  0.18454108  1
  S  S32  1  0.90993934  0.48032010  0.98628965  1
  S  S33  1  0.09228491  0.47591100  0.02756754  1
  S  S34  1  0.66325830  0.50705014  0.88454191  1
  S  S35  1  0.33189082  0.50534515  0.09940096  1
  S  S36  1  0.59737720  0.98572555  0.65500382  1
  S  S37  1  0.40435770  0.98824834  0.34848384  1
  S  S38  1  0.23881694  0.46188844  0.30795381  1
  S  S39  1  0.76163976  0.49478620  0.69698308  1
  S  S40  1  0.66773504  0.02699246  0.45265860  1
  S  S41  1  0.32602745  0.97765732  0.55242959  1
