# generated using pymatgen
data_Pr2Mn3(SbS3)4
_symmetry_space_group_name_H-M   'P 1'
_cell_length_a   20.02960800
_cell_length_b   3.90410600
_cell_length_c   14.95364829
_cell_angle_alpha   90.00000000
_cell_angle_beta   126.33350609
_cell_angle_gamma   90.00000000
_symmetry_Int_Tables_number   1
_chemical_formula_structural   Pr2Mn3(SbS3)4
_chemical_formula_sum   'Pr4 Mn6 Sb8 S24'
_cell_volume   942.00006694
_cell_formula_units_Z   2
loop_
 _symmetry_equiv_pos_site_id
 _symmetry_equiv_pos_as_xyz
  1  'x, y, z'
loop_
 _atom_site_type_symbol
 _atom_site_label
 _atom_site_symmetry_multiplicity
 _atom_site_fract_x
 _atom_site_fract_y
 _atom_site_fract_z
 _atom_site_occupancy
  Pr  Pr0  1  0.25767550  0.50570592  0.85906604  1
  Pr  Pr1  1  0.73651214  0.50117131  0.13506119  1
  Pr  Pr2  1  0.76228736  0.97561916  0.86400641  1
  Pr  Pr3  1  0.24411778  0.98784174  0.14535200  1
  Mn  Mn4  1  0.29917987  0.50318079  0.61708750  1
  Mn  Mn5  1  0.69840203  0.48845589  0.38054053  1
  Mn  Mn6  1  0.00179628  0.01081463  0.99750486  1
  Mn  Mn7  1  0.80144154  0.99020418  0.61801613  1
  Mn  Mn8  1  0.19685142  0.98697885  0.38627354  1
  Mn  Mn9  1  0.50227353  0.49449096  0.00523472  1
  Sb  Sb10  1  0.89451588  0.01379060  0.45275117  1
  Sb  Sb11  1  0.10595988  0.00458468  0.54850121  1
  Sb  Sb12  1  0.03623816  0.50721088  0.81280343  1
  Sb  Sb13  1  0.96557598  0.50719456  0.19324887  1
  Sb  Sb14  1  0.39495210  0.50078609  0.45575073  1
  Sb  Sb15  1  0.60670159  0.49820683  0.55306311  1
  Sb  Sb16  1  0.53842191  0.00343169  0.81654596  1
  Sb  Sb17  1  0.46248604  0.00025777  0.18635538  1
  S  S18  1  0.93862095  0.98592234  0.79813477  1
  S  S19  1  0.06817405  0.01358636  0.20613706  1
  S  S20  1  0.40712954  0.00784635  0.98377702  1
  S  S21  1  0.59959947  0.99726091  0.02116606  1
  S  S22  1  0.16318426  0.00540916  0.90166238  1
  S  S23  1  0.83350184  0.00819577  0.10679680  1
  S  S24  1  0.07989324  0.50686762  0.65121230  1
  S  S25  1  0.91286816  0.48727611  0.34893966  1
  S  S26  1  0.74310215  0.00729356  0.29937606  1
  S  S27  1  0.26066231  0.01014872  0.70400756  1
  S  S28  1  0.16890596  0.46804981  0.45806137  1
  S  S29  1  0.83736371  0.52146970  0.54213125  1
  S  S30  1  0.44280231  0.45961177  0.79641995  1
  S  S31  1  0.55647287  0.46944342  0.19703128  1
  S  S32  1  0.90917331  0.49340162  0.99203270  1
  S  S33  1  0.09340913  0.50434469  0.02261157  1
  S  S34  1  0.66397815  0.48204760  0.89086675  1
  S  S35  1  0.32826152  0.50386829  0.10019512  1
  S  S36  1  0.58449703  0.99942980  0.64957202  1
  S  S37  1  0.41721954  0.99898626  0.36402692  1
  S  S38  1  0.24114535  0.48249873  0.29813594  1
  S  S39  1  0.75732707  0.49789905  0.70531073  1
  S  S40  1  0.66176727  0.01696989  0.44844154  1
  S  S41  1  0.33934521  0.99767967  0.54424052  1
