# generated using pymatgen
data_Pr2Mn3(SbS3)4
_symmetry_space_group_name_H-M   'P 1'
_cell_length_a   20.02960800
_cell_length_b   3.90410600
_cell_length_c   14.95364829
_cell_angle_alpha   90.00000000
_cell_angle_beta   126.33350609
_cell_angle_gamma   90.00000000
_symmetry_Int_Tables_number   1
_chemical_formula_structural   Pr2Mn3(SbS3)4
_chemical_formula_sum   'Pr4 Mn6 Sb8 S24'
_cell_volume   942.00006694
_cell_formula_units_Z   2
loop_
 _symmetry_equiv_pos_site_id
 _symmetry_equiv_pos_as_xyz
  1  'x, y, z'
loop_
 _atom_site_type_symbol
 _atom_site_label
 _atom_site_symmetry_multiplicity
 _atom_site_fract_x
 _atom_site_fract_y
 _atom_site_fract_z
 _atom_site_occupancy
  Pr  Pr0  1  0.25741850  0.50644389  0.85900106  1
  Pr  Pr1  1  0.73630714  0.50186160  0.13493083  1
  Pr  Pr2  1  0.76227858  0.97592159  0.86400194  1
  Pr  Pr3  1  0.24418116  0.98709690  0.14566658  1
  Mn  Mn4  1  0.29917846  0.50268554  0.61697118  1
  Mn  Mn5  1  0.69829170  0.48792638  0.38054681  1
  Mn  Mn6  1  0.00186436  0.01114152  0.99770479  1
  Mn  Mn7  1  0.80134111  0.99014940  0.61767504  1
  Mn  Mn8  1  0.19667885  0.98734888  0.38651469  1
  Mn  Mn9  1  0.50240080  0.49414725  0.00551556  1
  Sb  Sb10  1  0.89458580  0.01399857  0.45274261  1
  Sb  Sb11  1  0.10589210  0.00479750  0.54841413  1
  Sb  Sb12  1  0.03624995  0.50793644  0.81263709  1
  Sb  Sb13  1  0.96592257  0.50706374  0.19360358  1
  Sb  Sb14  1  0.39516397  0.50084950  0.45578315  1
  Sb  Sb15  1  0.60660867  0.49905648  0.55320842  1
  Sb  Sb16  1  0.53842660  0.00346013  0.81682026  1
  Sb  Sb17  1  0.46252106  0.00065085  0.18657228  1
  S  S18  1  0.93846450  0.98622310  0.79833950  1
  S  S19  1  0.06811747  0.01419312  0.20596478  1
  S  S20  1  0.40728560  0.00787414  0.98422082  1
  S  S21  1  0.59970373  0.99746046  0.02153761  1
  S  S22  1  0.16322641  0.00523349  0.90167638  1
  S  S23  1  0.83341621  0.00605010  0.10709194  1
  S  S24  1  0.07981693  0.50642541  0.65123325  1
  S  S25  1  0.91272224  0.48724358  0.34883391  1
  S  S26  1  0.74317686  0.00737509  0.29941516  1
  S  S27  1  0.26072976  0.00932696  0.70388006  1
  S  S28  1  0.16928307  0.46843039  0.45816119  1
  S  S29  1  0.83725818  0.52216914  0.54286161  1
  S  S30  1  0.44317101  0.45947673  0.79674967  1
  S  S31  1  0.55669689  0.46983322  0.19746977  1
  S  S32  1  0.90950075  0.49270393  0.99209645  1
  S  S33  1  0.09321867  0.50356148  0.02273755  1
  S  S34  1  0.66392708  0.48195531  0.89098928  1
  S  S35  1  0.32828301  0.50445233  0.10017089  1
  S  S36  1  0.58463283  0.99949028  0.65017998  1
  S  S37  1  0.41740225  0.99710141  0.36451290  1
  S  S38  1  0.24119690  0.48096168  0.29760194  1
  S  S39  1  0.75729148  0.49860684  0.70520671  1
  S  S40  1  0.66187131  0.01721042  0.44812446  1
  S  S41  1  0.33899983  0.99800363  0.54424317  1
