# generated using pymatgen
data_Pr2Mn3(SbS3)4
_symmetry_space_group_name_H-M   'P 1'
_cell_length_a   20.02960800
_cell_length_b   3.90410600
_cell_length_c   14.95364829
_cell_angle_alpha   90.00000000
_cell_angle_beta   126.33350609
_cell_angle_gamma   90.00000000
_symmetry_Int_Tables_number   1
_chemical_formula_structural   Pr2Mn3(SbS3)4
_chemical_formula_sum   'Pr4 Mn6 Sb8 S24'
_cell_volume   942.00006694
_cell_formula_units_Z   2
loop_
 _symmetry_equiv_pos_site_id
 _symmetry_equiv_pos_as_xyz
  1  'x, y, z'
loop_
 _atom_site_type_symbol
 _atom_site_label
 _atom_site_symmetry_multiplicity
 _atom_site_fract_x
 _atom_site_fract_y
 _atom_site_fract_z
 _atom_site_occupancy
  Pr  Pr0  1  0.25709583  0.50705070  0.85884785  1
  Pr  Pr1  1  0.73609750  0.50229846  0.13471598  1
  Pr  Pr2  1  0.76232574  0.97607227  0.86410652  1
  Pr  Pr3  1  0.24425909  0.98621085  0.14594046  1
  Mn  Mn4  1  0.29905528  0.50173669  0.61682339  1
  Mn  Mn5  1  0.69830020  0.48749378  0.38064557  1
  Mn  Mn6  1  0.00187883  0.01146377  0.99774851  1
  Mn  Mn7  1  0.80118095  0.99003408  0.61719705  1
  Mn  Mn8  1  0.19658864  0.98770373  0.38681276  1
  Mn  Mn9  1  0.50250965  0.49363183  0.00573951  1
  Sb  Sb10  1  0.89474965  0.01407711  0.45285263  1
  Sb  Sb11  1  0.10580804  0.00530320  0.54829371  1
  Sb  Sb12  1  0.03627726  0.50887851  0.81255814  1
  Sb  Sb13  1  0.96634972  0.50715131  0.19402087  1
  Sb  Sb14  1  0.39534351  0.50086989  0.45583599  1
  Sb  Sb15  1  0.60653520  0.49955001  0.55336827  1
  Sb  Sb16  1  0.53853753  0.00348258  0.81719002  1
  Sb  Sb17  1  0.46263152  0.00091304  0.18687599  1
  S  S18  1  0.93826654  0.98581780  0.79844468  1
  S  S19  1  0.06798662  0.01457117  0.20581527  1
  S  S20  1  0.40734844  0.00798222  0.98452768  1
  S  S21  1  0.59990244  0.99714218  0.02213997  1
  S  S22  1  0.16335357  0.00504209  0.90195798  1
  S  S23  1  0.83336118  0.00420719  0.10736045  1
  S  S24  1  0.07986374  0.50610567  0.65134085  1
  S  S25  1  0.91271083  0.48724772  0.34885313  1
  S  S26  1  0.74311701  0.00740213  0.29930422  1
  S  S27  1  0.26069679  0.00813655  0.70378745  1
  S  S28  1  0.16935111  0.46862057  0.45821850  1
  S  S29  1  0.83703575  0.52332420  0.54341811  1
  S  S30  1  0.44346418  0.46002653  0.79718430  1
  S  S31  1  0.55692571  0.47079766  0.19788153  1
  S  S32  1  0.90968397  0.49268374  0.99201991  1
  S  S33  1  0.09295633  0.50334230  0.02268749  1
  S  S34  1  0.66388894  0.48206757  0.89105451  1
  S  S35  1  0.32835479  0.50507460  0.10010808  1
  S  S36  1  0.58464548  0.99955096  0.65074206  1
  S  S37  1  0.41752762  0.99540229  0.36471539  1
  S  S38  1  0.24118245  0.47927597  0.29707615  1
  S  S39  1  0.75735141  0.49895457  0.70485618  1
  S  S40  1  0.66201073  0.01722694  0.44790843  1
  S  S41  1  0.33850319  0.99847680  0.54397418  1
