# generated using pymatgen
data_Pr2Mn3(SbS3)4
_symmetry_space_group_name_H-M   'P 1'
_cell_length_a   20.02960800
_cell_length_b   3.90410600
_cell_length_c   14.95364829
_cell_angle_alpha   90.00000000
_cell_angle_beta   126.33350609
_cell_angle_gamma   90.00000000
_symmetry_Int_Tables_number   1
_chemical_formula_structural   Pr2Mn3(SbS3)4
_chemical_formula_sum   'Pr4 Mn6 Sb8 S24'
_cell_volume   942.00006694
_cell_formula_units_Z   2
loop_
 _symmetry_equiv_pos_site_id
 _symmetry_equiv_pos_as_xyz
  1  'x, y, z'
loop_
 _atom_site_type_symbol
 _atom_site_label
 _atom_site_symmetry_multiplicity
 _atom_site_fract_x
 _atom_site_fract_y
 _atom_site_fract_z
 _atom_site_occupancy
  Pr  Pr0  1  0.25679802  0.50807542  0.85867896  1
  Pr  Pr1  1  0.73587970  0.50295508  0.13449351  1
  Pr  Pr2  1  0.76230374  0.97622845  0.86415649  1
  Pr  Pr3  1  0.24439109  0.98543641  0.14618020  1
  Mn  Mn4  1  0.29893121  0.50080213  0.61651713  1
  Mn  Mn5  1  0.69822146  0.48730761  0.38053970  1
  Mn  Mn6  1  0.00190494  0.01187544  0.99788018  1
  Mn  Mn7  1  0.80101345  0.98955405  0.61681992  1
  Mn  Mn8  1  0.19661854  0.98782563  0.38706582  1
  Mn  Mn9  1  0.50263334  0.49354678  0.00596268  1
  Sb  Sb10  1  0.89492901  0.01431044  0.45299383  1
  Sb  Sb11  1  0.10570249  0.00581229  0.54812894  1
  Sb  Sb12  1  0.03631205  0.50968713  0.81255774  1
  Sb  Sb13  1  0.96674405  0.50706624  0.19442837  1
  Sb  Sb14  1  0.39558366  0.50107037  0.45598577  1
  Sb  Sb15  1  0.60650900  0.50001685  0.55346435  1
  Sb  Sb16  1  0.53859561  0.00322817  0.81747172  1
  Sb  Sb17  1  0.46273815  0.00134334  0.18715022  1
  S  S18  1  0.93817294  0.98580486  0.79880158  1
  S  S19  1  0.06775933  0.01475043  0.20542487  1
  S  S20  1  0.40737558  0.00791037  0.98486011  1
  S  S21  1  0.60020598  0.99723295  0.02273442  1
  S  S22  1  0.16353732  0.00533235  0.90220141  1
  S  S23  1  0.83334458  0.00224142  0.10752903  1
  S  S24  1  0.08008480  0.50545411  0.65149545  1
  S  S25  1  0.91279841  0.48752434  0.34904002  1
  S  S26  1  0.74294320  0.00720922  0.29914401  1
  S  S27  1  0.26055832  0.00723671  0.70364394  1
  S  S28  1  0.16940695  0.46793147  0.45820435  1
  S  S29  1  0.83681389  0.52426183  0.54399659  1
  S  S30  1  0.44364645  0.46081519  0.79755664  1
  S  S31  1  0.55709305  0.47235547  0.19818235  1
  S  S32  1  0.90997529  0.49170048  0.99181934  1
  S  S33  1  0.09267479  0.50273728  0.02270613  1
  S  S34  1  0.66392604  0.48230009  0.89104555  1
  S  S35  1  0.32847173  0.50505224  0.10013307  1
  S  S36  1  0.58455491  0.00005194  0.65132429  1
  S  S37  1  0.41765417  0.99345566  0.36479192  1
  S  S38  1  0.24116579  0.47682331  0.29671491  1
  S  S39  1  0.75734821  0.49914218  0.70441725  1
  S  S40  1  0.66231110  0.01645955  0.44768461  1
  S  S41  1  0.33802779  0.99878330  0.54375244  1
