# generated using pymatgen
data_Pr2Mn3(SbS3)4
_symmetry_space_group_name_H-M   'P 1'
_cell_length_a   20.02960800
_cell_length_b   3.90410600
_cell_length_c   14.95364829
_cell_angle_alpha   90.00000000
_cell_angle_beta   126.33350609
_cell_angle_gamma   90.00000000
_symmetry_Int_Tables_number   1
_chemical_formula_structural   Pr2Mn3(SbS3)4
_chemical_formula_sum   'Pr4 Mn6 Sb8 S24'
_cell_volume   942.00006694
_cell_formula_units_Z   2
loop_
 _symmetry_equiv_pos_site_id
 _symmetry_equiv_pos_as_xyz
  1  'x, y, z'
loop_
 _atom_site_type_symbol
 _atom_site_label
 _atom_site_symmetry_multiplicity
 _atom_site_fract_x
 _atom_site_fract_y
 _atom_site_fract_z
 _atom_site_occupancy
  Pr  Pr0  1  0.25659360  0.50890750  0.85872132  1
  Pr  Pr1  1  0.73567994  0.50355271  0.13430725  1
  Pr  Pr2  1  0.76224578  0.97631130  0.86431137  1
  Pr  Pr3  1  0.24456841  0.98488706  0.14641137  1
  Mn  Mn4  1  0.29883751  0.49994072  0.61622064  1
  Mn  Mn5  1  0.69809701  0.48776166  0.38040785  1
  Mn  Mn6  1  0.00200838  0.01189683  0.99788283  1
  Mn  Mn7  1  0.80077249  0.98881465  0.61625170  1
  Mn  Mn8  1  0.19663563  0.98790883  0.38723632  1
  Mn  Mn9  1  0.50285170  0.49346957  0.00636089  1
  Sb  Sb10  1  0.89509311  0.01479302  0.45308267  1
  Sb  Sb11  1  0.10561238  0.00624044  0.54797803  1
  Sb  Sb12  1  0.03638232  0.51060531  0.81265362  1
  Sb  Sb13  1  0.96712811  0.50711033  0.19477106  1
  Sb  Sb14  1  0.39586158  0.50154735  0.45619337  1
  Sb  Sb15  1  0.60655609  0.50074468  0.55357498  1
  Sb  Sb16  1  0.53865849  0.00295611  0.81774258  1
  Sb  Sb17  1  0.46283266  0.00126948  0.18736070  1
  S  S18  1  0.93815379  0.98565331  0.79920290  1
  S  S19  1  0.06767486  0.01496623  0.20504906  1
  S  S20  1  0.40738410  0.00751310  0.98515685  1
  S  S21  1  0.60037458  0.99732099  0.02345312  1
  S  S22  1  0.16369929  0.00557824  0.90246132  1
  S  S23  1  0.83341114  0.00106986  0.10769312  1
  S  S24  1  0.08029807  0.50447423  0.65149845  1
  S  S25  1  0.91293745  0.48747896  0.34923969  1
  S  S26  1  0.74285780  0.00744135  0.29916683  1
  S  S27  1  0.26059990  0.00654002  0.70367692  1
  S  S28  1  0.16936517  0.46652926  0.45788226  1
  S  S29  1  0.83653985  0.52510883  0.54449630  1
  S  S30  1  0.44393341  0.46156208  0.79806006  1
  S  S31  1  0.55720939  0.47453014  0.19831161  1
  S  S32  1  0.91021450  0.49089904  0.99160784  1
  S  S33  1  0.09244586  0.50159278  0.02281987  1
  S  S34  1  0.66399265  0.48234538  0.89102861  1
  S  S35  1  0.32859220  0.50447643  0.10032226  1
  S  S36  1  0.58447048  0.00088447  0.65185575  1
  S  S37  1  0.41766625  0.99196929  0.36465293  1
  S  S38  1  0.24119399  0.47492162  0.29637464  1
  S  S39  1  0.75744077  0.49947473  0.70400418  1
  S  S40  1  0.66261118  0.01554203  0.44752281  1
  S  S41  1  0.33767729  0.99952659  0.54357509  1
