# generated using pymatgen
data_Pr2Mn3(SbS3)4
_symmetry_space_group_name_H-M   'P 1'
_cell_length_a   20.02960800
_cell_length_b   3.90410600
_cell_length_c   14.95364829
_cell_angle_alpha   90.00000000
_cell_angle_beta   126.33350609
_cell_angle_gamma   90.00000000
_symmetry_Int_Tables_number   1
_chemical_formula_structural   Pr2Mn3(SbS3)4
_chemical_formula_sum   'Pr4 Mn6 Sb8 S24'
_cell_volume   942.00006694
_cell_formula_units_Z   2
loop_
 _symmetry_equiv_pos_site_id
 _symmetry_equiv_pos_as_xyz
  1  'x, y, z'
loop_
 _atom_site_type_symbol
 _atom_site_label
 _atom_site_symmetry_multiplicity
 _atom_site_fract_x
 _atom_site_fract_y
 _atom_site_fract_z
 _atom_site_occupancy
  Pr  Pr0  1  0.25643536  0.50976363  0.85877123  1
  Pr  Pr1  1  0.73550167  0.50421680  0.13408381  1
  Pr  Pr2  1  0.76222479  0.97604019  0.86447731  1
  Pr  Pr3  1  0.24472090  0.98452875  0.14657121  1
  Mn  Mn4  1  0.29880444  0.49979129  0.61607073  1
  Mn  Mn5  1  0.69806002  0.48757838  0.38041655  1
  Mn  Mn6  1  0.00205608  0.01175714  0.99779133  1
  Mn  Mn7  1  0.80062776  0.98829889  0.61586123  1
  Mn  Mn8  1  0.19672619  0.98790913  0.38744108  1
  Mn  Mn9  1  0.50311748  0.49334533  0.00685872  1
  Sb  Sb10  1  0.89528509  0.01515703  0.45324974  1
  Sb  Sb11  1  0.10552352  0.00675203  0.54777328  1
  Sb  Sb12  1  0.03641092  0.51140670  0.81272393  1
  Sb  Sb13  1  0.96747866  0.50718899  0.19509271  1
  Sb  Sb14  1  0.39606159  0.50204207  0.45634557  1
  Sb  Sb15  1  0.60661176  0.50136600  0.55370629  1
  Sb  Sb16  1  0.53868055  0.00296050  0.81795542  1
  Sb  Sb17  1  0.46287457  0.00100474  0.18751977  1
  S  S18  1  0.93827175  0.98549415  0.79981482  1
  S  S19  1  0.06762313  0.01490149  0.20485256  1
  S  S20  1  0.40764831  0.00768404  0.98558892  1
  S  S21  1  0.60037603  0.99783278  0.02399205  1
  S  S22  1  0.16379565  0.00554659  0.90258989  1
  S  S23  1  0.83322744  0.99930481  0.10750419  1
  S  S24  1  0.08033530  0.50389390  0.65143379  1
  S  S25  1  0.91299503  0.48742754  0.34935345  1
  S  S26  1  0.74273414  0.00835297  0.29902659  1
  S  S27  1  0.26074342  0.00589468  0.70369299  1
  S  S28  1  0.16933532  0.46570972  0.45768389  1
  S  S29  1  0.83628116  0.52553297  0.54498632  1
  S  S30  1  0.44414584  0.46212720  0.79838128  1
  S  S31  1  0.55739106  0.47709539  0.19864563  1
  S  S32  1  0.91040058  0.49001875  0.99127708  1
  S  S33  1  0.09215589  0.50085498  0.02282868  1
  S  S34  1  0.66396003  0.48249196  0.89070456  1
  S  S35  1  0.32881113  0.50371184  0.10066767  1
  S  S36  1  0.58438006  0.00167411  0.65235323  1
  S  S37  1  0.41780573  0.99044863  0.36474977  1
  S  S38  1  0.24117471  0.47359706  0.29604686  1
  S  S39  1  0.75744604  0.50033344  0.70352743  1
  S  S40  1  0.66299201  0.01475868  0.44732798  1
  S  S41  1  0.33738924  0.00031776  0.54326346  1
