# generated using pymatgen
data_Pr2Mn3(SbS3)4
_symmetry_space_group_name_H-M   'P 1'
_cell_length_a   20.02960800
_cell_length_b   3.90410600
_cell_length_c   14.95364829
_cell_angle_alpha   90.00000000
_cell_angle_beta   126.33350609
_cell_angle_gamma   90.00000000
_symmetry_Int_Tables_number   1
_chemical_formula_structural   Pr2Mn3(SbS3)4
_chemical_formula_sum   'Pr4 Mn6 Sb8 S24'
_cell_volume   942.00006694
_cell_formula_units_Z   2
loop_
 _symmetry_equiv_pos_site_id
 _symmetry_equiv_pos_as_xyz
  1  'x, y, z'
loop_
 _atom_site_type_symbol
 _atom_site_label
 _atom_site_symmetry_multiplicity
 _atom_site_fract_x
 _atom_site_fract_y
 _atom_site_fract_z
 _atom_site_occupancy
  Pr  Pr0  1  0.25633427  0.51044456  0.85884044  1
  Pr  Pr1  1  0.73530176  0.50471817  0.13376540  1
  Pr  Pr2  1  0.76217433  0.97567012  0.86456530  1
  Pr  Pr3  1  0.24483537  0.98405113  0.14667628  1
  Mn  Mn4  1  0.29873590  0.49967840  0.61588446  1
  Mn  Mn5  1  0.69807877  0.48723484  0.38045560  1
  Mn  Mn6  1  0.00205596  0.01136758  0.99768950  1
  Mn  Mn7  1  0.80056311  0.98737294  0.61548008  1
  Mn  Mn8  1  0.19686289  0.98765219  0.38775881  1
  Mn  Mn9  1  0.50340215  0.49387824  0.00737867  1
  Sb  Sb10  1  0.89544827  0.01562978  0.45344294  1
  Sb  Sb11  1  0.10539116  0.00752614  0.54756802  1
  Sb  Sb12  1  0.03644761  0.51211807  0.81283154  1
  Sb  Sb13  1  0.96778764  0.50755060  0.19534199  1
  Sb  Sb14  1  0.39617566  0.50293939  0.45635878  1
  Sb  Sb15  1  0.60660306  0.50185233  0.55370323  1
  Sb  Sb16  1  0.53871353  0.00303174  0.81817882  1
  Sb  Sb17  1  0.46286937  0.00049484  0.18766037  1
  S  S18  1  0.93836441  0.98624500  0.80022505  1
  S  S19  1  0.06754297  0.01515325  0.20488960  1
  S  S20  1  0.40780529  0.00797355  0.98596421  1
  S  S21  1  0.60018475  0.99837303  0.02427201  1
  S  S22  1  0.16380299  0.00584921  0.90262933  1
  S  S23  1  0.83308388  0.99723630  0.10738596  1
  S  S24  1  0.08027011  0.50274395  0.65122780  1
  S  S25  1  0.91295471  0.48741360  0.34925920  1
  S  S26  1  0.74258369  0.00926720  0.29887965  1
  S  S27  1  0.26084547  0.00513051  0.70379110  1
  S  S28  1  0.16941322  0.46534736  0.45755628  1
  S  S29  1  0.83604184  0.52601195  0.54552863  1
  S  S30  1  0.44435174  0.46335952  0.79872170  1
  S  S31  1  0.55761053  0.47950402  0.19886549  1
  S  S32  1  0.91056967  0.48873555  0.99079706  1
  S  S33  1  0.09180397  0.49991590  0.02265586  1
  S  S34  1  0.66383280  0.48310997  0.89035525  1
  S  S35  1  0.32907132  0.50351308  0.10094441  1
  S  S36  1  0.58416295  0.00249595  0.65276174  1
  S  S37  1  0.41782280  0.98926116  0.36474085  1
  S  S38  1  0.24116647  0.47268417  0.29577935  1
  S  S39  1  0.75757621  0.50173397  0.70312482  1
  S  S40  1  0.66331643  0.01376502  0.44717208  1
  S  S41  1  0.33715821  0.00140740  0.54300335  1
