# generated using pymatgen
data_Pr2Mn3(SbS3)4
_symmetry_space_group_name_H-M   'P 1'
_cell_length_a   20.02960800
_cell_length_b   3.90410600
_cell_length_c   14.95364829
_cell_angle_alpha   90.00000000
_cell_angle_beta   126.33350609
_cell_angle_gamma   90.00000000
_symmetry_Int_Tables_number   1
_chemical_formula_structural   Pr2Mn3(SbS3)4
_chemical_formula_sum   'Pr4 Mn6 Sb8 S24'
_cell_volume   942.00006694
_cell_formula_units_Z   2
loop_
 _symmetry_equiv_pos_site_id
 _symmetry_equiv_pos_as_xyz
  1  'x, y, z'
loop_
 _atom_site_type_symbol
 _atom_site_label
 _atom_site_symmetry_multiplicity
 _atom_site_fract_x
 _atom_site_fract_y
 _atom_site_fract_z
 _atom_site_occupancy
  Pr  Pr0  1  0.25627062  0.51066694  0.85894359  1
  Pr  Pr1  1  0.73508524  0.50537144  0.13351971  1
  Pr  Pr2  1  0.76219243  0.97493738  0.86463997  1
  Pr  Pr3  1  0.24495960  0.98342725  0.14685946  1
  Mn  Mn4  1  0.29861312  0.49901204  0.61579727  1
  Mn  Mn5  1  0.69812898  0.48694840  0.38053636  1
  Mn  Mn6  1  0.00211668  0.01071103  0.99757462  1
  Mn  Mn7  1  0.80056665  0.98638434  0.61514662  1
  Mn  Mn8  1  0.19700292  0.98730890  0.38804055  1
  Mn  Mn9  1  0.50357378  0.49505166  0.00776827  1
  Sb  Sb10  1  0.89559710  0.01590192  0.45361491  1
  Sb  Sb11  1  0.10520548  0.00839692  0.54738296  1
  Sb  Sb12  1  0.03651305  0.51215424  0.81301602  1
  Sb  Sb13  1  0.96811789  0.50818479  0.19566614  1
  Sb  Sb14  1  0.39629919  0.50387282  0.45639554  1
  Sb  Sb15  1  0.60658395  0.50214826  0.55367708  1
  Sb  Sb16  1  0.53866456  0.00305882  0.81831579  1
  Sb  Sb17  1  0.46282404  0.00011642  0.18775540  1
  S  S18  1  0.93852557  0.98745149  0.80086946  1
  S  S19  1  0.06745031  0.01466649  0.20512936  1
  S  S20  1  0.40805419  0.00825752  0.98647848  1
  S  S21  1  0.59992077  0.99864051  0.02430610  1
  S  S22  1  0.16392307  0.00598029  0.90289313  1
  S  S23  1  0.83293386  0.99542977  0.10738552  1
  S  S24  1  0.08033570  0.50197299  0.65125321  1
  S  S25  1  0.91285042  0.48756424  0.34906888  1
  S  S26  1  0.74252633  0.01016031  0.29866333  1
  S  S27  1  0.26071648  0.00572450  0.70363156  1
  S  S28  1  0.16971404  0.46501788  0.45759899  1
  S  S29  1  0.83572371  0.52635021  0.54600485  1
  S  S30  1  0.44464544  0.46474452  0.79907475  1
  S  S31  1  0.55771236  0.48213558  0.19900702  1
  S  S32  1  0.91059559  0.48746359  0.99038314  1
  S  S33  1  0.09159914  0.49913303  0.02265644  1
  S  S34  1  0.66362412  0.48360331  0.89006581  1
  S  S35  1  0.32914007  0.50364698  0.10111048  1
  S  S36  1  0.58378988  0.00414529  0.65299693  1
  S  S37  1  0.41790102  0.98837379  0.36459838  1
  S  S38  1  0.24129942  0.47184228  0.29566876  1
  S  S39  1  0.75763120  0.50304404  0.70259627  1
  S  S40  1  0.66362687  0.01303702  0.44687067  1
  S  S41  1  0.33696779  0.00295816  0.54288561  1
