# generated using pymatgen
data_Pr2Mn3(SbS3)4
_symmetry_space_group_name_H-M   'P 1'
_cell_length_a   20.02960800
_cell_length_b   3.90410600
_cell_length_c   14.95364829
_cell_angle_alpha   90.00000000
_cell_angle_beta   126.33350609
_cell_angle_gamma   90.00000000
_symmetry_Int_Tables_number   1
_chemical_formula_structural   Pr2Mn3(SbS3)4
_chemical_formula_sum   'Pr4 Mn6 Sb8 S24'
_cell_volume   942.00006694
_cell_formula_units_Z   2
loop_
 _symmetry_equiv_pos_site_id
 _symmetry_equiv_pos_as_xyz
  1  'x, y, z'
loop_
 _atom_site_type_symbol
 _atom_site_label
 _atom_site_symmetry_multiplicity
 _atom_site_fract_x
 _atom_site_fract_y
 _atom_site_fract_z
 _atom_site_occupancy
  Pr  Pr0  1  0.25629770  0.51118977  0.85900898  1
  Pr  Pr1  1  0.73483569  0.50578977  0.13323519  1
  Pr  Pr2  1  0.76222662  0.97415301  0.86465409  1
  Pr  Pr3  1  0.24510733  0.98286266  0.14702643  1
  Mn  Mn4  1  0.29852058  0.49922363  0.61578194  1
  Mn  Mn5  1  0.69816044  0.48686689  0.38052888  1
  Mn  Mn6  1  0.00217274  0.00954181  0.99750087  1
  Mn  Mn7  1  0.80045924  0.98598140  0.61471045  1
  Mn  Mn8  1  0.19707122  0.98666440  0.38817921  1
  Mn  Mn9  1  0.50366980  0.49559012  0.00801557  1
  Sb  Sb10  1  0.89581266  0.01619988  0.45390881  1
  Sb  Sb11  1  0.10503286  0.00917801  0.54729521  1
  Sb  Sb12  1  0.03658091  0.51185798  0.81323597  1
  Sb  Sb13  1  0.96838612  0.50865645  0.19599773  1
  Sb  Sb14  1  0.39643488  0.50466684  0.45644731  1
  Sb  Sb15  1  0.60667784  0.50244926  0.55377537  1
  Sb  Sb16  1  0.53861668  0.00341189  0.81848854  1
  Sb  Sb17  1  0.46280526  0.99964966  0.18786726  1
  S  S18  1  0.93873046  0.98832910  0.80155486  1
  S  S19  1  0.06744922  0.01398340  0.20540543  1
  S  S20  1  0.40823387  0.00780879  0.98685226  1
  S  S21  1  0.59977823  0.99870159  0.02435994  1
  S  S22  1  0.16399211  0.00670152  0.90315646  1
  S  S23  1  0.83260328  0.99370833  0.10727467  1
  S  S24  1  0.08049258  0.50090344  0.65127509  1
  S  S25  1  0.91286602  0.48717883  0.34905235  1
  S  S26  1  0.74249042  0.01134966  0.29865101  1
  S  S27  1  0.26068758  0.00641470  0.70357964  1
  S  S28  1  0.17011230  0.46524980  0.45759967  1
  S  S29  1  0.83531104  0.52647812  0.54649208  1
  S  S30  1  0.44488448  0.46674876  0.79948140  1
  S  S31  1  0.55771705  0.48418163  0.19897000  1
  S  S32  1  0.91069954  0.48614858  0.99007620  1
  S  S33  1  0.09126376  0.49764714  0.02244408  1
  S  S34  1  0.66355502  0.48327132  0.89005354  1
  S  S35  1  0.32917987  0.50344625  0.10128199  1
  S  S36  1  0.58345622  0.00546498  0.65331218  1
  S  S37  1  0.41802352  0.98768519  0.36438542  1
  S  S38  1  0.24140279  0.47153640  0.29551846  1
  S  S39  1  0.75758293  0.50460303  0.70201937  1
  S  S40  1  0.66399848  0.01276571  0.44675330  1
  S  S41  1  0.33680536  0.00353263  0.54284222  1
