# generated using pymatgen
data_Pr2Mn3(SbS3)4
_symmetry_space_group_name_H-M   'P 1'
_cell_length_a   20.02960800
_cell_length_b   3.90410600
_cell_length_c   14.95364829
_cell_angle_alpha   90.00000000
_cell_angle_beta   126.33350609
_cell_angle_gamma   90.00000000
_symmetry_Int_Tables_number   1
_chemical_formula_structural   Pr2Mn3(SbS3)4
_chemical_formula_sum   'Pr4 Mn6 Sb8 S24'
_cell_volume   942.00006694
_cell_formula_units_Z   2
loop_
 _symmetry_equiv_pos_site_id
 _symmetry_equiv_pos_as_xyz
  1  'x, y, z'
loop_
 _atom_site_type_symbol
 _atom_site_label
 _atom_site_symmetry_multiplicity
 _atom_site_fract_x
 _atom_site_fract_y
 _atom_site_fract_z
 _atom_site_occupancy
  Pr  Pr0  1  0.25631948  0.51170065  0.85898237  1
  Pr  Pr1  1  0.73461126  0.50619824  0.13294189  1
  Pr  Pr2  1  0.76237939  0.97336487  0.86485436  1
  Pr  Pr3  1  0.24520133  0.98234614  0.14716322  1
  Mn  Mn4  1  0.29839293  0.50001607  0.61566815  1
  Mn  Mn5  1  0.69813097  0.48654107  0.38040941  1
  Mn  Mn6  1  0.00223942  0.00829984  0.99747939  1
  Mn  Mn7  1  0.80037591  0.98567296  0.61432574  1
  Mn  Mn8  1  0.19709017  0.98616733  0.38839623  1
  Mn  Mn9  1  0.50377013  0.49586433  0.00827386  1
  Sb  Sb10  1  0.89606772  0.01653611  0.45414809  1
  Sb  Sb11  1  0.10494696  0.00989054  0.54724154  1
  Sb  Sb12  1  0.03665793  0.51190250  0.81349272  1
  Sb  Sb13  1  0.96859726  0.50902761  0.19628548  1
  Sb  Sb14  1  0.39651661  0.50536791  0.45646603  1
  Sb  Sb15  1  0.60676534  0.50282298  0.55396578  1
  Sb  Sb16  1  0.53859300  0.00423891  0.81857799  1
  Sb  Sb17  1  0.46283938  0.99932436  0.18802526  1
  S  S18  1  0.93872959  0.98947736  0.80198979  1
  S  S19  1  0.06747501  0.01350843  0.20569435  1
  S  S20  1  0.40843231  0.00750815  0.98709207  1
  S  S21  1  0.59965033  0.99891585  0.02442678  1
  S  S22  1  0.16408191  0.00733175  0.90346550  1
  S  S23  1  0.83231300  0.99223660  0.10727884  1
  S  S24  1  0.08063357  0.49986158  0.65123089  1
  S  S25  1  0.91302908  0.48655859  0.34926622  1
  S  S26  1  0.74233489  0.01220393  0.29859035  1
  S  S27  1  0.26076616  0.00690833  0.70377167  1
  S  S28  1  0.17046329  0.46536582  0.45744466  1
  S  S29  1  0.83499952  0.52667446  0.54703609  1
  S  S30  1  0.44526233  0.46817967  0.79997335  1
  S  S31  1  0.55781450  0.48698385  0.19904920  1
  S  S32  1  0.91068472  0.48545142  0.98967686  1
  S  S33  1  0.09083884  0.49616865  0.02215355  1
  S  S34  1  0.66344352  0.48297810  0.89007357  1
  S  S35  1  0.32919155  0.50302197  0.10143564  1
  S  S36  1  0.58311849  0.00640405  0.65351776  1
  S  S37  1  0.41798008  0.98660830  0.36411445  1
  S  S38  1  0.24152888  0.47136137  0.29542117  1
  S  S39  1  0.75760328  0.50654226  0.70143096  1
  S  S40  1  0.66425725  0.01274018  0.44652420  1
  S  S41  1  0.33671733  0.00430396  0.54298729  1
