# generated using pymatgen
data_Pr2Mn3(SbS3)4
_symmetry_space_group_name_H-M   'P 1'
_cell_length_a   20.02960800
_cell_length_b   3.90410600
_cell_length_c   14.95364829
_cell_angle_alpha   90.00000000
_cell_angle_beta   126.33350609
_cell_angle_gamma   90.00000000
_symmetry_Int_Tables_number   1
_chemical_formula_structural   Pr2Mn3(SbS3)4
_chemical_formula_sum   'Pr4 Mn6 Sb8 S24'
_cell_volume   942.00006694
_cell_formula_units_Z   2
loop_
 _symmetry_equiv_pos_site_id
 _symmetry_equiv_pos_as_xyz
  1  'x, y, z'
loop_
 _atom_site_type_symbol
 _atom_site_label
 _atom_site_symmetry_multiplicity
 _atom_site_fract_x
 _atom_site_fract_y
 _atom_site_fract_z
 _atom_site_occupancy
  Pr  Pr0  1  0.26691922  0.49036752  0.86416902  1
  Pr  Pr1  1  0.73643243  0.51203868  0.13701467  1
  Pr  Pr2  1  0.76254137  0.01115480  0.86138682  1
  Pr  Pr3  1  0.23526080  0.00508752  0.13564615  1
  Mn  Mn4  1  0.28776153  0.47943830  0.59279704  1
  Mn  Mn5  1  0.68817834  0.48823474  0.37071308  1
  Mn  Mn6  1  0.00849918  0.98663381  0.02032015  1
  Mn  Mn7  1  0.80591262  0.00886982  0.61856035  1
  Mn  Mn8  1  0.19845256  0.98044838  0.37637943  1
  Mn  Mn9  1  0.49289519  0.47918322  0.99002820  1
  Sb  Sb10  1  0.88966729  0.98711023  0.45014594  1
  Sb  Sb11  1  0.11177986  0.97697165  0.54613193  1
  Sb  Sb12  1  0.04030359  0.52316628  0.82236872  1
  Sb  Sb13  1  0.96271214  0.49773302  0.18304468  1
  Sb  Sb14  1  0.39544662  0.50591629  0.45077929  1
  Sb  Sb15  1  0.60583964  0.47445136  0.54769418  1
  Sb  Sb16  1  0.53269896  0.99871900  0.80769193  1
  Sb  Sb17  1  0.46416367  0.01602229  0.18784463  1
  S  S18  1  0.93708927  0.99827159  0.80418136  1
  S  S19  1  0.06474964  0.98396564  0.20036554  1
  S  S20  1  0.41231741  0.97607622  0.98081843  1
  S  S21  1  0.57745231  0.01579967  0.00962563  1
  S  S22  1  0.17292607  0.03223877  0.90396007  1
  S  S23  1  0.82404211  0.05015049  0.09525672  1
  S  S24  1  0.09624384  0.48249066  0.64648899  1
  S  S25  1  0.91123795  0.48810375  0.35292493  1
  S  S26  1  0.74007924  0.94530575  0.30216743  1
  S  S27  1  0.26397885  0.00432663  0.70842333  1
  S  S28  1  0.15894270  0.48612290  0.42650778  1
  S  S29  1  0.82493890  0.48980509  0.54918874  1
  S  S30  1  0.43145034  0.49848489  0.79901243  1
  S  S31  1  0.55588899  0.51581463  0.18435176  1
  S  S32  1  0.91014874  0.48069844  0.98642350  1
  S  S33  1  0.09242263  0.47731722  0.02796845  1
  S  S34  1  0.66306139  0.50710759  0.88441532  1
  S  S35  1  0.33186309  0.50474225  0.09959908  1
  S  S36  1  0.59739778  0.98603182  0.65508591  1
  S  S37  1  0.40408025  0.98825676  0.34795645  1
  S  S38  1  0.23877348  0.46191157  0.30805155  1
  S  S39  1  0.76156054  0.49421903  0.69687643  1
  S  S40  1  0.66773710  0.02776390  0.45257330  1
  S  S41  1  0.32636779  0.97855736  0.55267742  1
