# generated using pymatgen
data_Pr2Mn3(SbS3)4
_symmetry_space_group_name_H-M   'P 1'
_cell_length_a   20.02960800
_cell_length_b   3.90410600
_cell_length_c   14.95364829
_cell_angle_alpha   90.00000000
_cell_angle_beta   126.33350609
_cell_angle_gamma   90.00000000
_symmetry_Int_Tables_number   1
_chemical_formula_structural   Pr2Mn3(SbS3)4
_chemical_formula_sum   'Pr4 Mn6 Sb8 S24'
_cell_volume   942.00006694
_cell_formula_units_Z   2
loop_
 _symmetry_equiv_pos_site_id
 _symmetry_equiv_pos_as_xyz
  1  'x, y, z'
loop_
 _atom_site_type_symbol
 _atom_site_label
 _atom_site_symmetry_multiplicity
 _atom_site_fract_x
 _atom_site_fract_y
 _atom_site_fract_z
 _atom_site_occupancy
  Pr  Pr0  1  0.25629957  0.51197121  0.85887675  1
  Pr  Pr1  1  0.73443851  0.50654502  0.13264104  1
  Pr  Pr2  1  0.76251655  0.97281954  0.86503459  1
  Pr  Pr3  1  0.24522724  0.98226468  0.14730500  1
  Mn  Mn4  1  0.29843464  0.50115653  0.61591428  1
  Mn  Mn5  1  0.69812035  0.48669391  0.38035656  1
  Mn  Mn6  1  0.00222493  0.00672910  0.99723393  1
  Mn  Mn7  1  0.80032931  0.98510075  0.61386012  1
  Mn  Mn8  1  0.19715740  0.98592387  0.38861895  1
  Mn  Mn9  1  0.50399286  0.49623435  0.00854755  1
  Sb  Sb10  1  0.89630132  0.01711040  0.45446915  1
  Sb  Sb11  1  0.10484863  0.01085177  0.54716645  1
  Sb  Sb12  1  0.03674111  0.51214366  0.81370664  1
  Sb  Sb13  1  0.96882948  0.50937771  0.19654441  1
  Sb  Sb14  1  0.39660390  0.50625782  0.45651145  1
  Sb  Sb15  1  0.60682439  0.50346859  0.55409741  1
  Sb  Sb16  1  0.53857487  0.00514615  0.81879473  1
  Sb  Sb17  1  0.46282233  0.99901701  0.18817699  1
  S  S18  1  0.93855665  0.99084396  0.80230594  1
  S  S19  1  0.06726923  0.01329459  0.20568349  1
  S  S20  1  0.40869941  0.00738921  0.98738383  1
  S  S21  1  0.59937612  0.99958873  0.02419402  1
  S  S22  1  0.16425892  0.00727025  0.90382999  1
  S  S23  1  0.83211160  0.99116988  0.10723806  1
  S  S24  1  0.08085174  0.49874552  0.65127169  1
  S  S25  1  0.91313824  0.48636418  0.34937340  1
  S  S26  1  0.74240671  0.01282229  0.29885307  1
  S  S27  1  0.26075315  0.00718783  0.70390565  1
  S  S28  1  0.17081094  0.46484007  0.45709622  1
  S  S29  1  0.83473364  0.52603459  0.54768243  1
  S  S30  1  0.44556146  0.46920736  0.80038633  1
  S  S31  1  0.55798912  0.48932742  0.19915988  1
  S  S32  1  0.91059494  0.48480527  0.98940103  1
  S  S33  1  0.09040161  0.49523598  0.02180291  1
  S  S34  1  0.66339197  0.48260314  0.89012549  1
  S  S35  1  0.32903756  0.50272745  0.10137810  1
  S  S36  1  0.58280117  0.00749544  0.65368912  1
  S  S37  1  0.41787101  0.98590261  0.36400957  1
  S  S38  1  0.24179023  0.47089791  0.29551449  1
  S  S39  1  0.75770616  0.50819503  0.70099030  1
  S  S40  1  0.66456587  0.01300955  0.44641308  1
  S  S41  1  0.33646560  0.00509974  0.54301859  1
