# generated using pymatgen
data_Pr2Mn3(SbS3)4
_symmetry_space_group_name_H-M   'P 1'
_cell_length_a   20.02960800
_cell_length_b   3.90410600
_cell_length_c   14.95364829
_cell_angle_alpha   90.00000000
_cell_angle_beta   126.33350609
_cell_angle_gamma   90.00000000
_symmetry_Int_Tables_number   1
_chemical_formula_structural   Pr2Mn3(SbS3)4
_chemical_formula_sum   'Pr4 Mn6 Sb8 S24'
_cell_volume   942.00006694
_cell_formula_units_Z   2
loop_
 _symmetry_equiv_pos_site_id
 _symmetry_equiv_pos_as_xyz
  1  'x, y, z'
loop_
 _atom_site_type_symbol
 _atom_site_label
 _atom_site_symmetry_multiplicity
 _atom_site_fract_x
 _atom_site_fract_y
 _atom_site_fract_z
 _atom_site_occupancy
  Pr  Pr0  1  0.25624828  0.51228740  0.85873150  1
  Pr  Pr1  1  0.73428100  0.50697329  0.13241840  1
  Pr  Pr2  1  0.76260225  0.97229203  0.86519360  1
  Pr  Pr3  1  0.24525098  0.98252841  0.14735763  1
  Mn  Mn4  1  0.29855276  0.50201505  0.61626678  1
  Mn  Mn5  1  0.69810910  0.48689702  0.38045850  1
  Mn  Mn6  1  0.00217127  0.00514550  0.99682273  1
  Mn  Mn7  1  0.80022968  0.98440104  0.61327874  1
  Mn  Mn8  1  0.19712008  0.98523284  0.38876544  1
  Mn  Mn9  1  0.50421543  0.49646195  0.00897579  1
  Sb  Sb10  1  0.89653172  0.01779665  0.45483242  1
  Sb  Sb11  1  0.10482003  0.01187931  0.54707355  1
  Sb  Sb12  1  0.03677450  0.51241334  0.81386702  1
  Sb  Sb13  1  0.96895081  0.50998150  0.19681072  1
  Sb  Sb14  1  0.39660990  0.50750707  0.45640323  1
  Sb  Sb15  1  0.60689021  0.50371299  0.55415619  1
  Sb  Sb16  1  0.53857454  0.00578085  0.81906573  1
  Sb  Sb17  1  0.46281583  0.99857241  0.18840910  1
  S  S18  1  0.93838824  0.99230757  0.80250360  1
  S  S19  1  0.06705913  0.01286962  0.20563688  1
  S  S20  1  0.40899124  0.00729172  0.98760365  1
  S  S21  1  0.59908190  0.00026923  0.02413928  1
  S  S22  1  0.16446285  0.00732523  0.90428877  1
  S  S23  1  0.83183496  0.99028873  0.10702681  1
  S  S24  1  0.08103223  0.49852514  0.65139261  1
  S  S25  1  0.91329587  0.48635360  0.34940420  1
  S  S26  1  0.74254155  0.01238506  0.29918892  1
  S  S27  1  0.26077503  0.00688557  0.70409806  1
  S  S28  1  0.17110528  0.46374319  0.45676791  1
  S  S29  1  0.83445050  0.52567075  0.54835759  1
  S  S30  1  0.44570905  0.47041226  0.80073765  1
  S  S31  1  0.55809858  0.49138348  0.19937637  1
  S  S32  1  0.91041551  0.48415230  0.98915706  1
  S  S33  1  0.08988995  0.49436470  0.02127927  1
  S  S34  1  0.66336567  0.48240623  0.89032948  1
  S  S35  1  0.32898450  0.50245291  0.10135868  1
  S  S36  1  0.58250806  0.00886497  0.65374769  1
  S  S37  1  0.41787621  0.98494421  0.36414435  1
  S  S38  1  0.24204801  0.47024580  0.29572467  1
  S  S39  1  0.75770574  0.50985763  0.70037312  1
  S  S40  1  0.66483906  0.01335827  0.44629790  1
  S  S41  1  0.33629226  0.00643960  0.54299836  1
