# generated using pymatgen
data_Pr2Mn3(SbS3)4
_symmetry_space_group_name_H-M   'P 1'
_cell_length_a   20.02960800
_cell_length_b   3.90410600
_cell_length_c   14.95364829
_cell_angle_alpha   90.00000000
_cell_angle_beta   126.33350609
_cell_angle_gamma   90.00000000
_symmetry_Int_Tables_number   1
_chemical_formula_structural   Pr2Mn3(SbS3)4
_chemical_formula_sum   'Pr4 Mn6 Sb8 S24'
_cell_volume   942.00006694
_cell_formula_units_Z   2
loop_
 _symmetry_equiv_pos_site_id
 _symmetry_equiv_pos_as_xyz
  1  'x, y, z'
loop_
 _atom_site_type_symbol
 _atom_site_label
 _atom_site_symmetry_multiplicity
 _atom_site_fract_x
 _atom_site_fract_y
 _atom_site_fract_z
 _atom_site_occupancy
  Pr  Pr0  1  0.25622622  0.51246418  0.85861238  1
  Pr  Pr1  1  0.73417968  0.50718236  0.13228869  1
  Pr  Pr2  1  0.76267626  0.97185507  0.86536317  1
  Pr  Pr3  1  0.24524029  0.98278597  0.14736568  1
  Mn  Mn4  1  0.29856104  0.50225338  0.61664250  1
  Mn  Mn5  1  0.69815242  0.48682018  0.38071172  1
  Mn  Mn6  1  0.00219191  0.00388644  0.99637054  1
  Mn  Mn7  1  0.80006150  0.98442824  0.61264888  1
  Mn  Mn8  1  0.19704329  0.98417204  0.38902632  1
  Mn  Mn9  1  0.50443701  0.49686343  0.00941302  1
  Sb  Sb10  1  0.89670920  0.01826783  0.45514814  1
  Sb  Sb11  1  0.10475803  0.01275281  0.54689603  1
  Sb  Sb12  1  0.03682777  0.51246600  0.81402634  1
  Sb  Sb13  1  0.96900533  0.51033022  0.19701674  1
  Sb  Sb14  1  0.39667114  0.50857919  0.45645715  1
  Sb  Sb15  1  0.60697512  0.50375384  0.55416948  1
  Sb  Sb16  1  0.53865372  0.00640896  0.81927920  1
  Sb  Sb17  1  0.46274835  0.99782445  0.18857062  1
  S  S18  1  0.93816598  0.99289046  0.80257748  1
  S  S19  1  0.06683374  0.01219467  0.20563695  1
  S  S20  1  0.40933583  0.00751372  0.98787193  1
  S  S21  1  0.59884174  0.00089918  0.02405805  1
  S  S22  1  0.16479783  0.00676226  0.90480224  1
  S  S23  1  0.83153819  0.98949228  0.10675474  1
  S  S24  1  0.08113055  0.49918795  0.65153233  1
  S  S25  1  0.91347170  0.48646055  0.34922696  1
  S  S26  1  0.74254377  0.01164458  0.29944827  1
  S  S27  1  0.26076673  0.00640069  0.70410472  1
  S  S28  1  0.17134244  0.46270909  0.45641264  1
  S  S29  1  0.83405283  0.52445269  0.54877283  1
  S  S30  1  0.44579641  0.47194930  0.80099047  1
  S  S31  1  0.55806461  0.49335298  0.19946259  1
  S  S32  1  0.91005260  0.48405388  0.98855622  1
  S  S33  1  0.08950778  0.49357184  0.02091706  1
  S  S34  1  0.66326104  0.48162600  0.89029261  1
  S  S35  1  0.32893749  0.50286102  0.10159898  1
  S  S36  1  0.58233641  0.00975909  0.65379449  1
  S  S37  1  0.41797918  0.98436957  0.36432201  1
  S  S38  1  0.24211828  0.46916172  0.29575833  1
  S  S39  1  0.75764759  0.51161880  0.69996619  1
  S  S40  1  0.66504788  0.01321983  0.44612731  1
  S  S41  1  0.33604671  0.00745436  0.54271463  1
