# generated using pymatgen
data_Pr2Mn3(SbS3)4
_symmetry_space_group_name_H-M   'P 1'
_cell_length_a   20.02960800
_cell_length_b   3.90410600
_cell_length_c   14.95364829
_cell_angle_alpha   90.00000000
_cell_angle_beta   126.33350609
_cell_angle_gamma   90.00000000
_symmetry_Int_Tables_number   1
_chemical_formula_structural   Pr2Mn3(SbS3)4
_chemical_formula_sum   'Pr4 Mn6 Sb8 S24'
_cell_volume   942.00006694
_cell_formula_units_Z   2
loop_
 _symmetry_equiv_pos_site_id
 _symmetry_equiv_pos_as_xyz
  1  'x, y, z'
loop_
 _atom_site_type_symbol
 _atom_site_label
 _atom_site_symmetry_multiplicity
 _atom_site_fract_x
 _atom_site_fract_y
 _atom_site_fract_z
 _atom_site_occupancy
  Pr  Pr0  1  0.25616122  0.51256662  0.85849809  1
  Pr  Pr1  1  0.73404817  0.50730523  0.13218651  1
  Pr  Pr2  1  0.76278344  0.97161923  0.86548896  1
  Pr  Pr3  1  0.24521815  0.98336282  0.14732092  1
  Mn  Mn4  1  0.29856321  0.50263281  0.61700313  1
  Mn  Mn5  1  0.69827061  0.48702555  0.38099540  1
  Mn  Mn6  1  0.00228596  0.00332010  0.99603968  1
  Mn  Mn7  1  0.79981185  0.98432040  0.61198147  1
  Mn  Mn8  1  0.19699157  0.98270452  0.38939927  1
  Mn  Mn9  1  0.50470248  0.49729446  0.00980878  1
  Sb  Sb10  1  0.89681928  0.01861807  0.45535170  1
  Sb  Sb11  1  0.10473493  0.01370289  0.54674973  1
  Sb  Sb12  1  0.03689373  0.51248983  0.81418818  1
  Sb  Sb13  1  0.96902088  0.51064321  0.19704576  1
  Sb  Sb14  1  0.39674925  0.50968908  0.45666279  1
  Sb  Sb15  1  0.60710617  0.50400990  0.55428460  1
  Sb  Sb16  1  0.53867679  0.00695182  0.81942554  1
  Sb  Sb17  1  0.46264587  0.99726015  0.18868879  1
  S  S18  1  0.93795084  0.99396090  0.80259668  1
  S  S19  1  0.06659985  0.01109278  0.20560615  1
  S  S20  1  0.40948418  0.00770773  0.98800266  1
  S  S21  1  0.59865579  0.00123210  0.02405005  1
  S  S22  1  0.16518271  0.00627214  0.90536149  1
  S  S23  1  0.83107627  0.98864211  0.10639087  1
  S  S24  1  0.08123838  0.49997686  0.65156135  1
  S  S25  1  0.91348360  0.48668555  0.34903025  1
  S  S26  1  0.74259916  0.01072320  0.29977788  1
  S  S27  1  0.26068821  0.00530304  0.70403395  1
  S  S28  1  0.17158794  0.46245216  0.45615212  1
  S  S29  1  0.83361803  0.52317504  0.54907621  1
  S  S30  1  0.44592075  0.47376506  0.80123114  1
  S  S31  1  0.55788424  0.49518985  0.19946844  1
  S  S32  1  0.90980407  0.48360390  0.98797700  1
  S  S33  1  0.08925958  0.49336719  0.02072611  1
  S  S34  1  0.66328524  0.48072051  0.89048984  1
  S  S35  1  0.32893992  0.50317934  0.10198538  1
  S  S36  1  0.58221319  0.01052022  0.65382708  1
  S  S37  1  0.41798261  0.98425256  0.36436375  1
  S  S38  1  0.24221526  0.46834769  0.29599101  1
  S  S39  1  0.75767160  0.51345115  0.69979784  1
  S  S40  1  0.66515753  0.01269488  0.44592335  1
  S  S41  1  0.33585959  0.00845510  0.54244338  1
