# generated using pymatgen
data_Pr2Mn3(SbS3)4
_symmetry_space_group_name_H-M   'P 1'
_cell_length_a   20.02960800
_cell_length_b   3.90410600
_cell_length_c   14.95364829
_cell_angle_alpha   90.00000000
_cell_angle_beta   126.33350609
_cell_angle_gamma   90.00000000
_symmetry_Int_Tables_number   1
_chemical_formula_structural   Pr2Mn3(SbS3)4
_chemical_formula_sum   'Pr4 Mn6 Sb8 S24'
_cell_volume   942.00006694
_cell_formula_units_Z   2
loop_
 _symmetry_equiv_pos_site_id
 _symmetry_equiv_pos_as_xyz
  1  'x, y, z'
loop_
 _atom_site_type_symbol
 _atom_site_label
 _atom_site_symmetry_multiplicity
 _atom_site_fract_x
 _atom_site_fract_y
 _atom_site_fract_z
 _atom_site_occupancy
  Pr  Pr0  1  0.25612902  0.51274891  0.85847227  1
  Pr  Pr1  1  0.73388619  0.50746106  0.13205248  1
  Pr  Pr2  1  0.76291798  0.97152519  0.86563678  1
  Pr  Pr3  1  0.24523153  0.98396680  0.14721037  1
  Mn  Mn4  1  0.29862071  0.50290310  0.61735316  1
  Mn  Mn5  1  0.69843710  0.48735993  0.38130116  1
  Mn  Mn6  1  0.00227494  0.00277017  0.99555668  1
  Mn  Mn7  1  0.79973666  0.98452247  0.61149223  1
  Mn  Mn8  1  0.19682998  0.98169702  0.38945869  1
  Mn  Mn9  1  0.50488137  0.49835031  0.01015610  1
  Sb  Sb10  1  0.89689828  0.01905359  0.45554800  1
  Sb  Sb11  1  0.10469551  0.01459387  0.54653579  1
  Sb  Sb12  1  0.03698106  0.51231041  0.81433527  1
  Sb  Sb13  1  0.96907630  0.51109963  0.19702795  1
  Sb  Sb14  1  0.39679693  0.51083242  0.45674001  1
  Sb  Sb15  1  0.60718868  0.50452651  0.55440766  1
  Sb  Sb16  1  0.53874238  0.00763308  0.81960534  1
  Sb  Sb17  1  0.46253324  0.99648462  0.18882286  1
  S  S18  1  0.93785433  0.99562126  0.80249251  1
  S  S19  1  0.06640699  0.01017881  0.20569643  1
  S  S20  1  0.40960041  0.00801171  0.98821199  1
  S  S21  1  0.59830326  0.00204114  0.02406935  1
  S  S22  1  0.16544809  0.00570163  0.90571232  1
  S  S23  1  0.83060877  0.98796297  0.10601349  1
  S  S24  1  0.08136265  0.50015924  0.65155977  1
  S  S25  1  0.91344072  0.48716418  0.34870117  1
  S  S26  1  0.74259807  0.00999222  0.30005469  1
  S  S27  1  0.26048324  0.00443725  0.70374523  1
  S  S28  1  0.17180114  0.46120998  0.45581852  1
  S  S29  1  0.83329209  0.52217291  0.54954493  1
  S  S30  1  0.44610428  0.47536062  0.80149605  1
  S  S31  1  0.55781973  0.49633651  0.19948766  1
  S  S32  1  0.90961237  0.48277067  0.98730880  1
  S  S33  1  0.08901788  0.49343379  0.02054226  1
  S  S34  1  0.66342253  0.48009945  0.89089557  1
  S  S35  1  0.32882752  0.50317552  0.10235005  1
  S  S36  1  0.58224600  0.01105557  0.65392135  1
  S  S37  1  0.41787721  0.98387970  0.36419543  1
  S  S38  1  0.24233109  0.46758292  0.29623536  1
  S  S39  1  0.75772000  0.51500005  0.69965102  1
  S  S40  1  0.66528970  0.01285556  0.44582261  1
  S  S41  1  0.33582613  0.00960791  0.54256021  1
