# generated using pymatgen
data_Pr2Mn3(SbS3)4
_symmetry_space_group_name_H-M   'P 1'
_cell_length_a   20.02960800
_cell_length_b   3.90410600
_cell_length_c   14.95364829
_cell_angle_alpha   90.00000000
_cell_angle_beta   126.33350609
_cell_angle_gamma   90.00000000
_symmetry_Int_Tables_number   1
_chemical_formula_structural   Pr2Mn3(SbS3)4
_chemical_formula_sum   'Pr4 Mn6 Sb8 S24'
_cell_volume   942.00006694
_cell_formula_units_Z   2
loop_
 _symmetry_equiv_pos_site_id
 _symmetry_equiv_pos_as_xyz
  1  'x, y, z'
loop_
 _atom_site_type_symbol
 _atom_site_label
 _atom_site_symmetry_multiplicity
 _atom_site_fract_x
 _atom_site_fract_y
 _atom_site_fract_z
 _atom_site_occupancy
  Pr  Pr0  1  0.25603747  0.51300201  0.85834140  1
  Pr  Pr1  1  0.73371392  0.50787002  0.13189082  1
  Pr  Pr2  1  0.76303740  0.97139017  0.86575563  1
  Pr  Pr3  1  0.24520161  0.98440107  0.14706521  1
  Mn  Mn4  1  0.29877586  0.50317149  0.61776527  1
  Mn  Mn5  1  0.69852551  0.48797775  0.38148059  1
  Mn  Mn6  1  0.00232119  0.00243969  0.99521486  1
  Mn  Mn7  1  0.79968978  0.98441818  0.61106530  1
  Mn  Mn8  1  0.19691702  0.98053911  0.38967960  1
  Mn  Mn9  1  0.50514177  0.49922010  0.01035317  1
  Sb  Sb10  1  0.89706383  0.01946484  0.45579432  1
  Sb  Sb11  1  0.10461065  0.01531035  0.54640351  1
  Sb  Sb12  1  0.03709363  0.51200201  0.81448237  1
  Sb  Sb13  1  0.96914136  0.51162639  0.19698268  1
  Sb  Sb14  1  0.39673989  0.51186656  0.45672128  1
  Sb  Sb15  1  0.60717248  0.50504883  0.55440946  1
  Sb  Sb16  1  0.53877743  0.00858275  0.81976602  1
  Sb  Sb17  1  0.46226659  0.99581095  0.18887060  1
  S  S18  1  0.93769192  0.99706129  0.80232902  1
  S  S19  1  0.06606457  0.00835138  0.20578727  1
  S  S20  1  0.40966540  0.00778502  0.98852903  1
  S  S21  1  0.59805667  0.00317925  0.02406015  1
  S  S22  1  0.16560979  0.00541976  0.90608154  1
  S  S23  1  0.83000778  0.98789018  0.10549450  1
  S  S24  1  0.08142415  0.50099996  0.65149900  1
  S  S25  1  0.91335377  0.48807011  0.34843502  1
  S  S26  1  0.74254207  0.00890784  0.30016292  1
  S  S27  1  0.26032712  0.00408578  0.70354004  1
  S  S28  1  0.17208989  0.45978248  0.45570392  1
  S  S29  1  0.83309038  0.52120477  0.54997759  1
  S  S30  1  0.44618044  0.47625995  0.80180055  1
  S  S31  1  0.55758967  0.49782819  0.19936941  1
  S  S32  1  0.90953850  0.48133883  0.98678462  1
  S  S33  1  0.08882659  0.49308921  0.02015863  1
  S  S34  1  0.66355988  0.47975977  0.89119524  1
  S  S35  1  0.32873272  0.50316067  0.10279175  1
  S  S36  1  0.58244108  0.01123037  0.65425954  1
  S  S37  1  0.41789466  0.98415867  0.36411431  1
  S  S38  1  0.24238408  0.46659652  0.29650745  1
  S  S39  1  0.75783522  0.51639324  0.69966505  1
  S  S40  1  0.66545721  0.01289666  0.44580514  1
  S  S41  1  0.33574697  0.01051221  0.54291598  1
