# generated using pymatgen
data_Pr2Mn3(SbS3)4
_symmetry_space_group_name_H-M   'P 1'
_cell_length_a   20.02960800
_cell_length_b   3.90410600
_cell_length_c   14.95364829
_cell_angle_alpha   90.00000000
_cell_angle_beta   126.33350609
_cell_angle_gamma   90.00000000
_symmetry_Int_Tables_number   1
_chemical_formula_structural   Pr2Mn3(SbS3)4
_chemical_formula_sum   'Pr4 Mn6 Sb8 S24'
_cell_volume   942.00006694
_cell_formula_units_Z   2
loop_
 _symmetry_equiv_pos_site_id
 _symmetry_equiv_pos_as_xyz
  1  'x, y, z'
loop_
 _atom_site_type_symbol
 _atom_site_label
 _atom_site_symmetry_multiplicity
 _atom_site_fract_x
 _atom_site_fract_y
 _atom_site_fract_z
 _atom_site_occupancy
  Pr  Pr0  1  0.25599353  0.51329134  0.85828834  1
  Pr  Pr1  1  0.73358583  0.50817695  0.13183223  1
  Pr  Pr2  1  0.76323064  0.97119842  0.86588945  1
  Pr  Pr3  1  0.24526994  0.98488357  0.14706173  1
  Mn  Mn4  1  0.29894243  0.50311730  0.61817910  1
  Mn  Mn5  1  0.69862400  0.48869544  0.38149139  1
  Mn  Mn6  1  0.00236025  0.00218776  0.99489489  1
  Mn  Mn7  1  0.79966259  0.98437496  0.61075677  1
  Mn  Mn8  1  0.19699056  0.97916577  0.38979319  1
  Mn  Mn9  1  0.50528038  0.50001284  0.01050617  1
  Sb  Sb10  1  0.89723857  0.02022104  0.45610855  1
  Sb  Sb11  1  0.10446045  0.01577206  0.54629604  1
  Sb  Sb12  1  0.03719862  0.51164530  0.81469220  1
  Sb  Sb13  1  0.96920318  0.51224018  0.19702624  1
  Sb  Sb14  1  0.39671776  0.51254190  0.45669786  1
  Sb  Sb15  1  0.60715958  0.50565123  0.55436897  1
  Sb  Sb16  1  0.53872540  0.00952975  0.81987268  1
  Sb  Sb17  1  0.46202960  0.99516008  0.18892417  1
  S  S18  1  0.93749940  0.99929654  0.80182274  1
  S  S19  1  0.06568322  0.00625799  0.20597462  1
  S  S20  1  0.40973835  0.00698963  0.98888127  1
  S  S21  1  0.59794723  0.00416277  0.02400400  1
  S  S22  1  0.16566468  0.00511381  0.90615843  1
  S  S23  1  0.82946134  0.98744581  0.10481766  1
  S  S24  1  0.08162154  0.50145384  0.65147487  1
  S  S25  1  0.91340209  0.48960886  0.34835294  1
  S  S26  1  0.74255879  0.00753595  0.30044963  1
  S  S27  1  0.26023009  0.00335206  0.70330113  1
  S  S28  1  0.17225512  0.45932919  0.45560446  1
  S  S29  1  0.83295419  0.52019334  0.55046752  1
  S  S30  1  0.44626147  0.47699881  0.80207716  1
  S  S31  1  0.55742110  0.49972880  0.19926256  1
  S  S32  1  0.90944779  0.47896468  0.98631794  1
  S  S33  1  0.08858069  0.49256638  0.01979600  1
  S  S34  1  0.66369677  0.47983838  0.89154085  1
  S  S35  1  0.32853037  0.50346856  0.10314954  1
  S  S36  1  0.58262079  0.01135605  0.65448676  1
  S  S37  1  0.41788890  0.98437117  0.36421223  1
  S  S38  1  0.24248518  0.46533867  0.29670950  1
  S  S39  1  0.75798635  0.51725478  0.69967506  1
  S  S40  1  0.66559768  0.01346835  0.44579468  1
  S  S41  1  0.33568547  0.01135806  0.54338170  1
