# generated using pymatgen
data_Pr2Mn3(SbS3)4
_symmetry_space_group_name_H-M   'P 1'
_cell_length_a   20.02960800
_cell_length_b   3.90410600
_cell_length_c   14.95364829
_cell_angle_alpha   90.00000000
_cell_angle_beta   126.33350609
_cell_angle_gamma   90.00000000
_symmetry_Int_Tables_number   1
_chemical_formula_structural   Pr2Mn3(SbS3)4
_chemical_formula_sum   'Pr4 Mn6 Sb8 S24'
_cell_volume   942.00006694
_cell_formula_units_Z   2
loop_
 _symmetry_equiv_pos_site_id
 _symmetry_equiv_pos_as_xyz
  1  'x, y, z'
loop_
 _atom_site_type_symbol
 _atom_site_label
 _atom_site_symmetry_multiplicity
 _atom_site_fract_x
 _atom_site_fract_y
 _atom_site_fract_z
 _atom_site_occupancy
  Pr  Pr0  1  0.25595745  0.51342588  0.85817848  1
  Pr  Pr1  1  0.73344697  0.50857617  0.13171538  1
  Pr  Pr2  1  0.76335771  0.97114034  0.86608054  1
  Pr  Pr3  1  0.24527010  0.98520060  0.14700528  1
  Mn  Mn4  1  0.29914022  0.50368320  0.61858559  1
  Mn  Mn5  1  0.69866216  0.48873242  0.38148795  1
  Mn  Mn6  1  0.00245355  0.00207129  0.99466957  1
  Mn  Mn7  1  0.79976813  0.98423900  0.61058771  1
  Mn  Mn8  1  0.19694410  0.97847472  0.38976205  1
  Mn  Mn9  1  0.50534096  0.50103294  0.01048280  1
  Sb  Sb10  1  0.89744017  0.02103117  0.45638376  1
  Sb  Sb11  1  0.10431879  0.01624992  0.54618114  1
  Sb  Sb12  1  0.03732589  0.51148681  0.81501686  1
  Sb  Sb13  1  0.96928791  0.51259021  0.19698923  1
  Sb  Sb14  1  0.39666861  0.51311966  0.45671640  1
  Sb  Sb15  1  0.60718420  0.50626859  0.55430460  1
  Sb  Sb16  1  0.53872346  0.01053480  0.81995463  1
  Sb  Sb17  1  0.46184184  0.99464437  0.18902008  1
  S  S18  1  0.93722488  0.00183012  0.80110746  1
  S  S19  1  0.06523888  0.00511872  0.20617320  1
  S  S20  1  0.40970589  0.00661637  0.98917180  1
  S  S21  1  0.59772983  0.00538200  0.02395079  1
  S  S22  1  0.16589541  0.00472603  0.90637051  1
  S  S23  1  0.82875923  0.98733371  0.10391479  1
  S  S24  1  0.08183848  0.50136213  0.65141508  1
  S  S25  1  0.91341135  0.49078732  0.34822469  1
  S  S26  1  0.74262053  0.00637446  0.30072045  1
  S  S27  1  0.26006128  0.00310338  0.70306177  1
  S  S28  1  0.17242862  0.45860192  0.45553153  1
  S  S29  1  0.83291238  0.51946958  0.55100370  1
  S  S30  1  0.44619922  0.47816370  0.80225022  1
  S  S31  1  0.55746098  0.50130672  0.19928407  1
  S  S32  1  0.90946364  0.47736120  0.98588813  1
  S  S33  1  0.08825088  0.49298592  0.01943817  1
  S  S34  1  0.66370965  0.48019501  0.89184396  1
  S  S35  1  0.32835712  0.50327819  0.10338596  1
  S  S36  1  0.58265892  0.01155697  0.65431397  1
  S  S37  1  0.41804535  0.98451378  0.36454225  1
  S  S38  1  0.24262188  0.46423020  0.29690468  1
  S  S39  1  0.75807452  0.51814201  0.69970142  1
  S  S40  1  0.66560079  0.01347491  0.44557334  1
  S  S41  1  0.33559432  0.01191778  0.54381103  1
