# generated using pymatgen
data_Pr2Mn3(SbS3)4
_symmetry_space_group_name_H-M   'P 1'
_cell_length_a   20.02960800
_cell_length_b   3.90410600
_cell_length_c   14.95364829
_cell_angle_alpha   90.00000000
_cell_angle_beta   126.33350609
_cell_angle_gamma   90.00000000
_symmetry_Int_Tables_number   1
_chemical_formula_structural   Pr2Mn3(SbS3)4
_chemical_formula_sum   'Pr4 Mn6 Sb8 S24'
_cell_volume   942.00006694
_cell_formula_units_Z   2
loop_
 _symmetry_equiv_pos_site_id
 _symmetry_equiv_pos_as_xyz
  1  'x, y, z'
loop_
 _atom_site_type_symbol
 _atom_site_label
 _atom_site_symmetry_multiplicity
 _atom_site_fract_x
 _atom_site_fract_y
 _atom_site_fract_z
 _atom_site_occupancy
  Pr  Pr0  1  0.25599644  0.51346162  0.85813709  1
  Pr  Pr1  1  0.73332833  0.50883703  0.13164791  1
  Pr  Pr2  1  0.76347260  0.97108553  0.86634963  1
  Pr  Pr3  1  0.24526841  0.98557401  0.14698208  1
  Mn  Mn4  1  0.29933349  0.50444802  0.61892106  1
  Mn  Mn5  1  0.69864387  0.48908003  0.38143594  1
  Mn  Mn6  1  0.00253183  0.00224931  0.99442287  1
  Mn  Mn7  1  0.79982592  0.98428968  0.61041250  1
  Mn  Mn8  1  0.19701990  0.97824725  0.38987939  1
  Mn  Mn9  1  0.50537200  0.50167250  0.01043891  1
  Sb  Sb10  1  0.89759133  0.02168454  0.45655424  1
  Sb  Sb11  1  0.10417196  0.01663530  0.54605430  1
  Sb  Sb12  1  0.03740307  0.51136905  0.81518373  1
  Sb  Sb13  1  0.96929960  0.51287532  0.19688019  1
  Sb  Sb14  1  0.39656815  0.51367752  0.45667439  1
  Sb  Sb15  1  0.60723814  0.50676329  0.55428247  1
  Sb  Sb16  1  0.53867730  0.01149570  0.81995421  1
  Sb  Sb17  1  0.46167286  0.99408532  0.18915969  1
  S  S18  1  0.93698310  0.00331527  0.80043955  1
  S  S19  1  0.06483352  0.00426201  0.20640058  1
  S  S20  1  0.40981121  0.00672836  0.98941049  1
  S  S21  1  0.59747346  0.00688745  0.02400217  1
  S  S22  1  0.16608936  0.00402365  0.90654293  1
  S  S23  1  0.82819949  0.98638989  0.10309127  1
  S  S24  1  0.08214375  0.50125585  0.65147284  1
  S  S25  1  0.91350089  0.49176496  0.34821614  1
  S  S26  1  0.74258777  0.00548346  0.30074736  1
  S  S27  1  0.25986485  0.00272768  0.70277131  1
  S  S28  1  0.17271035  0.45856708  0.45561190  1
  S  S29  1  0.83282408  0.51883892  0.55154387  1
  S  S30  1  0.44613276  0.47889839  0.80243702  1
  S  S31  1  0.55743254  0.50291508  0.19929411  1
  S  S32  1  0.90934995  0.47549159  0.98548020  1
  S  S33  1  0.08788834  0.49399814  0.01906158  1
  S  S34  1  0.66385688  0.48056778  0.89212369  1
  S  S35  1  0.32808691  0.50301780  0.10353043  1
  S  S36  1  0.58277219  0.01214864  0.65424634  1
  S  S37  1  0.41804464  0.98453733  0.36476158  1
  S  S38  1  0.24288997  0.46323860  0.29720759  1
  S  S39  1  0.75833796  0.51799033  0.69999218  1
  S  S40  1  0.66553221  0.01355841  0.44532068  1
  S  S41  1  0.33550612  0.01229213  0.54426203  1
