# generated using pymatgen
data_Pr2Mn3(SbS3)4
_symmetry_space_group_name_H-M   'P 1'
_cell_length_a   20.02960800
_cell_length_b   3.90410600
_cell_length_c   14.95364829
_cell_angle_alpha   90.00000000
_cell_angle_beta   126.33350609
_cell_angle_gamma   90.00000000
_symmetry_Int_Tables_number   1
_chemical_formula_structural   Pr2Mn3(SbS3)4
_chemical_formula_sum   'Pr4 Mn6 Sb8 S24'
_cell_volume   942.00006694
_cell_formula_units_Z   2
loop_
 _symmetry_equiv_pos_site_id
 _symmetry_equiv_pos_as_xyz
  1  'x, y, z'
loop_
 _atom_site_type_symbol
 _atom_site_label
 _atom_site_symmetry_multiplicity
 _atom_site_fract_x
 _atom_site_fract_y
 _atom_site_fract_z
 _atom_site_occupancy
  Pr  Pr0  1  0.25603649  0.51381536  0.85814133  1
  Pr  Pr1  1  0.73316966  0.50924768  0.13152264  1
  Pr  Pr2  1  0.76358137  0.97120186  0.86653484  1
  Pr  Pr3  1  0.24527580  0.98582801  0.14696712  1
  Mn  Mn4  1  0.29960673  0.50513378  0.61929255  1
  Mn  Mn5  1  0.69863440  0.48945847  0.38134037  1
  Mn  Mn6  1  0.00248840  0.00248019  0.99403716  1
  Mn  Mn7  1  0.79988446  0.98415815  0.61011009  1
  Mn  Mn8  1  0.19708596  0.97776887  0.39003952  1
  Mn  Mn9  1  0.50533598  0.50217927  0.01037916  1
  Sb  Sb10  1  0.89765045  0.02247193  0.45660345  1
  Sb  Sb11  1  0.10410038  0.01723124  0.54593902  1
  Sb  Sb12  1  0.03749929  0.51093286  0.81533885  1
  Sb  Sb13  1  0.96919824  0.51328792  0.19663520  1
  Sb  Sb14  1  0.39650967  0.51419929  0.45670514  1
  Sb  Sb15  1  0.60724614  0.50705523  0.55418936  1
  Sb  Sb16  1  0.53865187  0.01214793  0.81994058  1
  Sb  Sb17  1  0.46153646  0.99357054  0.18913865  1
  S  S18  1  0.93674580  0.00489656  0.79974552  1
  S  S19  1  0.06433658  0.00320021  0.20663306  1
  S  S20  1  0.40995281  0.00748179  0.98972771  1
  S  S21  1  0.59707349  0.00769614  0.02385645  1
  S  S22  1  0.16626705  0.00321653  0.90667957  1
  S  S23  1  0.82774441  0.98554379  0.10230894  1
  S  S24  1  0.08241507  0.50108236  0.65121180  1
  S  S25  1  0.91359688  0.49238248  0.34814514  1
  S  S26  1  0.74267259  0.00412572  0.30090683  1
  S  S27  1  0.25967147  0.00203996  0.70239568  1
  S  S28  1  0.17302888  0.45854081  0.45582911  1
  S  S29  1  0.83287848  0.51860336  0.55193186  1
  S  S30  1  0.44614412  0.47998782  0.80269482  1
  S  S31  1  0.55741323  0.50512339  0.19922412  1
  S  S32  1  0.90933355  0.47365953  0.98534355  1
  S  S33  1  0.08767272  0.49406036  0.01883632  1
  S  S34  1  0.66401539  0.48078981  0.89240760  1
  S  S35  1  0.32793820  0.50263019  0.10395438  1
  S  S36  1  0.58277807  0.01258214  0.65420904  1
  S  S37  1  0.41790756  0.98517654  0.36467549  1
  S  S38  1  0.24318349  0.46274794  0.29745506  1
  S  S39  1  0.75861369  0.51859108  0.70028950  1
  S  S40  1  0.66537662  0.01360118  0.44495188  1
  S  S41  1  0.33537827  0.01250064  0.54436753  1
