# generated using pymatgen
data_Pr2Mn3(SbS3)4
_symmetry_space_group_name_H-M   'P 1'
_cell_length_a   20.02960800
_cell_length_b   3.90410600
_cell_length_c   14.95364829
_cell_angle_alpha   90.00000000
_cell_angle_beta   126.33350609
_cell_angle_gamma   90.00000000
_symmetry_Int_Tables_number   1
_chemical_formula_structural   Pr2Mn3(SbS3)4
_chemical_formula_sum   'Pr4 Mn6 Sb8 S24'
_cell_volume   942.00006694
_cell_formula_units_Z   2
loop_
 _symmetry_equiv_pos_site_id
 _symmetry_equiv_pos_as_xyz
  1  'x, y, z'
loop_
 _atom_site_type_symbol
 _atom_site_label
 _atom_site_symmetry_multiplicity
 _atom_site_fract_x
 _atom_site_fract_y
 _atom_site_fract_z
 _atom_site_occupancy
  Pr  Pr0  1  0.26699921  0.49099716  0.86421001  1
  Pr  Pr1  1  0.73639890  0.51194104  0.13710499  1
  Pr  Pr2  1  0.76251703  0.01134008  0.86133947  1
  Pr  Pr3  1  0.23518224  0.00516971  0.13549537  1
  Mn  Mn4  1  0.28755396  0.47973267  0.59230891  1
  Mn  Mn5  1  0.68797585  0.48748864  0.37044106  1
  Mn  Mn6  1  0.00865888  0.98599575  0.02047124  1
  Mn  Mn7  1  0.80593593  0.00827886  0.61864372  1
  Mn  Mn8  1  0.19849485  0.97988305  0.37616761  1
  Mn  Mn9  1  0.49285961  0.47957020  0.99000245  1
  Sb  Sb10  1  0.88962911  0.98791129  0.45017425  1
  Sb  Sb11  1  0.11172385  0.97701944  0.54603787  1
  Sb  Sb12  1  0.04021713  0.52361976  0.82219658  1
  Sb  Sb13  1  0.96255293  0.49783577  0.18297316  1
  Sb  Sb14  1  0.39546800  0.50593603  0.45070918  1
  Sb  Sb15  1  0.60588203  0.47446178  0.54782439  1
  Sb  Sb16  1  0.53279811  0.99893870  0.80767763  1
  Sb  Sb17  1  0.46432594  0.01609864  0.18818396  1
  S  S18  1  0.93701217  0.99834293  0.80411187  1
  S  S19  1  0.06483341  0.98391763  0.20054485  1
  S  S20  1  0.41261691  0.97561914  0.98089521  1
  S  S21  1  0.57737350  0.01699016  0.00958421  1
  S  S22  1  0.17293440  0.03294536  0.90406571  1
  S  S23  1  0.82438115  0.05044561  0.09532051  1
  S  S24  1  0.09619587  0.48288677  0.64650806  1
  S  S25  1  0.91121977  0.48884674  0.35278677  1
  S  S26  1  0.73985968  0.94524164  0.30201195  1
  S  S27  1  0.26376143  0.00405339  0.70819417  1
  S  S28  1  0.15894187  0.48735895  0.42595895  1
  S  S29  1  0.82509991  0.49027950  0.54944946  1
  S  S30  1  0.43126347  0.49847275  0.79902510  1
  S  S31  1  0.55572686  0.51650217  0.18429552  1
  S  S32  1  0.91023917  0.48124206  0.98641148  1
  S  S33  1  0.09259848  0.47806674  0.02848726  1
  S  S34  1  0.66272607  0.50706201  0.88426184  1
  S  S35  1  0.33183620  0.50463267  0.09980540  1
  S  S36  1  0.59746254  0.98561018  0.65525663  1
  S  S37  1  0.40377923  0.98842158  0.34734698  1
  S  S38  1  0.23875608  0.46168766  0.30816363  1
  S  S39  1  0.76151742  0.49368627  0.69678620  1
  S  S40  1  0.66763712  0.02875621  0.45238188  1
  S  S41  1  0.32672188  0.97976336  0.55300378  1
