# generated using pymatgen
data_Pr2Mn3(SbS3)4
_symmetry_space_group_name_H-M   'P 1'
_cell_length_a   20.02960800
_cell_length_b   3.90410600
_cell_length_c   14.95364829
_cell_angle_alpha   90.00000000
_cell_angle_beta   126.33350609
_cell_angle_gamma   90.00000000
_symmetry_Int_Tables_number   1
_chemical_formula_structural   Pr2Mn3(SbS3)4
_chemical_formula_sum   'Pr4 Mn6 Sb8 S24'
_cell_volume   942.00006694
_cell_formula_units_Z   2
loop_
 _symmetry_equiv_pos_site_id
 _symmetry_equiv_pos_as_xyz
  1  'x, y, z'
loop_
 _atom_site_type_symbol
 _atom_site_label
 _atom_site_symmetry_multiplicity
 _atom_site_fract_x
 _atom_site_fract_y
 _atom_site_fract_z
 _atom_site_occupancy
  Pr  Pr0  1  0.25607847  0.51413979  0.85814026  1
  Pr  Pr1  1  0.73298845  0.50956592  0.13135499  1
  Pr  Pr2  1  0.76370959  0.97130780  0.86671172  1
  Pr  Pr3  1  0.24535010  0.98635371  0.14710608  1
  Mn  Mn4  1  0.29991850  0.50598684  0.61967375  1
  Mn  Mn5  1  0.69865255  0.48994188  0.38127098  1
  Mn  Mn6  1  0.00231987  0.00267706  0.99354717  1
  Mn  Mn7  1  0.79993850  0.98392708  0.60981142  1
  Mn  Mn8  1  0.19717429  0.97703921  0.39013757  1
  Mn  Mn9  1  0.50522734  0.50344047  0.01026986  1
  Sb  Sb10  1  0.89764725  0.02319057  0.45660574  1
  Sb  Sb11  1  0.10408004  0.01774007  0.54585563  1
  Sb  Sb12  1  0.03755083  0.51055860  0.81541203  1
  Sb  Sb13  1  0.96910092  0.51383951  0.19635912  1
  Sb  Sb14  1  0.39642689  0.51463854  0.45664016  1
  Sb  Sb15  1  0.60724646  0.50741272  0.55413585  1
  Sb  Sb16  1  0.53862300  0.01250041  0.81999217  1
  Sb  Sb17  1  0.46135213  0.99313076  0.18907490  1
  S  S18  1  0.93662789  0.00661652  0.79942542  1
  S  S19  1  0.06398172  0.00192808  0.20706818  1
  S  S20  1  0.41008705  0.00768400  0.98997290  1
  S  S21  1  0.59673635  0.00809897  0.02364152  1
  S  S22  1  0.16664749  0.00254624  0.90715507  1
  S  S23  1  0.82720305  0.98465587  0.10155649  1
  S  S24  1  0.08273060  0.50152772  0.65109822  1
  S  S25  1  0.91371729  0.49316572  0.34822305  1
  S  S26  1  0.74274137  0.00321806  0.30102585  1
  S  S27  1  0.25953079  0.00171529  0.70197814  1
  S  S28  1  0.17331012  0.45868446  0.45607173  1
  S  S29  1  0.83281100  0.51760460  0.55212225  1
  S  S30  1  0.44592667  0.48125822  0.80271115  1
  S  S31  1  0.55735115  0.50638367  0.19914951  1
  S  S32  1  0.90931944  0.47184965  0.98535446  1
  S  S33  1  0.08740370  0.49414723  0.01876073  1
  S  S34  1  0.66416016  0.48102379  0.89276982  1
  S  S35  1  0.32786139  0.50236565  0.10442696  1
  S  S36  1  0.58286700  0.01265440  0.65425744  1
  S  S37  1  0.41766270  0.98531839  0.36451602  1
  S  S38  1  0.24351420  0.46199675  0.29778383  1
  S  S39  1  0.75885830  0.51911944  0.70047392  1
  S  S40  1  0.66513921  0.01401256  0.44468990  1
  S  S41  1  0.33533226  0.01327204  0.54466616  1
