# generated using pymatgen
data_Pr2Mn3(SbS3)4
_symmetry_space_group_name_H-M   'P 1'
_cell_length_a   20.02960800
_cell_length_b   3.90410600
_cell_length_c   14.95364829
_cell_angle_alpha   90.00000000
_cell_angle_beta   126.33350609
_cell_angle_gamma   90.00000000
_symmetry_Int_Tables_number   1
_chemical_formula_structural   Pr2Mn3(SbS3)4
_chemical_formula_sum   'Pr4 Mn6 Sb8 S24'
_cell_volume   942.00006694
_cell_formula_units_Z   2
loop_
 _symmetry_equiv_pos_site_id
 _symmetry_equiv_pos_as_xyz
  1  'x, y, z'
loop_
 _atom_site_type_symbol
 _atom_site_label
 _atom_site_symmetry_multiplicity
 _atom_site_fract_x
 _atom_site_fract_y
 _atom_site_fract_z
 _atom_site_occupancy
  Pr  Pr0  1  0.25613258  0.51483352  0.85809788  1
  Pr  Pr1  1  0.73289088  0.50973438  0.13124094  1
  Pr  Pr2  1  0.76382034  0.97122873  0.86694564  1
  Pr  Pr3  1  0.24540541  0.98670781  0.14730884  1
  Mn  Mn4  1  0.30001630  0.50638073  0.61996014  1
  Mn  Mn5  1  0.69870701  0.48987377  0.38136421  1
  Mn  Mn6  1  0.00202665  0.00274039  0.99299203  1
  Mn  Mn7  1  0.80001717  0.98287754  0.60959353  1
  Mn  Mn8  1  0.19720139  0.97688323  0.39027090  1
  Mn  Mn9  1  0.50509167  0.50462117  0.01015682  1
  Sb  Sb10  1  0.89757301  0.02369425  0.45658851  1
  Sb  Sb11  1  0.10417604  0.01811074  0.54591388  1
  Sb  Sb12  1  0.03772943  0.50991163  0.81551051  1
  Sb  Sb13  1  0.96899704  0.51420615  0.19603327  1
  Sb  Sb14  1  0.39632613  0.51507320  0.45660929  1
  Sb  Sb15  1  0.60726817  0.50756009  0.55407581  1
  Sb  Sb16  1  0.53858818  0.01301155  0.82007006  1
  Sb  Sb17  1  0.46117875  0.99215252  0.18905193  1
  S  S18  1  0.93659562  0.00824999  0.79929493  1
  S  S19  1  0.06364957  0.00085791  0.20739283  1
  S  S20  1  0.41000501  0.00693746  0.99020467  1
  S  S21  1  0.59645917  0.00819559  0.02349168  1
  S  S22  1  0.16702485  0.00206122  0.90754730  1
  S  S23  1  0.82659673  0.98369815  0.10080935  1
  S  S24  1  0.08294022  0.50193687  0.65091700  1
  S  S25  1  0.91374820  0.49377359  0.34824993  1
  S  S26  1  0.74299419  0.00146350  0.30139308  1
  S  S27  1  0.25945172  0.00183848  0.70171011  1
  S  S28  1  0.17368792  0.45931869  0.45632565  1
  S  S29  1  0.83270498  0.51651973  0.55213099  1
  S  S30  1  0.44586067  0.48272686  0.80282768  1
  S  S31  1  0.55744709  0.50748516  0.19942555  1
  S  S32  1  0.90939360  0.47007240  0.98531833  1
  S  S33  1  0.08721829  0.49436151  0.01884965  1
  S  S34  1  0.66408742  0.48125876  0.89301786  1
  S  S35  1  0.32778150  0.50261525  0.10489245  1
  S  S36  1  0.58304486  0.01348437  0.65440176  1
  S  S37  1  0.41745974  0.98529882  0.36418165  1
  S  S38  1  0.24378071  0.46155663  0.29805632  1
  S  S39  1  0.75909947  0.51962306  0.70074161  1
  S  S40  1  0.66507700  0.01402481  0.44456265  1
  S  S41  1  0.33533825  0.01425777  0.54490638  1
