# generated using pymatgen
data_Pr2Mn3(SbS3)4
_symmetry_space_group_name_H-M   'P 1'
_cell_length_a   20.02960800
_cell_length_b   3.90410600
_cell_length_c   14.95364829
_cell_angle_alpha   90.00000000
_cell_angle_beta   126.33350609
_cell_angle_gamma   90.00000000
_symmetry_Int_Tables_number   1
_chemical_formula_structural   Pr2Mn3(SbS3)4
_chemical_formula_sum   'Pr4 Mn6 Sb8 S24'
_cell_volume   942.00006694
_cell_formula_units_Z   2
loop_
 _symmetry_equiv_pos_site_id
 _symmetry_equiv_pos_as_xyz
  1  'x, y, z'
loop_
 _atom_site_type_symbol
 _atom_site_label
 _atom_site_symmetry_multiplicity
 _atom_site_fract_x
 _atom_site_fract_y
 _atom_site_fract_z
 _atom_site_occupancy
  Pr  Pr0  1  0.25610746  0.51557495  0.85809819  1
  Pr  Pr1  1  0.73285816  0.50975893  0.13121865  1
  Pr  Pr2  1  0.76394123  0.97084144  0.86713735  1
  Pr  Pr3  1  0.24542013  0.98709359  0.14744547  1
  Mn  Mn4  1  0.30008878  0.50743849  0.62028279  1
  Mn  Mn5  1  0.69853105  0.48997389  0.38116302  1
  Mn  Mn6  1  0.00168663  0.00198635  0.99251382  1
  Mn  Mn7  1  0.80011275  0.98251718  0.60942319  1
  Mn  Mn8  1  0.19731161  0.97661567  0.39026126  1
  Mn  Mn9  1  0.50500716  0.50607508  0.01019455  1
  Sb  Sb10  1  0.89747376  0.02426892  0.45651537  1
  Sb  Sb11  1  0.10436218  0.01830242  0.54602651  1
  Sb  Sb12  1  0.03788450  0.50939860  0.81562695  1
  Sb  Sb13  1  0.96896044  0.51453427  0.19580684  1
  Sb  Sb14  1  0.39621872  0.51575782  0.45659898  1
  Sb  Sb15  1  0.60723012  0.50766514  0.55395671  1
  Sb  Sb16  1  0.53848654  0.01337724  0.82016446  1
  Sb  Sb17  1  0.46103235  0.99135171  0.18899970  1
  S  S18  1  0.93662076  0.01016051  0.79907865  1
  S  S19  1  0.06321396  0.99967465  0.20769762  1
  S  S20  1  0.41005982  0.00620885  0.99057961  1
  S  S21  1  0.59631126  0.00864704  0.02336658  1
  S  S22  1  0.16731453  0.00161413  0.90784997  1
  S  S23  1  0.82613369  0.98331330  0.10026759  1
  S  S24  1  0.08307177  0.50185962  0.65073374  1
  S  S25  1  0.91360725  0.49421092  0.34810693  1
  S  S26  1  0.74316730  0.99986221  0.30178797  1
  S  S27  1  0.25947360  0.00178849  0.70165800  1
  S  S28  1  0.17411325  0.46026892  0.45681074  1
  S  S29  1  0.83263075  0.51514948  0.55216137  1
  S  S30  1  0.44586135  0.48421462  0.80293909  1
  S  S31  1  0.55758171  0.50810095  0.19957823  1
  S  S32  1  0.90955141  0.46853690  0.98531973  1
  S  S33  1  0.08697875  0.49479769  0.01883651  1
  S  S34  1  0.66416067  0.48188294  0.89314112  1
  S  S35  1  0.32757153  0.50304542  0.10490958  1
  S  S36  1  0.58332871  0.01418281  0.65462347  1
  S  S37  1  0.41731219  0.98546052  0.36393709  1
  S  S38  1  0.24399476  0.46172500  0.29824499  1
  S  S39  1  0.75948999  0.52046262  0.70111332  1
  S  S40  1  0.66516983  0.01420173  0.44451517  1
  S  S41  1  0.33536132  0.01550438  0.54521312  1
