# generated using pymatgen
data_Pr2Mn3(SbS3)4
_symmetry_space_group_name_H-M   'P 1'
_cell_length_a   20.02960800
_cell_length_b   3.90410600
_cell_length_c   14.95364829
_cell_angle_alpha   90.00000000
_cell_angle_beta   126.33350609
_cell_angle_gamma   90.00000000
_symmetry_Int_Tables_number   1
_chemical_formula_structural   Pr2Mn3(SbS3)4
_chemical_formula_sum   'Pr4 Mn6 Sb8 S24'
_cell_volume   942.00006694
_cell_formula_units_Z   2
loop_
 _symmetry_equiv_pos_site_id
 _symmetry_equiv_pos_as_xyz
  1  'x, y, z'
loop_
 _atom_site_type_symbol
 _atom_site_label
 _atom_site_symmetry_multiplicity
 _atom_site_fract_x
 _atom_site_fract_y
 _atom_site_fract_z
 _atom_site_occupancy
  Pr  Pr0  1  0.25605800  0.51636214  0.85811111  1
  Pr  Pr1  1  0.73286422  0.50950127  0.13124618  1
  Pr  Pr2  1  0.76410222  0.97059741  0.86734884  1
  Pr  Pr3  1  0.24543228  0.98753405  0.14758489  1
  Mn  Mn4  1  0.30028266  0.50818086  0.62064729  1
  Mn  Mn5  1  0.69813094  0.49030669  0.38087927  1
  Mn  Mn6  1  0.00134434  0.00127974  0.99209177  1
  Mn  Mn7  1  0.80025906  0.98208051  0.60925326  1
  Mn  Mn8  1  0.19734824  0.97621223  0.39014274  1
  Mn  Mn9  1  0.50498118  0.50764414  0.01028449  1
  Sb  Sb10  1  0.89739356  0.02477616  0.45649376  1
  Sb  Sb11  1  0.10448639  0.01857034  0.54601688  1
  Sb  Sb12  1  0.03801748  0.50924683  0.81575885  1
  Sb  Sb13  1  0.96890381  0.51496869  0.19556014  1
  Sb  Sb14  1  0.39608944  0.51591697  0.45653620  1
  Sb  Sb15  1  0.60724210  0.50731559  0.55392521  1
  Sb  Sb16  1  0.53844109  0.01378029  0.82031219  1
  Sb  Sb17  1  0.46081281  0.99055666  0.18881235  1
  S  S18  1  0.93656943  0.01171465  0.79875303  1
  S  S19  1  0.06281169  0.99874739  0.20782410  1
  S  S20  1  0.41008726  0.00567823  0.99091369  1
  S  S21  1  0.59613439  0.00888767  0.02327372  1
  S  S22  1  0.16744723  0.00147673  0.90797761  1
  S  S23  1  0.82582352  0.98317144  0.09973112  1
  S  S24  1  0.08341296  0.50169447  0.65056990  1
  S  S25  1  0.91357620  0.49456355  0.34798023  1
  S  S26  1  0.74337565  0.99864186  0.30218126  1
  S  S27  1  0.25951105  0.00136291  0.70160797  1
  S  S28  1  0.17453824  0.46095267  0.45747690  1
  S  S29  1  0.83249824  0.51379649  0.55211749  1
  S  S30  1  0.44577956  0.48569410  0.80291563  1
  S  S31  1  0.55770714  0.50979912  0.19963612  1
  S  S32  1  0.90962887  0.46723670  0.98537627  1
  S  S33  1  0.08668345  0.49495887  0.01859474  1
  S  S34  1  0.66426734  0.48221378  0.89328843  1
  S  S35  1  0.32745644  0.50346569  0.10494488  1
  S  S36  1  0.58370077  0.01533557  0.65481009  1
  S  S37  1  0.41713731  0.98542989  0.36369305  1
  S  S38  1  0.24428026  0.46169683  0.29849732  1
  S  S39  1  0.75979995  0.52182300  0.70152820  1
  S  S40  1  0.66541141  0.01415150  0.44466915  1
  S  S41  1  0.33535972  0.01634583  0.54531815  1
