# generated using pymatgen
data_Pr2Mn3(SbS3)4
_symmetry_space_group_name_H-M   'P 1'
_cell_length_a   20.02960800
_cell_length_b   3.90410600
_cell_length_c   14.95364829
_cell_angle_alpha   90.00000000
_cell_angle_beta   126.33350609
_cell_angle_gamma   90.00000000
_symmetry_Int_Tables_number   1
_chemical_formula_structural   Pr2Mn3(SbS3)4
_chemical_formula_sum   'Pr4 Mn6 Sb8 S24'
_cell_volume   942.00006694
_cell_formula_units_Z   2
loop_
 _symmetry_equiv_pos_site_id
 _symmetry_equiv_pos_as_xyz
  1  'x, y, z'
loop_
 _atom_site_type_symbol
 _atom_site_label
 _atom_site_symmetry_multiplicity
 _atom_site_fract_x
 _atom_site_fract_y
 _atom_site_fract_z
 _atom_site_occupancy
  Pr  Pr0  1  0.25599755  0.51693355  0.85811159  1
  Pr  Pr1  1  0.73282865  0.50928329  0.13129443  1
  Pr  Pr2  1  0.76427359  0.97018020  0.86758012  1
  Pr  Pr3  1  0.24539766  0.98801878  0.14771275  1
  Mn  Mn4  1  0.30027450  0.50895769  0.62080058  1
  Mn  Mn5  1  0.69770892  0.49006856  0.38054545  1
  Mn  Mn6  1  0.00101304  0.00066467  0.99170989  1
  Mn  Mn7  1  0.80048816  0.98147791  0.60929980  1
  Mn  Mn8  1  0.19733965  0.97550602  0.39006420  1
  Mn  Mn9  1  0.50501457  0.50878072  0.01029283  1
  Sb  Sb10  1  0.89729277  0.02518263  0.45652206  1
  Sb  Sb11  1  0.10457562  0.01873130  0.54599622  1
  Sb  Sb12  1  0.03815507  0.50914191  0.81594417  1
  Sb  Sb13  1  0.96883930  0.51522053  0.19536843  1
  Sb  Sb14  1  0.39599376  0.51590788  0.45655058  1
  Sb  Sb15  1  0.60731400  0.50693675  0.55388131  1
  Sb  Sb16  1  0.53833326  0.01432786  0.82047263  1
  Sb  Sb17  1  0.46056879  0.98980685  0.18871199  1
  S  S18  1  0.93655546  0.01330229  0.79835247  1
  S  S19  1  0.06253777  0.99794910  0.20797550  1
  S  S20  1  0.41014460  0.00501621  0.99141154  1
  S  S21  1  0.59582695  0.00879016  0.02304600  1
  S  S22  1  0.16750041  0.00170573  0.90815918  1
  S  S23  1  0.82559694  0.98318738  0.09926760  1
  S  S24  1  0.08372625  0.50114804  0.65046526  1
  S  S25  1  0.91367570  0.49472803  0.34800658  1
  S  S26  1  0.74354400  0.99707119  0.30265210  1
  S  S27  1  0.25936271  0.00089444  0.70147657  1
  S  S28  1  0.17486485  0.46161071  0.45788371  1
  S  S29  1  0.83237258  0.51191777  0.55204221  1
  S  S30  1  0.44581073  0.48712302  0.80279960  1
  S  S31  1  0.55785429  0.51133038  0.19982879  1
  S  S32  1  0.90975850  0.46667286  0.98537989  1
  S  S33  1  0.08648473  0.49556665  0.01855464  1
  S  S34  1  0.66411454  0.48233699  0.89326067  1
  S  S35  1  0.32741323  0.50338098  0.10499398  1
  S  S36  1  0.58388747  0.01624322  0.65477862  1
  S  S37  1  0.41686825  0.98512861  0.36340547  1
  S  S38  1  0.24445259  0.46210999  0.29852459  1
  S  S39  1  0.76010148  0.52265367  0.70194073  1
  S  S40  1  0.66546720  0.01437459  0.44468474  1
  S  S41  1  0.33534629  0.01682565  0.54529110  1
