# generated using pymatgen
data_Pr2Mn3(SbS3)4
_symmetry_space_group_name_H-M   'P 1'
_cell_length_a   20.02960800
_cell_length_b   3.90410600
_cell_length_c   14.95364829
_cell_angle_alpha   90.00000000
_cell_angle_beta   126.33350609
_cell_angle_gamma   90.00000000
_symmetry_Int_Tables_number   1
_chemical_formula_structural   Pr2Mn3(SbS3)4
_chemical_formula_sum   'Pr4 Mn6 Sb8 S24'
_cell_volume   942.00006694
_cell_formula_units_Z   2
loop_
 _symmetry_equiv_pos_site_id
 _symmetry_equiv_pos_as_xyz
  1  'x, y, z'
loop_
 _atom_site_type_symbol
 _atom_site_label
 _atom_site_symmetry_multiplicity
 _atom_site_fract_x
 _atom_site_fract_y
 _atom_site_fract_z
 _atom_site_occupancy
  Pr  Pr0  1  0.25594779  0.51791747  0.85809552  1
  Pr  Pr1  1  0.73276002  0.50888754  0.13133318  1
  Pr  Pr2  1  0.76449320  0.97008633  0.86779284  1
  Pr  Pr3  1  0.24533282  0.98849932  0.14783549  1
  Mn  Mn4  1  0.30028526  0.50961945  0.62099858  1
  Mn  Mn5  1  0.69742371  0.48992797  0.38033134  1
  Mn  Mn6  1  0.00083811  0.99944002  0.99134090  1
  Mn  Mn7  1  0.80060578  0.98055743  0.60925617  1
  Mn  Mn8  1  0.19727734  0.97531446  0.38991121  1
  Mn  Mn9  1  0.50510188  0.50957317  0.01036813  1
  Sb  Sb10  1  0.89713719  0.02576131  0.45650908  1
  Sb  Sb11  1  0.10463079  0.01877964  0.54594695  1
  Sb  Sb12  1  0.03826508  0.50893934  0.81612362  1
  Sb  Sb13  1  0.96880294  0.51545417  0.19517004  1
  Sb  Sb14  1  0.39587234  0.51590041  0.45649839  1
  Sb  Sb15  1  0.60733181  0.50629641  0.55380906  1
  Sb  Sb16  1  0.53821617  0.01506691  0.82057114  1
  Sb  Sb17  1  0.46032155  0.98913525  0.18862451  1
  S  S18  1  0.93657745  0.01431835  0.79817059  1
  S  S19  1  0.06242937  0.99708878  0.20832208  1
  S  S20  1  0.41027299  0.00386787  0.99179241  1
  S  S21  1  0.59555265  0.00854250  0.02290861  1
  S  S22  1  0.16758377  0.00197760  0.90844331  1
  S  S23  1  0.82535737  0.98355823  0.09891217  1
  S  S24  1  0.08386791  0.50091413  0.65026834  1
  S  S25  1  0.91383725  0.49475259  0.34826256  1
  S  S26  1  0.74377348  0.99612158  0.30316930  1
  S  S27  1  0.25920249  0.00011316  0.70125163  1
  S  S28  1  0.17501429  0.46276313  0.45811387  1
  S  S29  1  0.83219192  0.51080152  0.55192077  1
  S  S30  1  0.44576468  0.48823540  0.80261650  1
  S  S31  1  0.55805971  0.51223717  0.20000582  1
  S  S32  1  0.90990552  0.46638852  0.98534148  1
  S  S33  1  0.08646100  0.49644028  0.01850540  1
  S  S34  1  0.66428428  0.48232556  0.89345287  1
  S  S35  1  0.32745945  0.50295516  0.10523436  1
  S  S36  1  0.58397490  0.01680570  0.65474554  1
  S  S37  1  0.41670423  0.98540768  0.36319232  1
  S  S38  1  0.24460148  0.46299973  0.29852767  1
  S  S39  1  0.76036557  0.52369272  0.70219159  1
  S  S40  1  0.66569985  0.01503527  0.44466356  1
  S  S41  1  0.33525280  0.01768311  0.54528904  1
