# generated using pymatgen
data_Pr2Mn3(SbS3)4
_symmetry_space_group_name_H-M   'P 1'
_cell_length_a   20.02960800
_cell_length_b   3.90410600
_cell_length_c   14.95364829
_cell_angle_alpha   90.00000000
_cell_angle_beta   126.33350609
_cell_angle_gamma   90.00000000
_symmetry_Int_Tables_number   1
_chemical_formula_structural   Pr2Mn3(SbS3)4
_chemical_formula_sum   'Pr4 Mn6 Sb8 S24'
_cell_volume   942.00006694
_cell_formula_units_Z   2
loop_
 _symmetry_equiv_pos_site_id
 _symmetry_equiv_pos_as_xyz
  1  'x, y, z'
loop_
 _atom_site_type_symbol
 _atom_site_label
 _atom_site_symmetry_multiplicity
 _atom_site_fract_x
 _atom_site_fract_y
 _atom_site_fract_z
 _atom_site_occupancy
  Pr  Pr0  1  0.25588283  0.51840508  0.85802754  1
  Pr  Pr1  1  0.73268658  0.50859961  0.13129466  1
  Pr  Pr2  1  0.76463647  0.96995472  0.86793944  1
  Pr  Pr3  1  0.24534325  0.98887506  0.14796719  1
  Mn  Mn4  1  0.30033744  0.51028846  0.62118870  1
  Mn  Mn5  1  0.69716403  0.48962921  0.38004320  1
  Mn  Mn6  1  0.00073128  0.99834720  0.99101363  1
  Mn  Mn7  1  0.80062316  0.97955355  0.60918536  1
  Mn  Mn8  1  0.19719844  0.97530999  0.38967476  1
  Mn  Mn9  1  0.50510671  0.50968407  0.01040386  1
  Sb  Sb10  1  0.89697522  0.02649805  0.45645438  1
  Sb  Sb11  1  0.10476201  0.01856117  0.54604016  1
  Sb  Sb12  1  0.03835397  0.50892348  0.81629132  1
  Sb  Sb13  1  0.96868863  0.51550425  0.19492173  1
  Sb  Sb14  1  0.39578058  0.51590204  0.45636284  1
  Sb  Sb15  1  0.60733521  0.50587187  0.55370982  1
  Sb  Sb16  1  0.53814207  0.01558849  0.82067239  1
  Sb  Sb17  1  0.46010962  0.98846558  0.18853405  1
  S  S18  1  0.93658026  0.01580942  0.79776501  1
  S  S19  1  0.06243745  0.99604848  0.20868590  1
  S  S20  1  0.41048803  0.00295560  0.99219195  1
  S  S21  1  0.59533977  0.00773696  0.02272017  1
  S  S22  1  0.16755024  0.00232752  0.90861873  1
  S  S23  1  0.82520716  0.98386924  0.09876097  1
  S  S24  1  0.08398938  0.50126826  0.65014939  1
  S  S25  1  0.91413620  0.49418014  0.34846619  1
  S  S26  1  0.74405090  0.99570408  0.30370083  1
  S  S27  1  0.25891444  0.99965245  0.70083051  1
  S  S28  1  0.17516245  0.46324513  0.45829405  1
  S  S29  1  0.83177948  0.50964797  0.55158780  1
  S  S30  1  0.44572854  0.48957748  0.80229147  1
  S  S31  1  0.55824972  0.51338438  0.20000134  1
  S  S32  1  0.91010229  0.46589753  0.98549475  1
  S  S33  1  0.08637886  0.49798120  0.01849458  1
  S  S34  1  0.66444074  0.48293379  0.89374302  1
  S  S35  1  0.32757435  0.50246249  0.10559703  1
  S  S36  1  0.58405614  0.01739963  0.65453779  1
  S  S37  1  0.41659637  0.98562179  0.36296536  1
  S  S38  1  0.24469372  0.46406834  0.29846216  1
  S  S39  1  0.76046690  0.52479620  0.70216438  1
  S  S40  1  0.66595032  0.01581213  0.44451509  1
  S  S41  1  0.33506052  0.01878006  0.54511411  1
