# generated using pymatgen
data_Pr2Mn3(SbS3)4
_symmetry_space_group_name_H-M   'P 1'
_cell_length_a   20.02960800
_cell_length_b   3.90410600
_cell_length_c   14.95364829
_cell_angle_alpha   90.00000000
_cell_angle_beta   126.33350609
_cell_angle_gamma   90.00000000
_symmetry_Int_Tables_number   1
_chemical_formula_structural   Pr2Mn3(SbS3)4
_chemical_formula_sum   'Pr4 Mn6 Sb8 S24'
_cell_volume   942.00006694
_cell_formula_units_Z   2
loop_
 _symmetry_equiv_pos_site_id
 _symmetry_equiv_pos_as_xyz
  1  'x, y, z'
loop_
 _atom_site_type_symbol
 _atom_site_label
 _atom_site_symmetry_multiplicity
 _atom_site_fract_x
 _atom_site_fract_y
 _atom_site_fract_z
 _atom_site_occupancy
  Pr  Pr0  1  0.25586405  0.51909151  0.85801033  1
  Pr  Pr1  1  0.73255368  0.50844857  0.13120017  1
  Pr  Pr2  1  0.76463814  0.96955451  0.86796936  1
  Pr  Pr3  1  0.24534691  0.98924766  0.14806755  1
  Mn  Mn4  1  0.30032566  0.51059402  0.62142690  1
  Mn  Mn5  1  0.69697623  0.48936281  0.37992860  1
  Mn  Mn6  1  0.00058438  0.99727418  0.99071108  1
  Mn  Mn7  1  0.80056170  0.97898057  0.60902976  1
  Mn  Mn8  1  0.19713356  0.97487378  0.38940755  1
  Mn  Mn9  1  0.50513240  0.50970073  0.01046290  1
  Sb  Sb10  1  0.89694748  0.02682855  0.45657965  1
  Sb  Sb11  1  0.10487725  0.01816294  0.54610028  1
  Sb  Sb12  1  0.03843080  0.50868246  0.81636987  1
  Sb  Sb13  1  0.96860084  0.51559510  0.19468959  1
  Sb  Sb14  1  0.39566959  0.51599133  0.45625776  1
  Sb  Sb15  1  0.60733687  0.50492209  0.55370004  1
  Sb  Sb16  1  0.53810052  0.01605205  0.82073179  1
  Sb  Sb17  1  0.45992335  0.98798446  0.18845765  1
  S  S18  1  0.93676023  0.01747850  0.79757443  1
  S  S19  1  0.06244055  0.99525915  0.20902185  1
  S  S20  1  0.41070942  0.00285613  0.99255630  1
  S  S21  1  0.59531663  0.00678789  0.02288121  1
  S  S22  1  0.16751915  0.00227962  0.90865174  1
  S  S23  1  0.82499596  0.98500185  0.09851943  1
  S  S24  1  0.08402758  0.50132045  0.64992878  1
  S  S25  1  0.91456088  0.49407098  0.34888655  1
  S  S26  1  0.74432414  0.99585670  0.30426711  1
  S  S27  1  0.25858725  0.99958741  0.70033749  1
  S  S28  1  0.17522135  0.46398049  0.45833703  1
  S  S29  1  0.83126759  0.50907377  0.55117192  1
  S  S30  1  0.44586561  0.49068954  0.80222694  1
  S  S31  1  0.55838078  0.51466294  0.19999706  1
  S  S32  1  0.91028640  0.46616818  0.98566703  1
  S  S33  1  0.08634633  0.49910417  0.01849574  1
  S  S34  1  0.66444774  0.48381474  0.89386047  1
  S  S35  1  0.32772541  0.50203792  0.10583509  1
  S  S36  1  0.58402941  0.01821701  0.65428648  1
  S  S37  1  0.41656863  0.98611354  0.36283878  1
  S  S38  1  0.24485423  0.46519115  0.29851625  1
  S  S39  1  0.76057930  0.52556492  0.70222348  1
  S  S40  1  0.66615263  0.01659578  0.44444512  1
  S  S41  1  0.33495328  0.01977559  0.54496795  1
