# generated using pymatgen
data_Pr2Mn3(SbS3)4
_symmetry_space_group_name_H-M   'P 1'
_cell_length_a   20.02960800
_cell_length_b   3.90410600
_cell_length_c   14.95364829
_cell_angle_alpha   90.00000000
_cell_angle_beta   126.33350609
_cell_angle_gamma   90.00000000
_symmetry_Int_Tables_number   1
_chemical_formula_structural   Pr2Mn3(SbS3)4
_chemical_formula_sum   'Pr4 Mn6 Sb8 S24'
_cell_volume   942.00006694
_cell_formula_units_Z   2
loop_
 _symmetry_equiv_pos_site_id
 _symmetry_equiv_pos_as_xyz
  1  'x, y, z'
loop_
 _atom_site_type_symbol
 _atom_site_label
 _atom_site_symmetry_multiplicity
 _atom_site_fract_x
 _atom_site_fract_y
 _atom_site_fract_z
 _atom_site_occupancy
  Pr  Pr0  1  0.25583830  0.51942855  0.85801802  1
  Pr  Pr1  1  0.73252889  0.50820623  0.13119728  1
  Pr  Pr2  1  0.76464151  0.96873173  0.86806706  1
  Pr  Pr3  1  0.24535646  0.98955541  0.14818809  1
  Mn  Mn4  1  0.30024368  0.51128615  0.62158184  1
  Mn  Mn5  1  0.69684489  0.48917221  0.37973650  1
  Mn  Mn6  1  0.00037504  0.99620533  0.99046302  1
  Mn  Mn7  1  0.80045720  0.97822841  0.60910736  1
  Mn  Mn8  1  0.19711547  0.97432813  0.38905867  1
  Mn  Mn9  1  0.50522621  0.50947170  0.01061577  1
  Sb  Sb10  1  0.89692787  0.02720902  0.45673739  1
  Sb  Sb11  1  0.10503680  0.01789115  0.54618018  1
  Sb  Sb12  1  0.03845004  0.50877600  0.81632178  1
  Sb  Sb13  1  0.96852433  0.51545506  0.19443394  1
  Sb  Sb14  1  0.39560282  0.51607876  0.45628981  1
  Sb  Sb15  1  0.60739795  0.50419259  0.55365279  1
  Sb  Sb16  1  0.53804391  0.01646746  0.82083266  1
  Sb  Sb17  1  0.45972986  0.98771579  0.18836905  1
  S  S18  1  0.93705666  0.01874566  0.79751237  1
  S  S19  1  0.06231181  0.99445619  0.20928596  1
  S  S20  1  0.41092537  0.00321906  0.99307936  1
  S  S21  1  0.59520666  0.00694713  0.02302208  1
  S  S22  1  0.16751437  0.00229609  0.90838993  1
  S  S23  1  0.82479468  0.98602799  0.09843106  1
  S  S24  1  0.08405381  0.50188328  0.64976697  1
  S  S25  1  0.91495338  0.49375996  0.34939742  1
  S  S26  1  0.74440771  0.99656604  0.30466499  1
  S  S27  1  0.25816718  0.99938469  0.69984013  1
  S  S28  1  0.17528650  0.46491168  0.45860011  1
  S  S29  1  0.83083116  0.50835525  0.55087046  1
  S  S30  1  0.44595094  0.49200145  0.80211916  1
  S  S31  1  0.55866595  0.51586782  0.20007792  1
  S  S32  1  0.91046408  0.46682667  0.98570566  1
  S  S33  1  0.08634423  0.50012721  0.01835293  1
  S  S34  1  0.66450487  0.48492577  0.89398642  1
  S  S35  1  0.32789515  0.50170928  0.10602798  1
  S  S36  1  0.58405599  0.01852440  0.65407873  1
  S  S37  1  0.41654425  0.98673077  0.36277538  1
  S  S38  1  0.24517508  0.46625734  0.29874634  1
  S  S39  1  0.76067914  0.52612735  0.70212172  1
  S  S40  1  0.66634516  0.01755596  0.44452081  1
  S  S41  1  0.33501798  0.02078863  0.54506502  1
