# generated using pymatgen
data_Pr2Mn3(SbS3)4
_symmetry_space_group_name_H-M   'P 1'
_cell_length_a   20.02960800
_cell_length_b   3.90410600
_cell_length_c   14.95364829
_cell_angle_alpha   90.00000000
_cell_angle_beta   126.33350609
_cell_angle_gamma   90.00000000
_symmetry_Int_Tables_number   1
_chemical_formula_structural   Pr2Mn3(SbS3)4
_chemical_formula_sum   'Pr4 Mn6 Sb8 S24'
_cell_volume   942.00006694
_cell_formula_units_Z   2
loop_
 _symmetry_equiv_pos_site_id
 _symmetry_equiv_pos_as_xyz
  1  'x, y, z'
loop_
 _atom_site_type_symbol
 _atom_site_label
 _atom_site_symmetry_multiplicity
 _atom_site_fract_x
 _atom_site_fract_y
 _atom_site_fract_z
 _atom_site_occupancy
  Pr  Pr0  1  0.25588451  0.51944445  0.85809542  1
  Pr  Pr1  1  0.73247441  0.50812216  0.13121236  1
  Pr  Pr2  1  0.76461325  0.96781095  0.86807401  1
  Pr  Pr3  1  0.24527584  0.98979838  0.14822853  1
  Mn  Mn4  1  0.30018121  0.51201905  0.62172841  1
  Mn  Mn5  1  0.69680539  0.48913434  0.37965968  1
  Mn  Mn6  1  0.00027266  0.99481292  0.99027533  1
  Mn  Mn7  1  0.80036536  0.97698958  0.60922985  1
  Mn  Mn8  1  0.19726013  0.97428821  0.38895114  1
  Mn  Mn9  1  0.50539083  0.50904558  0.01089439  1
  Sb  Sb10  1  0.89687866  0.02747885  0.45688968  1
  Sb  Sb11  1  0.10524366  0.01776432  0.54630591  1
  Sb  Sb12  1  0.03853369  0.50895389  0.81637941  1
  Sb  Sb13  1  0.96847679  0.51540269  0.19423063  1
  Sb  Sb14  1  0.39548992  0.51615740  0.45628237  1
  Sb  Sb15  1  0.60748340  0.50339503  0.55369112  1
  Sb  Sb16  1  0.53799868  0.01658856  0.82097059  1
  Sb  Sb17  1  0.45964792  0.98728244  0.18837138  1
  S  S18  1  0.93730247  0.01979430  0.79735970  1
  S  S19  1  0.06237082  0.99333594  0.20965659  1
  S  S20  1  0.41103115  0.00339662  0.99356727  1
  S  S21  1  0.59516637  0.00659135  0.02335008  1
  S  S22  1  0.16751413  0.00216163  0.90814730  1
  S  S23  1  0.82454172  0.98631176  0.09847971  1
  S  S24  1  0.08424283  0.50251365  0.64979407  1
  S  S25  1  0.91517358  0.49380127  0.34982305  1
  S  S26  1  0.74441865  0.99759625  0.30504852  1
  S  S27  1  0.25781247  0.99942224  0.69946129  1
  S  S28  1  0.17521136  0.46606860  0.45873701  1
  S  S29  1  0.83021232  0.50737663  0.55034408  1
  S  S30  1  0.44603260  0.49331928  0.80205332  1
  S  S31  1  0.55889889  0.51656914  0.19996011  1
  S  S32  1  0.91053614  0.46720186  0.98566440  1
  S  S33  1  0.08638307  0.50142285  0.01811752  1
  S  S34  1  0.66459850  0.48622266  0.89407054  1
  S  S35  1  0.32808313  0.50182568  0.10622396  1
  S  S36  1  0.58395591  0.01901667  0.65364584  1
  S  S37  1  0.41647559  0.98786593  0.36256318  1
  S  S38  1  0.24542307  0.46698249  0.29892526  1
  S  S39  1  0.76077398  0.52705411  0.70187409  1
  S  S40  1  0.66644136  0.01852441  0.44451470  1
  S  S41  1  0.33515136  0.02159571  0.54525328  1
