# generated using pymatgen
data_Pr2Mn3(SbS3)4
_symmetry_space_group_name_H-M   'P 1'
_cell_length_a   20.02960800
_cell_length_b   3.90410600
_cell_length_c   14.95364829
_cell_angle_alpha   90.00000000
_cell_angle_beta   126.33350609
_cell_angle_gamma   90.00000000
_symmetry_Int_Tables_number   1
_chemical_formula_structural   Pr2Mn3(SbS3)4
_chemical_formula_sum   'Pr4 Mn6 Sb8 S24'
_cell_volume   942.00006694
_cell_formula_units_Z   2
loop_
 _symmetry_equiv_pos_site_id
 _symmetry_equiv_pos_as_xyz
  1  'x, y, z'
loop_
 _atom_site_type_symbol
 _atom_site_label
 _atom_site_symmetry_multiplicity
 _atom_site_fract_x
 _atom_site_fract_y
 _atom_site_fract_z
 _atom_site_occupancy
  Pr  Pr0  1  0.26701661  0.49170652  0.86413400  1
  Pr  Pr1  1  0.73639536  0.51188546  0.13715813  1
  Pr  Pr2  1  0.76251234  0.01135614  0.86133441  1
  Pr  Pr3  1  0.23513409  0.00515000  0.13537185  1
  Mn  Mn4  1  0.28741127  0.47994269  0.59178668  1
  Mn  Mn5  1  0.68782650  0.48659138  0.37024453  1
  Mn  Mn6  1  0.00875387  0.98594161  0.02058859  1
  Mn  Mn7  1  0.80591822  0.00740726  0.61862647  1
  Mn  Mn8  1  0.19857851  0.97950676  0.37595162  1
  Mn  Mn9  1  0.49280312  0.47983688  0.99009270  1
  Sb  Sb10  1  0.88955339  0.98854850  0.45014808  1
  Sb  Sb11  1  0.11168027  0.97703626  0.54595160  1
  Sb  Sb12  1  0.04013360  0.52386481  0.82206267  1
  Sb  Sb13  1  0.96239537  0.49799577  0.18286049  1
  Sb  Sb14  1  0.39549329  0.50596606  0.45063925  1
  Sb  Sb15  1  0.60593227  0.47396338  0.54793353  1
  Sb  Sb16  1  0.53288779  0.99929425  0.80766982  1
  Sb  Sb17  1  0.46448308  0.01617272  0.18857175  1
  S  S18  1  0.93698365  0.99895324  0.80411715  1
  S  S19  1  0.06492538  0.98342209  0.20073637  1
  S  S20  1  0.41285100  0.97455299  0.98099396  1
  S  S21  1  0.57723864  0.01802499  0.00942955  1
  S  S22  1  0.17295036  0.03364670  0.90409451  1
  S  S23  1  0.82477455  0.05041936  0.09537020  1
  S  S24  1  0.09613322  0.48286832  0.64647869  1
  S  S25  1  0.91119755  0.48943208  0.35266708  1
  S  S26  1  0.73963602  0.94554861  0.30173016  1
  S  S27  1  0.26344560  0.00376748  0.70799971  1
  S  S28  1  0.15903538  0.48879900  0.42546725  1
  S  S29  1  0.82519394  0.49058806  0.54958290  1
  S  S30  1  0.43112117  0.49872447  0.79903834  1
  S  S31  1  0.55566821  0.51729086  0.18426866  1
  S  S32  1  0.91027446  0.48203025  0.98628316  1
  S  S33  1  0.09274636  0.47875706  0.02904042  1
  S  S34  1  0.66248412  0.50726209  0.88408395  1
  S  S35  1  0.33173283  0.50475984  0.09992641  1
  S  S36  1  0.59755477  0.98521506  0.65549937  1
  S  S37  1  0.40357154  0.98863796  0.34690003  1
  S  S38  1  0.23872378  0.46130589  0.30833386  1
  S  S39  1  0.76143220  0.49364828  0.69656008  1
  S  S40  1  0.66766635  0.02986147  0.45229722  1
  S  S41  1  0.32700324  0.98050878  0.55337280  1
