# generated using pymatgen
data_Pr2Mn3(SbS3)4
_symmetry_space_group_name_H-M   'P 1'
_cell_length_a   20.02960800
_cell_length_b   3.90410600
_cell_length_c   14.95364829
_cell_angle_alpha   90.00000000
_cell_angle_beta   126.33350609
_cell_angle_gamma   90.00000000
_symmetry_Int_Tables_number   1
_chemical_formula_structural   Pr2Mn3(SbS3)4
_chemical_formula_sum   'Pr4 Mn6 Sb8 S24'
_cell_volume   942.00006694
_cell_formula_units_Z   2
loop_
 _symmetry_equiv_pos_site_id
 _symmetry_equiv_pos_as_xyz
  1  'x, y, z'
loop_
 _atom_site_type_symbol
 _atom_site_label
 _atom_site_symmetry_multiplicity
 _atom_site_fract_x
 _atom_site_fract_y
 _atom_site_fract_z
 _atom_site_occupancy
  Pr  Pr0  1  0.25593732  0.51933285  0.85812815  1
  Pr  Pr1  1  0.73238360  0.50813497  0.13124671  1
  Pr  Pr2  1  0.76450553  0.96708497  0.86802906  1
  Pr  Pr3  1  0.24519963  0.99002762  0.14829671  1
  Mn  Mn4  1  0.30006702  0.51294038  0.62191624  1
  Mn  Mn5  1  0.69675290  0.48872710  0.37960470  1
  Mn  Mn6  1  0.00009266  0.99393032  0.99004823  1
  Mn  Mn7  1  0.80023958  0.97533528  0.60941668  1
  Mn  Mn8  1  0.19746369  0.97365313  0.38896527  1
  Mn  Mn9  1  0.50558777  0.50828407  0.01113364  1
  Sb  Sb10  1  0.89683286  0.02735242  0.45701780  1
  Sb  Sb11  1  0.10538392  0.01795468  0.54641040  1
  Sb  Sb12  1  0.03855450  0.50928670  0.81645028  1
  Sb  Sb13  1  0.96847034  0.51558733  0.19402752  1
  Sb  Sb14  1  0.39540573  0.51633640  0.45631882  1
  Sb  Sb15  1  0.60759394  0.50272633  0.55379835  1
  Sb  Sb16  1  0.53799178  0.01668503  0.82115238  1
  Sb  Sb17  1  0.45959373  0.98673177  0.18834822  1
  S  S18  1  0.93756270  0.02099558  0.79737550  1
  S  S19  1  0.06248147  0.99255429  0.20984102  1
  S  S20  1  0.41115387  0.00376161  0.99408275  1
  S  S21  1  0.59515006  0.00645197  0.02362873  1
  S  S22  1  0.16773196  0.00198398  0.90811636  1
  S  S23  1  0.82437370  0.98663700  0.09871722  1
  S  S24  1  0.08452289  0.50317157  0.64997672  1
  S  S25  1  0.91539279  0.49387990  0.35022842  1
  S  S26  1  0.74422845  0.99845510  0.30506273  1
  S  S27  1  0.25740548  0.99909406  0.69891633  1
  S  S28  1  0.17523180  0.46699130  0.45896215  1
  S  S29  1  0.82965203  0.50692615  0.54999888  1
  S  S30  1  0.44601732  0.49469521  0.80183162  1
  S  S31  1  0.55903102  0.51647624  0.19969324  1
  S  S32  1  0.91063215  0.46741951  0.98580705  1
  S  S33  1  0.08629834  0.50202849  0.01781782  1
  S  S34  1  0.66465033  0.48769870  0.89417289  1
  S  S35  1  0.32841365  0.50165999  0.10632831  1
  S  S36  1  0.58389555  0.01967475  0.65326456  1
  S  S37  1  0.41654053  0.98888339  0.36241951  1
  S  S38  1  0.24567161  0.46791850  0.29919464  1
  S  S39  1  0.76097361  0.52714731  0.70164987  1
  S  S40  1  0.66669478  0.02000855  0.44457668  1
  S  S41  1  0.33530009  0.02183982  0.54536593  1
