# generated using pymatgen
data_Pr2Mn3(SbS3)4
_symmetry_space_group_name_H-M   'P 1'
_cell_length_a   20.02960800
_cell_length_b   3.90410600
_cell_length_c   14.95364829
_cell_angle_alpha   90.00000000
_cell_angle_beta   126.33350609
_cell_angle_gamma   90.00000000
_symmetry_Int_Tables_number   1
_chemical_formula_structural   Pr2Mn3(SbS3)4
_chemical_formula_sum   'Pr4 Mn6 Sb8 S24'
_cell_volume   942.00006694
_cell_formula_units_Z   2
loop_
 _symmetry_equiv_pos_site_id
 _symmetry_equiv_pos_as_xyz
  1  'x, y, z'
loop_
 _atom_site_type_symbol
 _atom_site_label
 _atom_site_symmetry_multiplicity
 _atom_site_fract_x
 _atom_site_fract_y
 _atom_site_fract_z
 _atom_site_occupancy
  Pr  Pr0  1  0.25593296  0.51916424  0.85803209  1
  Pr  Pr1  1  0.73229696  0.50803561  0.13121469  1
  Pr  Pr2  1  0.76447914  0.96669585  0.86803166  1
  Pr  Pr3  1  0.24508084  0.99014657  0.14825376  1
  Mn  Mn4  1  0.29984121  0.51420387  0.62188749  1
  Mn  Mn5  1  0.69666216  0.48834223  0.37951087  1
  Mn  Mn6  1  0.99984178  0.99325103  0.98976107  1
  Mn  Mn7  1  0.80013005  0.97436233  0.60949389  1
  Mn  Mn8  1  0.19775436  0.97312512  0.38905402  1
  Mn  Mn9  1  0.50567306  0.50794802  0.01117704  1
  Sb  Sb10  1  0.89684088  0.02740160  0.45710563  1
  Sb  Sb11  1  0.10555939  0.01822963  0.54648481  1
  Sb  Sb12  1  0.03853067  0.50939418  0.81647353  1
  Sb  Sb13  1  0.96852622  0.51601244  0.19392009  1
  Sb  Sb14  1  0.39538118  0.51641394  0.45643159  1
  Sb  Sb15  1  0.60779090  0.50214880  0.55398292  1
  Sb  Sb16  1  0.53787020  0.01694422  0.82113402  1
  Sb  Sb17  1  0.45947404  0.98669093  0.18816656  1
  S  S18  1  0.93784006  0.02173060  0.79752055  1
  S  S19  1  0.06269480  0.99099123  0.21013974  1
  S  S20  1  0.41109017  0.00422792  0.99442029  1
  S  S21  1  0.59503362  0.00654759  0.02367887  1
  S  S22  1  0.16800659  0.00166809  0.90820575  1
  S  S23  1  0.82432658  0.98743226  0.09907158  1
  S  S24  1  0.08484801  0.50384783  0.65020669  1
  S  S25  1  0.91569250  0.49465267  0.35073912  1
  S  S26  1  0.74428384  0.99956979  0.30523346  1
  S  S27  1  0.25711136  0.99831833  0.69844941  1
  S  S28  1  0.17531597  0.46756105  0.45907706  1
  S  S29  1  0.82901282  0.50672674  0.54951371  1
  S  S30  1  0.44591459  0.49591234  0.80155496  1
  S  S31  1  0.55907070  0.51754520  0.19943356  1
  S  S32  1  0.91074870  0.46697477  0.98604252  1
  S  S33  1  0.08623072  0.50210767  0.01753169  1
  S  S34  1  0.66469417  0.48881953  0.89428158  1
  S  S35  1  0.32857138  0.50146189  0.10620017  1
  S  S36  1  0.58387940  0.02007811  0.65291308  1
  S  S37  1  0.41655004  0.98994605  0.36220452  1
  S  S38  1  0.24585449  0.46818850  0.29938572  1
  S  S39  1  0.76114677  0.52659239  0.70141075  1
  S  S40  1  0.66689734  0.02132047  0.44464942  1
  S  S41  1  0.33542153  0.02210632  0.54534471  1
