# generated using pymatgen
data_Pr2Mn3(SbS3)4
_symmetry_space_group_name_H-M   'P 1'
_cell_length_a   20.02960800
_cell_length_b   3.90410600
_cell_length_c   14.95364829
_cell_angle_alpha   90.00000000
_cell_angle_beta   126.33350609
_cell_angle_gamma   90.00000000
_symmetry_Int_Tables_number   1
_chemical_formula_structural   Pr2Mn3(SbS3)4
_chemical_formula_sum   'Pr4 Mn6 Sb8 S24'
_cell_volume   942.00006694
_cell_formula_units_Z   2
loop_
 _symmetry_equiv_pos_site_id
 _symmetry_equiv_pos_as_xyz
  1  'x, y, z'
loop_
 _atom_site_type_symbol
 _atom_site_label
 _atom_site_symmetry_multiplicity
 _atom_site_fract_x
 _atom_site_fract_y
 _atom_site_fract_z
 _atom_site_occupancy
  Pr  Pr0  1  0.25596451  0.51922724  0.85792925  1
  Pr  Pr1  1  0.73221201  0.50794416  0.13111901  1
  Pr  Pr2  1  0.76449665  0.96671659  0.86809660  1
  Pr  Pr3  1  0.24505063  0.99002587  0.14838401  1
  Mn  Mn4  1  0.29979818  0.51540852  0.62196276  1
  Mn  Mn5  1  0.69663032  0.48816177  0.37935016  1
  Mn  Mn6  1  0.99946931  0.99261177  0.98930334  1
  Mn  Mn7  1  0.80015466  0.97358922  0.60963270  1
  Mn  Mn8  1  0.19799933  0.97291026  0.38905942  1
  Mn  Mn9  1  0.50571398  0.50803598  0.01114521  1
  Sb  Sb10  1  0.89681731  0.02746986  0.45716565  1
  Sb  Sb11  1  0.10576174  0.01852720  0.54663127  1
  Sb  Sb12  1  0.03846079  0.50970037  0.81641278  1
  Sb  Sb13  1  0.96851584  0.51652358  0.19378386  1
  Sb  Sb14  1  0.39530984  0.51635848  0.45653929  1
  Sb  Sb15  1  0.60791742  0.50180284  0.55409233  1
  Sb  Sb16  1  0.53777505  0.01715039  0.82111901  1
  Sb  Sb17  1  0.45931093  0.98677389  0.18797407  1
  S  S18  1  0.93825876  0.02222826  0.79791431  1
  S  S19  1  0.06282219  0.98991394  0.21038783  1
  S  S20  1  0.41100765  0.00423566  0.99461376  1
  S  S21  1  0.59481211  0.00676974  0.02374052  1
  S  S22  1  0.16835699  0.00157225  0.90817430  1
  S  S23  1  0.82438281  0.98795982  0.09952739  1
  S  S24  1  0.08494083  0.50393877  0.65008591  1
  S  S25  1  0.91602587  0.49508710  0.35133898  1
  S  S26  1  0.74445773  0.00041256  0.30531186  1
  S  S27  1  0.25689556  0.99800398  0.69820041  1
  S  S28  1  0.17531824  0.46815003  0.45900281  1
  S  S29  1  0.82843086  0.50750655  0.54907306  1
  S  S30  1  0.44579730  0.49641372  0.80138171  1
  S  S31  1  0.55916141  0.51871433  0.19925338  1
  S  S32  1  0.91094298  0.46709372  0.98624113  1
  S  S33  1  0.08628825  0.50227008  0.01746992  1
  S  S34  1  0.66494362  0.48913315  0.89453253  1
  S  S35  1  0.32871775  0.50194604  0.10597046  1
  S  S36  1  0.58393984  0.02052562  0.65270727  1
  S  S37  1  0.41647446  0.99112278  0.36178138  1
  S  S38  1  0.24593336  0.46862882  0.29954314  1
  S  S39  1  0.76133030  0.52632278  0.70136846  1
  S  S40  1  0.66696765  0.02242360  0.44453751  1
  S  S41  1  0.33551091  0.02295622  0.54541188  1
