# generated using pymatgen
data_Pr2Mn3(SbS3)4
_symmetry_space_group_name_H-M   'P 1'
_cell_length_a   20.02960800
_cell_length_b   3.90410600
_cell_length_c   14.95364829
_cell_angle_alpha   90.00000000
_cell_angle_beta   126.33350609
_cell_angle_gamma   90.00000000
_symmetry_Int_Tables_number   1
_chemical_formula_structural   Pr2Mn3(SbS3)4
_chemical_formula_sum   'Pr4 Mn6 Sb8 S24'
_cell_volume   942.00006694
_cell_formula_units_Z   2
loop_
 _symmetry_equiv_pos_site_id
 _symmetry_equiv_pos_as_xyz
  1  'x, y, z'
loop_
 _atom_site_type_symbol
 _atom_site_label
 _atom_site_symmetry_multiplicity
 _atom_site_fract_x
 _atom_site_fract_y
 _atom_site_fract_z
 _atom_site_occupancy
  Pr  Pr0  1  0.25599345  0.51938997  0.85782759  1
  Pr  Pr1  1  0.73212448  0.50753927  0.13103857  1
  Pr  Pr2  1  0.76457423  0.96682989  0.86830488  1
  Pr  Pr3  1  0.24502764  0.98993504  0.14854822  1
  Mn  Mn4  1  0.29972624  0.51643942  0.62206384  1
  Mn  Mn5  1  0.69653176  0.48737313  0.37920348  1
  Mn  Mn6  1  0.99914656  0.99221048  0.98894355  1
  Mn  Mn7  1  0.80015676  0.97302348  0.60966815  1
  Mn  Mn8  1  0.19818260  0.97304900  0.38903605  1
  Mn  Mn9  1  0.50573677  0.50820365  0.01100515  1
  Sb  Sb10  1  0.89674911  0.02748279  0.45720309  1
  Sb  Sb11  1  0.10596867  0.01904453  0.54669602  1
  Sb  Sb12  1  0.03837902  0.50994663  0.81638460  1
  Sb  Sb13  1  0.96850744  0.51703704  0.19370569  1
  Sb  Sb14  1  0.39521891  0.51642673  0.45656877  1
  Sb  Sb15  1  0.60800614  0.50118594  0.55421938  1
  Sb  Sb16  1  0.53763675  0.01752685  0.82106256  1
  Sb  Sb17  1  0.45920326  0.98714234  0.18784626  1
  S  S18  1  0.93859829  0.02283366  0.79814379  1
  S  S19  1  0.06296678  0.98929997  0.21049296  1
  S  S20  1  0.41093110  0.00443483  0.99482836  1
  S  S21  1  0.59463628  0.00681197  0.02374109  1
  S  S22  1  0.16876653  0.00189127  0.90822978  1
  S  S23  1  0.82429542  0.98816794  0.10000095  1
  S  S24  1  0.08499015  0.50467044  0.64986150  1
  S  S25  1  0.91642108  0.49500024  0.35189560  1
  S  S26  1  0.74461234  0.00060329  0.30514378  1
  S  S27  1  0.25671486  0.99783424  0.69801634  1
  S  S28  1  0.17531092  0.46907220  0.45899019  1
  S  S29  1  0.82777458  0.50849186  0.54877688  1
  S  S30  1  0.44573064  0.49689039  0.80137266  1
  S  S31  1  0.55934544  0.52060386  0.19913670  1
  S  S32  1  0.91100103  0.46688283  0.98634405  1
  S  S33  1  0.08625388  0.50238794  0.01754828  1
  S  S34  1  0.66503492  0.48894030  0.89469757  1
  S  S35  1  0.32878240  0.50230516  0.10582824  1
  S  S36  1  0.58403908  0.02105613  0.65238528  1
  S  S37  1  0.41636435  0.99222398  0.36143744  1
  S  S38  1  0.24606898  0.46960544  0.29993126  1
  S  S39  1  0.76135140  0.52666111  0.70107482  1
  S  S40  1  0.66720067  0.02327773  0.44446202  1
  S  S41  1  0.33573108  0.02385745  0.54560580  1
