# generated using pymatgen
data_Pr2Mn3(SbS3)4
_symmetry_space_group_name_H-M   'P 1'
_cell_length_a   20.02960800
_cell_length_b   3.90410600
_cell_length_c   14.95364829
_cell_angle_alpha   90.00000000
_cell_angle_beta   126.33350609
_cell_angle_gamma   90.00000000
_symmetry_Int_Tables_number   1
_chemical_formula_structural   Pr2Mn3(SbS3)4
_chemical_formula_sum   'Pr4 Mn6 Sb8 S24'
_cell_volume   942.00006694
_cell_formula_units_Z   2
loop_
 _symmetry_equiv_pos_site_id
 _symmetry_equiv_pos_as_xyz
  1  'x, y, z'
loop_
 _atom_site_type_symbol
 _atom_site_label
 _atom_site_symmetry_multiplicity
 _atom_site_fract_x
 _atom_site_fract_y
 _atom_site_fract_z
 _atom_site_occupancy
  Pr  Pr0  1  0.25600802  0.51945087  0.85780530  1
  Pr  Pr1  1  0.73194831  0.50746189  0.13097570  1
  Pr  Pr2  1  0.76463744  0.96672075  0.86845317  1
  Pr  Pr3  1  0.24494737  0.98979016  0.14866889  1
  Mn  Mn4  1  0.29955932  0.51763793  0.62202372  1
  Mn  Mn5  1  0.69646342  0.48660695  0.37910897  1
  Mn  Mn6  1  0.99885519  0.99193571  0.98861879  1
  Mn  Mn7  1  0.80024751  0.97221186  0.60979937  1
  Mn  Mn8  1  0.19827616  0.97315421  0.38896715  1
  Mn  Mn9  1  0.50575040  0.50811531  0.01080089  1
  Sb  Sb10  1  0.89670959  0.02753547  0.45729269  1
  Sb  Sb11  1  0.10616877  0.01971000  0.54674924  1
  Sb  Sb12  1  0.03832883  0.51010598  0.81637959  1
  Sb  Sb13  1  0.96847158  0.51764868  0.19357150  1
  Sb  Sb14  1  0.39514148  0.51635604  0.45662140  1
  Sb  Sb15  1  0.60810545  0.50046391  0.55440828  1
  Sb  Sb16  1  0.53750846  0.01789593  0.82098549  1
  Sb  Sb17  1  0.45913843  0.98751651  0.18773271  1
  S  S18  1  0.93898994  0.02400688  0.79836618  1
  S  S19  1  0.06306140  0.98882495  0.21047089  1
  S  S20  1  0.41089152  0.00438956  0.99500380  1
  S  S21  1  0.59438218  0.00701378  0.02356590  1
  S  S22  1  0.16904590  0.00189838  0.90811225  1
  S  S23  1  0.82431816  0.98848908  0.10054123  1
  S  S24  1  0.08499140  0.50518003  0.64950356  1
  S  S25  1  0.91685134  0.49475256  0.35263023  1
  S  S26  1  0.74473357  0.00057767  0.30497884  1
  S  S27  1  0.25657064  0.99707956  0.69796253  1
  S  S28  1  0.17528743  0.46945480  0.45893026  1
  S  S29  1  0.82722178  0.50937210  0.54843885  1
  S  S30  1  0.44552929  0.49765882  0.80134668  1
  S  S31  1  0.55954823  0.52209751  0.19881952  1
  S  S32  1  0.91102837  0.46667870  0.98654684  1
  S  S33  1  0.08609131  0.50174202  0.01768895  1
  S  S34  1  0.66494663  0.48912537  0.89470547  1
  S  S35  1  0.32883196  0.50237365  0.10579470  1
  S  S36  1  0.58400075  0.02150952  0.65169132  1
  S  S37  1  0.41638174  0.99352891  0.36114426  1
  S  S38  1  0.24621667  0.47106403  0.30018634  1
  S  S39  1  0.76140783  0.52717321  0.70086803  1
  S  S40  1  0.66724475  0.02353572  0.44419568  1
  S  S41  1  0.33591512  0.02416591  0.54580599  1
