# generated using pymatgen
data_Pr2Mn3(SbS3)4
_symmetry_space_group_name_H-M   'P 1'
_cell_length_a   20.02960800
_cell_length_b   3.90410600
_cell_length_c   14.95364829
_cell_angle_alpha   90.00000000
_cell_angle_beta   126.33350609
_cell_angle_gamma   90.00000000
_symmetry_Int_Tables_number   1
_chemical_formula_structural   Pr2Mn3(SbS3)4
_chemical_formula_sum   'Pr4 Mn6 Sb8 S24'
_cell_volume   942.00006694
_cell_formula_units_Z   2
loop_
 _symmetry_equiv_pos_site_id
 _symmetry_equiv_pos_as_xyz
  1  'x, y, z'
loop_
 _atom_site_type_symbol
 _atom_site_label
 _atom_site_symmetry_multiplicity
 _atom_site_fract_x
 _atom_site_fract_y
 _atom_site_fract_z
 _atom_site_occupancy
  Pr  Pr0  1  0.25596632  0.51934912  0.85776004  1
  Pr  Pr1  1  0.73182228  0.50727060  0.13086716  1
  Pr  Pr2  1  0.76470380  0.96626633  0.86866166  1
  Pr  Pr3  1  0.24486638  0.98963779  0.14871957  1
  Mn  Mn4  1  0.29959501  0.51830508  0.62210812  1
  Mn  Mn5  1  0.69649339  0.48605945  0.37914636  1
  Mn  Mn6  1  0.99867375  0.99194014  0.98838152  1
  Mn  Mn7  1  0.80031024  0.97163645  0.60992562  1
  Mn  Mn8  1  0.19833762  0.97361984  0.38887711  1
  Mn  Mn9  1  0.50579636  0.50846481  0.01070911  1
  Sb  Sb10  1  0.89674414  0.02724525  0.45742213  1
  Sb  Sb11  1  0.10636401  0.02030487  0.54681314  1
  Sb  Sb12  1  0.03833417  0.51015176  0.81645387  1
  Sb  Sb13  1  0.96840610  0.51820267  0.19345768  1
  Sb  Sb14  1  0.39502408  0.51616986  0.45665564  1
  Sb  Sb15  1  0.60817499  0.49978834  0.55454194  1
  Sb  Sb16  1  0.53740641  0.01835544  0.82088715  1
  Sb  Sb17  1  0.45912533  0.98789624  0.18768875  1
  S  S18  1  0.93930174  0.02497245  0.79876086  1
  S  S19  1  0.06322637  0.98815039  0.21059786  1
  S  S20  1  0.41099567  0.00470474  0.99525258  1
  S  S21  1  0.59398738  0.00712326  0.02324243  1
  S  S22  1  0.16934274  0.00126292  0.90800046  1
  S  S23  1  0.82432661  0.98831923  0.10090433  1
  S  S24  1  0.08486620  0.50612711  0.64913711  1
  S  S25  1  0.91724181  0.49452177  0.35315200  1
  S  S26  1  0.74473415  0.00013092  0.30482135  1
  S  S27  1  0.25657041  0.99636778  0.69809481  1
  S  S28  1  0.17533235  0.46908927  0.45902206  1
  S  S29  1  0.82670692  0.51087779  0.54811952  1
  S  S30  1  0.44511918  0.49892030  0.80099130  1
  S  S31  1  0.55954372  0.52356824  0.19835627  1
  S  S32  1  0.91097488  0.46619959  0.98672488  1
  S  S33  1  0.08596633  0.50138353  0.01793623  1
  S  S34  1  0.66489254  0.48898427  0.89473461  1
  S  S35  1  0.32877566  0.50311178  0.10569498  1
  S  S36  1  0.58400158  0.02229554  0.65118114  1
  S  S37  1  0.41630378  0.99409267  0.36091050  1
  S  S38  1  0.24642008  0.47240418  0.30051010  1
  S  S39  1  0.76159509  0.52770764  0.70093204  1
  S  S40  1  0.66712143  0.02289798  0.44388620  1
  S  S41  1  0.33605276  0.02423290  0.54609500  1
