# generated using pymatgen
data_Pr2Mn3(SbS3)4
_symmetry_space_group_name_H-M   'P 1'
_cell_length_a   20.02960800
_cell_length_b   3.90410600
_cell_length_c   14.95364829
_cell_angle_alpha   90.00000000
_cell_angle_beta   126.33350609
_cell_angle_gamma   90.00000000
_symmetry_Int_Tables_number   1
_chemical_formula_structural   Pr2Mn3(SbS3)4
_chemical_formula_sum   'Pr4 Mn6 Sb8 S24'
_cell_volume   942.00006694
_cell_formula_units_Z   2
loop_
 _symmetry_equiv_pos_site_id
 _symmetry_equiv_pos_as_xyz
  1  'x, y, z'
loop_
 _atom_site_type_symbol
 _atom_site_label
 _atom_site_symmetry_multiplicity
 _atom_site_fract_x
 _atom_site_fract_y
 _atom_site_fract_z
 _atom_site_occupancy
  Pr  Pr0  1  0.25586538  0.51950762  0.85774717  1
  Pr  Pr1  1  0.73166108  0.50726039  0.13070100  1
  Pr  Pr2  1  0.76472657  0.96579184  0.86881158  1
  Pr  Pr3  1  0.24482420  0.98961467  0.14880128  1
  Mn  Mn4  1  0.29959971  0.51870648  0.62207990  1
  Mn  Mn5  1  0.69641082  0.48576033  0.37899538  1
  Mn  Mn6  1  0.99857286  0.99194437  0.98820695  1
  Mn  Mn7  1  0.80031439  0.97136560  0.60989501  1
  Mn  Mn8  1  0.19844849  0.97366903  0.38884118  1
  Mn  Mn9  1  0.50584421  0.50871544  0.01072027  1
  Sb  Sb10  1  0.89682191  0.02699222  0.45767263  1
  Sb  Sb11  1  0.10658547  0.02088515  0.54690530  1
  Sb  Sb12  1  0.03834270  0.50981313  0.81653191  1
  Sb  Sb13  1  0.96838583  0.51867009  0.19334328  1
  Sb  Sb14  1  0.39494203  0.51591444  0.45668652  1
  Sb  Sb15  1  0.60832756  0.49930366  0.55477071  1
  Sb  Sb16  1  0.53727838  0.01859412  0.82086049  1
  Sb  Sb17  1  0.45912100  0.98793115  0.18760966  1
  S  S18  1  0.93958753  0.02563248  0.79935438  1
  S  S19  1  0.06328810  0.98868118  0.21064967  1
  S  S20  1  0.41111487  0.00545427  0.99543741  1
  S  S21  1  0.59360949  0.00747397  0.02286960  1
  S  S22  1  0.16955072  0.00166244  0.90789523  1
  S  S23  1  0.82427990  0.98890928  0.10115832  1
  S  S24  1  0.08464624  0.50704442  0.64867676  1
  S  S25  1  0.91759638  0.49387483  0.35363257  1
  S  S26  1  0.74471003  0.99955193  0.30460149  1
  S  S27  1  0.25653866  0.99564980  0.69822484  1
  S  S28  1  0.17534947  0.46801439  0.45902193  1
  S  S29  1  0.82632604  0.51301698  0.54786306  1
  S  S30  1  0.44479045  0.50046122  0.80062530  1
  S  S31  1  0.55944612  0.52519619  0.19768041  1
  S  S32  1  0.91092606  0.46571093  0.98684662  1
  S  S33  1  0.08584372  0.50108111  0.01811190  1
  S  S34  1  0.66486664  0.48913765  0.89478691  1
  S  S35  1  0.32858675  0.50340500  0.10558100  1
  S  S36  1  0.58390994  0.02277697  0.65075030  1
  S  S37  1  0.41622376  0.99404001  0.36069771  1
  S  S38  1  0.24656328  0.47412098  0.30065460  1
  S  S39  1  0.76167958  0.52812097  0.70104012  1
  S  S40  1  0.66705386  0.02186211  0.44362067  1
  S  S41  1  0.33616245  0.02412782  0.54632678  1
