# generated using pymatgen
data_Pr2Mn3(SbS3)4
_symmetry_space_group_name_H-M   'P 1'
_cell_length_a   20.02960800
_cell_length_b   3.90410600
_cell_length_c   14.95364829
_cell_angle_alpha   90.00000000
_cell_angle_beta   126.33350609
_cell_angle_gamma   90.00000000
_symmetry_Int_Tables_number   1
_chemical_formula_structural   Pr2Mn3(SbS3)4
_chemical_formula_sum   'Pr4 Mn6 Sb8 S24'
_cell_volume   942.00006694
_cell_formula_units_Z   2
loop_
 _symmetry_equiv_pos_site_id
 _symmetry_equiv_pos_as_xyz
  1  'x, y, z'
loop_
 _atom_site_type_symbol
 _atom_site_label
 _atom_site_symmetry_multiplicity
 _atom_site_fract_x
 _atom_site_fract_y
 _atom_site_fract_z
 _atom_site_occupancy
  Pr  Pr0  1  0.25577524  0.51956832  0.85770371  1
  Pr  Pr1  1  0.73152270  0.50718472  0.13058263  1
  Pr  Pr2  1  0.76481753  0.96559357  0.86894573  1
  Pr  Pr3  1  0.24479545  0.98953043  0.14883499  1
  Mn  Mn4  1  0.29963831  0.51927818  0.62200451  1
  Mn  Mn5  1  0.69637374  0.48564451  0.37882844  1
  Mn  Mn6  1  0.99851786  0.99130223  0.98809342  1
  Mn  Mn7  1  0.80026944  0.97158362  0.60977031  1
  Mn  Mn8  1  0.19859590  0.97307209  0.38885318  1
  Mn  Mn9  1  0.50601978  0.50846392  0.01081660  1
  Sb  Sb10  1  0.89690674  0.02660148  0.45790680  1
  Sb  Sb11  1  0.10678527  0.02148266  0.54696836  1
  Sb  Sb12  1  0.03835020  0.50984988  0.81657660  1
  Sb  Sb13  1  0.96840819  0.51943394  0.19330933  1
  Sb  Sb14  1  0.39484251  0.51574133  0.45666004  1
  Sb  Sb15  1  0.60834983  0.49879440  0.55486337  1
  Sb  Sb16  1  0.53719979  0.01872758  0.82082027  1
  Sb  Sb17  1  0.45908765  0.98810178  0.18747769  1
  S  S18  1  0.93999498  0.02601679  0.80013269  1
  S  S19  1  0.06329864  0.98987465  0.21051738  1
  S  S20  1  0.41114389  0.00644647  0.99556805  1
  S  S21  1  0.59323207  0.00802169  0.02246675  1
  S  S22  1  0.16981638  0.00200370  0.90776372  1
  S  S23  1  0.82411759  0.98936571  0.10133378  1
  S  S24  1  0.08442972  0.50817281  0.64817722  1
  S  S25  1  0.91804845  0.49340471  0.35425068  1
  S  S26  1  0.74451430  0.99955838  0.30427733  1
  S  S27  1  0.25669989  0.99484745  0.69857608  1
  S  S28  1  0.17538358  0.46694739  0.45896569  1
  S  S29  1  0.82596303  0.51442260  0.54762217  1
  S  S30  1  0.44455251  0.50259134  0.80046947  1
  S  S31  1  0.55949749  0.52610289  0.19710928  1
  S  S32  1  0.91078940  0.46570114  0.98703131  1
  S  S33  1  0.08555155  0.49985194  0.01834251  1
  S  S34  1  0.66490904  0.48960678  0.89504385  1
  S  S35  1  0.32870636  0.50291956  0.10574854  1
  S  S36  1  0.58387084  0.02318973  0.65047609  1
  S  S37  1  0.41615493  0.99411701  0.36054693  1
  S  S38  1  0.24675323  0.47564599  0.30074124  1
  S  S39  1  0.76178463  0.52864965  0.70107734  1
  S  S40  1  0.66685195  0.02079202  0.44331375  1
  S  S41  1  0.33622120  0.02394912  0.54659798  1
