# generated using pymatgen
data_Pr2Mn3(SbS3)4
_symmetry_space_group_name_H-M   'P 1'
_cell_length_a   20.02960800
_cell_length_b   3.90410600
_cell_length_c   14.95364829
_cell_angle_alpha   90.00000000
_cell_angle_beta   126.33350609
_cell_angle_gamma   90.00000000
_symmetry_Int_Tables_number   1
_chemical_formula_structural   Pr2Mn3(SbS3)4
_chemical_formula_sum   'Pr4 Mn6 Sb8 S24'
_cell_volume   942.00006694
_cell_formula_units_Z   2
loop_
 _symmetry_equiv_pos_site_id
 _symmetry_equiv_pos_as_xyz
  1  'x, y, z'
loop_
 _atom_site_type_symbol
 _atom_site_label
 _atom_site_symmetry_multiplicity
 _atom_site_fract_x
 _atom_site_fract_y
 _atom_site_fract_z
 _atom_site_occupancy
  Pr  Pr0  1  0.25567737  0.51971845  0.85769031  1
  Pr  Pr1  1  0.73132519  0.50723241  0.13032122  1
  Pr  Pr2  1  0.76488052  0.96543426  0.86901415  1
  Pr  Pr3  1  0.24478636  0.98927359  0.14884644  1
  Mn  Mn4  1  0.29960701  0.51969453  0.62188209  1
  Mn  Mn5  1  0.69636803  0.48559489  0.37882953  1
  Mn  Mn6  1  0.99845292  0.99064191  0.98800792  1
  Mn  Mn7  1  0.80022187  0.97201022  0.60966035  1
  Mn  Mn8  1  0.19879649  0.97202502  0.38898932  1
  Mn  Mn9  1  0.50616201  0.50804564  0.01081870  1
  Sb  Sb10  1  0.89699371  0.02652633  0.45800215  1
  Sb  Sb11  1  0.10696931  0.02213962  0.54706320  1
  Sb  Sb12  1  0.03832347  0.50960434  0.81657793  1
  Sb  Sb13  1  0.96840247  0.51979248  0.19319847  1
  Sb  Sb14  1  0.39471382  0.51536792  0.45664869  1
  Sb  Sb15  1  0.60835523  0.49851885  0.55486693  1
  Sb  Sb16  1  0.53713659  0.01890753  0.82065231  1
  Sb  Sb17  1  0.45914601  0.98838388  0.18742654  1
  S  S18  1  0.94019537  0.02701383  0.80057181  1
  S  S19  1  0.06332490  0.99084385  0.21062057  1
  S  S20  1  0.41116146  0.00745853  0.99564043  1
  S  S21  1  0.59286914  0.00878874  0.02212294  1
  S  S22  1  0.17004145  0.00245186  0.90782735  1
  S  S23  1  0.82400659  0.99029305  0.10149098  1
  S  S24  1  0.08420131  0.50911510  0.64767578  1
  S  S25  1  0.91844441  0.49261325  0.35449771  1
  S  S26  1  0.74440035  0.99902012  0.30409018  1
  S  S27  1  0.25685211  0.99449000  0.69900503  1
  S  S28  1  0.17549710  0.46628328  0.45908141  1
  S  S29  1  0.82570037  0.51557698  0.54768518  1
  S  S30  1  0.44425962  0.50428179  0.80033846  1
  S  S31  1  0.55966856  0.52687438  0.19659441  1
  S  S32  1  0.91055770  0.46540987  0.98702407  1
  S  S33  1  0.08531020  0.49842586  0.01861145  1
  S  S34  1  0.66494740  0.49003262  0.89535767  1
  S  S35  1  0.32886043  0.50280145  0.10589838  1
  S  S36  1  0.58379088  0.02407525  0.65002141  1
  S  S37  1  0.41610220  0.99397069  0.36050161  1
  S  S38  1  0.24704550  0.47703833  0.30076267  1
  S  S39  1  0.76196383  0.52877840  0.70098140  1
  S  S40  1  0.66661304  0.01983617  0.44294063  1
  S  S41  1  0.33629191  0.02361373  0.54684831  1
