# generated using pymatgen
data_Pr2Mn3(SbS3)4
_symmetry_space_group_name_H-M   'P 1'
_cell_length_a   20.02960800
_cell_length_b   3.90410600
_cell_length_c   14.95364829
_cell_angle_alpha   90.00000000
_cell_angle_beta   126.33350609
_cell_angle_gamma   90.00000000
_symmetry_Int_Tables_number   1
_chemical_formula_structural   Pr2Mn3(SbS3)4
_chemical_formula_sum   'Pr4 Mn6 Sb8 S24'
_cell_volume   942.00006694
_cell_formula_units_Z   2
loop_
 _symmetry_equiv_pos_site_id
 _symmetry_equiv_pos_as_xyz
  1  'x, y, z'
loop_
 _atom_site_type_symbol
 _atom_site_label
 _atom_site_symmetry_multiplicity
 _atom_site_fract_x
 _atom_site_fract_y
 _atom_site_fract_z
 _atom_site_occupancy
  Pr  Pr0  1  0.25557906  0.51980621  0.85772005  1
  Pr  Pr1  1  0.73124906  0.50742156  0.13021133  1
  Pr  Pr2  1  0.76488980  0.96520161  0.86910231  1
  Pr  Pr3  1  0.24478492  0.98923797  0.14885699  1
  Mn  Mn4  1  0.29957736  0.52001062  0.62184894  1
  Mn  Mn5  1  0.69633922  0.48570840  0.37878917  1
  Mn  Mn6  1  0.99835732  0.99037240  0.98795416  1
  Mn  Mn7  1  0.80014979  0.97233323  0.60952498  1
  Mn  Mn8  1  0.19887089  0.97145993  0.38903496  1
  Mn  Mn9  1  0.50627576  0.50815413  0.01078834  1
  Sb  Sb10  1  0.89704572  0.02651356  0.45809232  1
  Sb  Sb11  1  0.10711357  0.02263237  0.54713862  1
  Sb  Sb12  1  0.03827493  0.50914928  0.81654055  1
  Sb  Sb13  1  0.96833968  0.52003696  0.19300308  1
  Sb  Sb14  1  0.39460912  0.51480727  0.45668726  1
  Sb  Sb15  1  0.60833815  0.49802052  0.55491998  1
  Sb  Sb16  1  0.53708022  0.01886441  0.82045284  1
  Sb  Sb17  1  0.45914734  0.98868176  0.18735305  1
  S  S18  1  0.94025545  0.02802275  0.80089389  1
  S  S19  1  0.06342130  0.99192315  0.21062386  1
  S  S20  1  0.41115463  0.00787325  0.99578479  1
  S  S21  1  0.59243613  0.00934132  0.02179179  1
  S  S22  1  0.17026410  0.00322057  0.90799767  1
  S  S23  1  0.82404865  0.99093694  0.10172254  1
  S  S24  1  0.08389138  0.51034324  0.64705731  1
  S  S25  1  0.91876370  0.49231112  0.35478527  1
  S  S26  1  0.74444798  0.99870835  0.30403565  1
  S  S27  1  0.25699454  0.99400071  0.69934942  1
  S  S28  1  0.17550958  0.46580259  0.45919820  1
  S  S29  1  0.82543507  0.51670492  0.54766910  1
  S  S30  1  0.44387158  0.50537722  0.80015817  1
  S  S31  1  0.55997508  0.52767719  0.19628950  1
  S  S32  1  0.91044146  0.46549313  0.98695303  1
  S  S33  1  0.08505679  0.49722313  0.01874886  1
  S  S34  1  0.66487136  0.49076340  0.89556225  1
  S  S35  1  0.32901309  0.50274420  0.10582841  1
  S  S36  1  0.58358037  0.02488214  0.64964658  1
  S  S37  1  0.41610626  0.99458310  0.36042073  1
  S  S38  1  0.24727331  0.47833188  0.30069265  1
  S  S39  1  0.76201491  0.52812210  0.70076682  1
  S  S40  1  0.66643415  0.01924039  0.44265886  1
  S  S41  1  0.33644042  0.02416699  0.54725956  1
