# generated using pymatgen
data_Pr2Mn3(SbS3)4
_symmetry_space_group_name_H-M   'P 1'
_cell_length_a   20.02960800
_cell_length_b   3.90410600
_cell_length_c   14.95364829
_cell_angle_alpha   90.00000000
_cell_angle_beta   126.33350609
_cell_angle_gamma   90.00000000
_symmetry_Int_Tables_number   1
_chemical_formula_structural   Pr2Mn3(SbS3)4
_chemical_formula_sum   'Pr4 Mn6 Sb8 S24'
_cell_volume   942.00006694
_cell_formula_units_Z   2
loop_
 _symmetry_equiv_pos_site_id
 _symmetry_equiv_pos_as_xyz
  1  'x, y, z'
loop_
 _atom_site_type_symbol
 _atom_site_label
 _atom_site_symmetry_multiplicity
 _atom_site_fract_x
 _atom_site_fract_y
 _atom_site_fract_z
 _atom_site_occupancy
  Pr  Pr0  1  0.26703215  0.49234046  0.86407508  1
  Pr  Pr1  1  0.73639537  0.51182354  0.13711707  1
  Pr  Pr2  1  0.76251484  0.01115439  0.86130220  1
  Pr  Pr3  1  0.23504990  0.00516624  0.13521694  1
  Mn  Mn4  1  0.28734522  0.47997347  0.59124683  1
  Mn  Mn5  1  0.68766910  0.48589035  0.36999098  1
  Mn  Mn6  1  0.00885824  0.98561101  0.02070311  1
  Mn  Mn7  1  0.80592374  0.00650196  0.61859395  1
  Mn  Mn8  1  0.19863457  0.97910238  0.37573830  1
  Mn  Mn9  1  0.49270762  0.47981278  0.99021746  1
  Sb  Sb10  1  0.88943039  0.98926688  0.45010102  1
  Sb  Sb11  1  0.11165641  0.97718945  0.54590386  1
  Sb  Sb12  1  0.04002121  0.52403782  0.82190604  1
  Sb  Sb13  1  0.96228574  0.49813792  0.18280520  1
  Sb  Sb14  1  0.39547476  0.50586325  0.45055924  1
  Sb  Sb15  1  0.60601238  0.47342748  0.54809680  1
  Sb  Sb16  1  0.53299056  0.99945384  0.80767884  1
  Sb  Sb17  1  0.46459399  0.01622004  0.18892345  1
  S  S18  1  0.93693206  0.99979788  0.80405297  1
  S  S19  1  0.06502187  0.98248330  0.20084782  1
  S  S20  1  0.41299242  0.97377926  0.98092123  1
  S  S21  1  0.57730294  0.01914599  0.00954337  1
  S  S22  1  0.17287580  0.03416208  0.90406049  1
  S  S23  1  0.82504135  0.05007970  0.09536239  1
  S  S24  1  0.09619160  0.48284417  0.64667572  1
  S  S25  1  0.91128858  0.48963503  0.35270201  1
  S  S26  1  0.73936958  0.94612447  0.30139597  1
  S  S27  1  0.26313568  0.00342257  0.70766917  1
  S  S28  1  0.15918730  0.49061739  0.42517667  1
  S  S29  1  0.82513229  0.49093884  0.54975185  1
  S  S30  1  0.43097718  0.49924545  0.79908959  1
  S  S31  1  0.55563643  0.51835820  0.18410127  1
  S  S32  1  0.91021267  0.48288964  0.98608727  1
  S  S33  1  0.09295677  0.47993055  0.02964289  1
  S  S34  1  0.66234661  0.50733993  0.88393823  1
  S  S35  1  0.33168085  0.50481879  0.10013177  1
  S  S36  1  0.59763466  0.98540204  0.65563104  1
  S  S37  1  0.40331833  0.98882395  0.34643236  1
  S  S38  1  0.23872256  0.46057429  0.30845157  1
  S  S39  1  0.76122723  0.49416336  0.69624084  1
  S  S40  1  0.66779248  0.03088431  0.45223988  1
  S  S41  1  0.32731666  0.98136736  0.55391875  1
