# generated using pymatgen
data_Pr2Mn3(SbS3)4
_symmetry_space_group_name_H-M   'P 1'
_cell_length_a   20.02960800
_cell_length_b   3.90410600
_cell_length_c   14.95364829
_cell_angle_alpha   90.00000000
_cell_angle_beta   126.33350609
_cell_angle_gamma   90.00000000
_symmetry_Int_Tables_number   1
_chemical_formula_structural   Pr2Mn3(SbS3)4
_chemical_formula_sum   'Pr4 Mn6 Sb8 S24'
_cell_volume   942.00006694
_cell_formula_units_Z   2
loop_
 _symmetry_equiv_pos_site_id
 _symmetry_equiv_pos_as_xyz
  1  'x, y, z'
loop_
 _atom_site_type_symbol
 _atom_site_label
 _atom_site_symmetry_multiplicity
 _atom_site_fract_x
 _atom_site_fract_y
 _atom_site_fract_z
 _atom_site_occupancy
  Pr  Pr0  1  0.25550497  0.51962231  0.85781013  1
  Pr  Pr1  1  0.73116387  0.50765756  0.13008675  1
  Pr  Pr2  1  0.76481283  0.96532273  0.86906583  1
  Pr  Pr3  1  0.24477171  0.98943209  0.14872851  1
  Mn  Mn4  1  0.29946453  0.52082007  0.62174511  1
  Mn  Mn5  1  0.69638268  0.48560607  0.37873393  1
  Mn  Mn6  1  0.99832436  0.98991107  0.98787313  1
  Mn  Mn7  1  0.80004208  0.97325275  0.60937915  1
  Mn  Mn8  1  0.19901568  0.97076430  0.38910558  1
  Mn  Mn9  1  0.50628156  0.50829933  0.01046400  1
  Sb  Sb10  1  0.89709161  0.02636060  0.45817463  1
  Sb  Sb11  1  0.10729423  0.02298100  0.54731349  1
  Sb  Sb12  1  0.03814531  0.50870321  0.81640065  1
  Sb  Sb13  1  0.96819862  0.52023377  0.19272794  1
  Sb  Sb14  1  0.39446694  0.51436383  0.45672743  1
  Sb  Sb15  1  0.60828831  0.49768315  0.55495631  1
  Sb  Sb16  1  0.53700482  0.01873568  0.82026932  1
  Sb  Sb17  1  0.45921060  0.98932352  0.18733654  1
  S  S18  1  0.94025088  0.02940373  0.80112196  1
  S  S19  1  0.06333048  0.99303312  0.21052138  1
  S  S20  1  0.41128872  0.00829234  0.99595147  1
  S  S21  1  0.59197007  0.01059999  0.02144542  1
  S  S22  1  0.17022574  0.00360432  0.90793293  1
  S  S23  1  0.82409141  0.99121844  0.10188255  1
  S  S24  1  0.08371560  0.51178410  0.64653636  1
  S  S25  1  0.91897457  0.49218402  0.35520857  1
  S  S26  1  0.74453437  0.99814577  0.30427825  1
  S  S27  1  0.25710453  0.99374112  0.69971354  1
  S  S28  1  0.17554342  0.46550482  0.45924535  1
  S  S29  1  0.82500286  0.51733634  0.54739561  1
  S  S30  1  0.44351402  0.50587086  0.80011499  1
  S  S31  1  0.56033362  0.52875076  0.19607204  1
  S  S32  1  0.91043368  0.46535749  0.98693531  1
  S  S33  1  0.08482431  0.49521128  0.01889053  1
  S  S34  1  0.66474549  0.49139697  0.89560326  1
  S  S35  1  0.32908079  0.50261604  0.10546098  1
  S  S36  1  0.58361488  0.02509154  0.64960947  1
  S  S37  1  0.41615234  0.99561559  0.36049914  1
  S  S38  1  0.24752252  0.47982211  0.30077864  1
  S  S39  1  0.76201199  0.52730724  0.70043548  1
  S  S40  1  0.66628952  0.01837369  0.44246594  1
  S  S41  1  0.33666156  0.02540748  0.54767924  1
