# generated using pymatgen
data_Pr2Mn3(SbS3)4
_symmetry_space_group_name_H-M   'P 1'
_cell_length_a   20.02960800
_cell_length_b   3.90410600
_cell_length_c   14.95364829
_cell_angle_alpha   90.00000000
_cell_angle_beta   126.33350609
_cell_angle_gamma   90.00000000
_symmetry_Int_Tables_number   1
_chemical_formula_structural   Pr2Mn3(SbS3)4
_chemical_formula_sum   'Pr4 Mn6 Sb8 S24'
_cell_volume   942.00006694
_cell_formula_units_Z   2
loop_
 _symmetry_equiv_pos_site_id
 _symmetry_equiv_pos_as_xyz
  1  'x, y, z'
loop_
 _atom_site_type_symbol
 _atom_site_label
 _atom_site_symmetry_multiplicity
 _atom_site_fract_x
 _atom_site_fract_y
 _atom_site_fract_z
 _atom_site_occupancy
  Pr  Pr0  1  0.25541819  0.51916790  0.85792968  1
  Pr  Pr1  1  0.73107126  0.50780846  0.12992224  1
  Pr  Pr2  1  0.76477287  0.96546385  0.86905210  1
  Pr  Pr3  1  0.24481580  0.98936483  0.14870125  1
  Mn  Mn4  1  0.29938283  0.52165770  0.62162024  1
  Mn  Mn5  1  0.69648806  0.48600025  0.37878205  1
  Mn  Mn6  1  0.99830853  0.98942910  0.98775452  1
  Mn  Mn7  1  0.79987130  0.97424746  0.60921721  1
  Mn  Mn8  1  0.19905880  0.97006120  0.38917023  1
  Mn  Mn9  1  0.50625153  0.50825611  0.01011864  1
  Sb  Sb10  1  0.89711980  0.02610747  0.45821135  1
  Sb  Sb11  1  0.10744249  0.02331292  0.54747773  1
  Sb  Sb12  1  0.03799897  0.50842967  0.81628468  1
  Sb  Sb13  1  0.96803633  0.52046772  0.19247255  1
  Sb  Sb14  1  0.39429043  0.51385035  0.45677882  1
  Sb  Sb15  1  0.60826800  0.49728781  0.55496681  1
  Sb  Sb16  1  0.53692880  0.01877725  0.82003039  1
  Sb  Sb17  1  0.45921429  0.99010750  0.18722682  1
  S  S18  1  0.94027895  0.03071815  0.80139631  1
  S  S19  1  0.06319369  0.99392069  0.21034151  1
  S  S20  1  0.41142874  0.00870783  0.99598881  1
  S  S21  1  0.59151949  0.01127828  0.02112907  1
  S  S22  1  0.17021003  0.00406976  0.90783307  1
  S  S23  1  0.82411693  0.99193793  0.10210381  1
  S  S24  1  0.08374142  0.51265296  0.64656503  1
  S  S25  1  0.91929072  0.49214182  0.35580748  1
  S  S26  1  0.74463099  0.99725481  0.30444844  1
  S  S27  1  0.25732846  0.99308408  0.70007447  1
  S  S28  1  0.17556983  0.46478070  0.45913532  1
  S  S29  1  0.82465651  0.51805582  0.54721812  1
  S  S30  1  0.44320672  0.50680396  0.80000935  1
  S  S31  1  0.56051332  0.52951332  0.19578224  1
  S  S32  1  0.91042901  0.46525322  0.98677364  1
  S  S33  1  0.08447722  0.49360063  0.01873878  1
  S  S34  1  0.66469239  0.49220181  0.89584034  1
  S  S35  1  0.32915631  0.50241575  0.10501583  1
  S  S36  1  0.58367427  0.02528966  0.64961815  1
  S  S37  1  0.41600859  0.99682011  0.36045349  1
  S  S38  1  0.24778664  0.48124254  0.30089036  1
  S  S39  1  0.76191997  0.52658643  0.70011194  1
  S  S40  1  0.66616900  0.01761405  0.44229328  1
  S  S41  1  0.33695519  0.02664990  0.54822535  1
