# generated using pymatgen
data_Pr2Mn3(SbS3)4
_symmetry_space_group_name_H-M   'P 1'
_cell_length_a   20.02960800
_cell_length_b   3.90410600
_cell_length_c   14.95364829
_cell_angle_alpha   90.00000000
_cell_angle_beta   126.33350609
_cell_angle_gamma   90.00000000
_symmetry_Int_Tables_number   1
_chemical_formula_structural   Pr2Mn3(SbS3)4
_chemical_formula_sum   'Pr4 Mn6 Sb8 S24'
_cell_volume   942.00006694
_cell_formula_units_Z   2
loop_
 _symmetry_equiv_pos_site_id
 _symmetry_equiv_pos_as_xyz
  1  'x, y, z'
loop_
 _atom_site_type_symbol
 _atom_site_label
 _atom_site_symmetry_multiplicity
 _atom_site_fract_x
 _atom_site_fract_y
 _atom_site_fract_z
 _atom_site_occupancy
  Pr  Pr0  1  0.25539046  0.51861066  0.85811705  1
  Pr  Pr1  1  0.73099668  0.50774457  0.12978119  1
  Pr  Pr2  1  0.76470638  0.96584182  0.86906248  1
  Pr  Pr3  1  0.24477637  0.98953055  0.14861337  1
  Mn  Mn4  1  0.29932500  0.52217114  0.62152957  1
  Mn  Mn5  1  0.69653924  0.48662516  0.37887566  1
  Mn  Mn6  1  0.99817221  0.98881665  0.98742886  1
  Mn  Mn7  1  0.79959430  0.97492296  0.60896767  1
  Mn  Mn8  1  0.19908228  0.96906389  0.38920369  1
  Mn  Mn9  1  0.50617424  0.50861329  0.00970793  1
  Sb  Sb10  1  0.89712169  0.02586787  0.45814581  1
  Sb  Sb11  1  0.10762694  0.02387191  0.54777239  1
  Sb  Sb12  1  0.03795225  0.50840742  0.81621729  1
  Sb  Sb13  1  0.96786907  0.52060130  0.19221524  1
  Sb  Sb14  1  0.39414107  0.51312864  0.45687027  1
  Sb  Sb15  1  0.60833059  0.49661538  0.55505068  1
  Sb  Sb16  1  0.53682059  0.01871509  0.81980185  1
  Sb  Sb17  1  0.45914494  0.99068917  0.18699585  1
  S  S18  1  0.94034207  0.03150363  0.80160129  1
  S  S19  1  0.06323017  0.99580888  0.21041705  1
  S  S20  1  0.41169839  0.00944487  0.99622945  1
  S  S21  1  0.59095157  0.01230872  0.02065784  1
  S  S22  1  0.17009083  0.00425736  0.90781604  1
  S  S23  1  0.82410752  0.99320420  0.10221795  1
  S  S24  1  0.08365512  0.51350522  0.64642261  1
  S  S25  1  0.91968901  0.49223030  0.35632284  1
  S  S26  1  0.74465777  0.99612959  0.30455625  1
  S  S27  1  0.25749945  0.99255721  0.70030060  1
  S  S28  1  0.17554217  0.46518161  0.45878583  1
  S  S29  1  0.82423129  0.51905647  0.54699465  1
  S  S30  1  0.44290678  0.50749589  0.79999278  1
  S  S31  1  0.56057287  0.53088380  0.19542630  1
  S  S32  1  0.91046106  0.46549546  0.98668082  1
  S  S33  1  0.08410000  0.49205564  0.01859798  1
  S  S34  1  0.66484086  0.49336732  0.89612810  1
  S  S35  1  0.32925182  0.50242771  0.10469820  1
  S  S36  1  0.58385449  0.02547889  0.64971472  1
  S  S37  1  0.41591283  0.99736807  0.36030356  1
  S  S38  1  0.24802649  0.48327896  0.30108481  1
  S  S39  1  0.76196280  0.52540155  0.69986461  1
  S  S40  1  0.66598562  0.01633237  0.44206459  1
  S  S41  1  0.33745857  0.02812313  0.54899227  1
