# generated using pymatgen
data_Pr2Mn3(SbS3)4
_symmetry_space_group_name_H-M   'P 1'
_cell_length_a   20.02960800
_cell_length_b   3.90410600
_cell_length_c   14.95364829
_cell_angle_alpha   90.00000000
_cell_angle_beta   126.33350609
_cell_angle_gamma   90.00000000
_symmetry_Int_Tables_number   1
_chemical_formula_structural   Pr2Mn3(SbS3)4
_chemical_formula_sum   'Pr4 Mn6 Sb8 S24'
_cell_volume   942.00006694
_cell_formula_units_Z   2
loop_
 _symmetry_equiv_pos_site_id
 _symmetry_equiv_pos_as_xyz
  1  'x, y, z'
loop_
 _atom_site_type_symbol
 _atom_site_label
 _atom_site_symmetry_multiplicity
 _atom_site_fract_x
 _atom_site_fract_y
 _atom_site_fract_z
 _atom_site_occupancy
  Pr  Pr0  1  0.25530867  0.51796836  0.85821321  1
  Pr  Pr1  1  0.73095096  0.50754196  0.12968765  1
  Pr  Pr2  1  0.76462916  0.96620501  0.86897301  1
  Pr  Pr3  1  0.24469003  0.98955368  0.14860318  1
  Mn  Mn4  1  0.29933476  0.52232268  0.62149790  1
  Mn  Mn5  1  0.69660536  0.48670172  0.37886185  1
  Mn  Mn6  1  0.99798362  0.98858943  0.98709743  1
  Mn  Mn7  1  0.79924530  0.97551555  0.60854045  1
  Mn  Mn8  1  0.19906826  0.96831061  0.38937046  1
  Mn  Mn9  1  0.50619788  0.50886202  0.00943939  1
  Sb  Sb10  1  0.89714837  0.02581538  0.45809714  1
  Sb  Sb11  1  0.10776890  0.02419656  0.54803304  1
  Sb  Sb12  1  0.03783538  0.50853392  0.81607070  1
  Sb  Sb13  1  0.96776439  0.52110876  0.19210801  1
  Sb  Sb14  1  0.39392071  0.51256997  0.45681631  1
  Sb  Sb15  1  0.60838991  0.49585643  0.55518405  1
  Sb  Sb16  1  0.53675232  0.01838516  0.81956559  1
  Sb  Sb17  1  0.45911734  0.99113168  0.18671548  1
  S  S18  1  0.94036004  0.03224423  0.80169634  1
  S  S19  1  0.06337086  0.99745544  0.21043838  1
  S  S20  1  0.41184269  0.01046023  0.99651809  1
  S  S21  1  0.59030981  0.01367334  0.01995138  1
  S  S22  1  0.17016424  0.00443070  0.90820722  1
  S  S23  1  0.82410875  0.99462652  0.10219726  1
  S  S24  1  0.08362453  0.51462215  0.64629600  1
  S  S25  1  0.92020980  0.49261039  0.35691382  1
  S  S26  1  0.74488446  0.99547348  0.30462704  1
  S  S27  1  0.25782140  0.99207505  0.70057533  1
  S  S28  1  0.17547079  0.46445547  0.45832953  1
  S  S29  1  0.82380393  0.51936007  0.54688449  1
  S  S30  1  0.44277323  0.50816310  0.80001702  1
  S  S31  1  0.56059716  0.53208674  0.19513175  1
  S  S32  1  0.91030537  0.46525460  0.98644776  1
  S  S33  1  0.08366886  0.48998739  0.01834549  1
  S  S34  1  0.66511906  0.49453533  0.89656336  1
  S  S35  1  0.32936465  0.50219111  0.10445874  1
  S  S36  1  0.58396494  0.02565249  0.64959740  1
  S  S37  1  0.41579994  0.99806107  0.36017351  1
  S  S38  1  0.24826964  0.48501686  0.30124362  1
  S  S39  1  0.76191644  0.52430081  0.69965191  1
  S  S40  1  0.66586161  0.01522634  0.44191930  1
  S  S41  1  0.33792875  0.02950896  0.54983461  1
