# generated using pymatgen
data_Pr2Mn3(SbS3)4
_symmetry_space_group_name_H-M   'P 1'
_cell_length_a   20.02960800
_cell_length_b   3.90410600
_cell_length_c   14.95364829
_cell_angle_alpha   90.00000000
_cell_angle_beta   126.33350609
_cell_angle_gamma   90.00000000
_symmetry_Int_Tables_number   1
_chemical_formula_structural   Pr2Mn3(SbS3)4
_chemical_formula_sum   'Pr4 Mn6 Sb8 S24'
_cell_volume   942.00006694
_cell_formula_units_Z   2
loop_
 _symmetry_equiv_pos_site_id
 _symmetry_equiv_pos_as_xyz
  1  'x, y, z'
loop_
 _atom_site_type_symbol
 _atom_site_label
 _atom_site_symmetry_multiplicity
 _atom_site_fract_x
 _atom_site_fract_y
 _atom_site_fract_z
 _atom_site_occupancy
  Pr  Pr0  1  0.25528376  0.51743529  0.85838783  1
  Pr  Pr1  1  0.73094466  0.50718559  0.12958700  1
  Pr  Pr2  1  0.76458615  0.96667548  0.86893148  1
  Pr  Pr3  1  0.24458511  0.98966246  0.14847216  1
  Mn  Mn4  1  0.29939028  0.52275389  0.62161312  1
  Mn  Mn5  1  0.69675421  0.48642120  0.37883365  1
  Mn  Mn6  1  0.99783983  0.98885725  0.98687803  1
  Mn  Mn7  1  0.79892997  0.97636886  0.60813600  1
  Mn  Mn8  1  0.19906230  0.96782925  0.38959648  1
  Mn  Mn9  1  0.50626974  0.50907918  0.00937069  1
  Sb  Sb10  1  0.89716744  0.02555954  0.45802418  1
  Sb  Sb11  1  0.10786427  0.02440390  0.54832402  1
  Sb  Sb12  1  0.03767007  0.50857241  0.81587154  1
  Sb  Sb13  1  0.96760879  0.52160807  0.19192653  1
  Sb  Sb14  1  0.39376986  0.51197615  0.45696398  1
  Sb  Sb15  1  0.60840706  0.49535883  0.55525047  1
  Sb  Sb16  1  0.53667639  0.01798160  0.81927578  1
  Sb  Sb17  1  0.45913619  0.99185858  0.18647245  1
  S  S18  1  0.94022601  0.03301142  0.80158006  1
  S  S19  1  0.06372123  0.99899843  0.21056320  1
  S  S20  1  0.41197953  0.01132438  0.99686207  1
  S  S21  1  0.58970828  0.01514340  0.01917227  1
  S  S22  1  0.17031296  0.00429909  0.90880842  1
  S  S23  1  0.82414990  0.99586451  0.10204729  1
  S  S24  1  0.08357746  0.51562907  0.64605198  1
  S  S25  1  0.92048855  0.49341438  0.35733080  1
  S  S26  1  0.74506883  0.99387557  0.30480444  1
  S  S27  1  0.25817629  0.99124970  0.70083973  1
  S  S28  1  0.17530597  0.46332932  0.45777313  1
  S  S29  1  0.82358125  0.51909451  0.54698781  1
  S  S30  1  0.44261783  0.50917873  0.80008927  1
  S  S31  1  0.56053138  0.53357945  0.19480032  1
  S  S32  1  0.91026718  0.46486307  0.98639195  1
  S  S33  1  0.08338479  0.48821779  0.01821774  1
  S  S34  1  0.66543242  0.49590842  0.89707174  1
  S  S35  1  0.32946606  0.50236749  0.10435877  1
  S  S36  1  0.58420279  0.02574499  0.64964458  1
  S  S37  1  0.41576602  0.99937528  0.36003482  1
  S  S38  1  0.24857041  0.48749238  0.30136933  1
  S  S39  1  0.76196839  0.52286748  0.69954839  1
  S  S40  1  0.66589441  0.01363485  0.44184361  1
  S  S41  1  0.33826499  0.03069909  0.55054521  1
