# generated using pymatgen
data_Pr2Mn3(SbS3)4
_symmetry_space_group_name_H-M   'P 1'
_cell_length_a   20.02960800
_cell_length_b   3.90410600
_cell_length_c   14.95364829
_cell_angle_alpha   90.00000000
_cell_angle_beta   126.33350609
_cell_angle_gamma   90.00000000
_symmetry_Int_Tables_number   1
_chemical_formula_structural   Pr2Mn3(SbS3)4
_chemical_formula_sum   'Pr4 Mn6 Sb8 S24'
_cell_volume   942.00006694
_cell_formula_units_Z   2
loop_
 _symmetry_equiv_pos_site_id
 _symmetry_equiv_pos_as_xyz
  1  'x, y, z'
loop_
 _atom_site_type_symbol
 _atom_site_label
 _atom_site_symmetry_multiplicity
 _atom_site_fract_x
 _atom_site_fract_y
 _atom_site_fract_z
 _atom_site_occupancy
  Pr  Pr0  1  0.25528692  0.51707313  0.85849075  1
  Pr  Pr1  1  0.73093291  0.50665031  0.12952893  1
  Pr  Pr2  1  0.76453011  0.96696109  0.86884543  1
  Pr  Pr3  1  0.24453167  0.98974730  0.14835729  1
  Mn  Mn4  1  0.29955183  0.52304277  0.62173273  1
  Mn  Mn5  1  0.69690646  0.48625958  0.37887049  1
  Mn  Mn6  1  0.99766725  0.98908581  0.98655297  1
  Mn  Mn7  1  0.79864554  0.97697419  0.60784685  1
  Mn  Mn8  1  0.19911968  0.96722468  0.38963724  1
  Mn  Mn9  1  0.50635099  0.50936198  0.00926049  1
  Sb  Sb10  1  0.89715170  0.02541294  0.45792836  1
  Sb  Sb11  1  0.10802352  0.02473906  0.54864147  1
  Sb  Sb12  1  0.03755506  0.50857405  0.81556570  1
  Sb  Sb13  1  0.96746675  0.52214705  0.19172976  1
  Sb  Sb14  1  0.39351745  0.51131975  0.45705011  1
  Sb  Sb15  1  0.60853044  0.49460121  0.55537174  1
  Sb  Sb16  1  0.53653045  0.01755816  0.81896544  1
  Sb  Sb17  1  0.45916983  0.99266131  0.18631864  1
  S  S18  1  0.94009924  0.03347665  0.80146398  1
  S  S19  1  0.06398709  0.00081247  0.21064067  1
  S  S20  1  0.41217791  0.01119201  0.99708606  1
  S  S21  1  0.58922432  0.01581351  0.01866377  1
  S  S22  1  0.17039972  0.00449827  0.90927266  1
  S  S23  1  0.82426887  0.99622826  0.10183355  1
  S  S24  1  0.08361219  0.51650110  0.64594385  1
  S  S25  1  0.92072753  0.49421615  0.35774653  1
  S  S26  1  0.74517905  0.99239950  0.30495495  1
  S  S27  1  0.25854370  0.99045929  0.70108127  1
  S  S28  1  0.17505872  0.46207698  0.45705159  1
  S  S29  1  0.82332631  0.51917693  0.54720556  1
  S  S30  1  0.44238929  0.50998561  0.80014082  1
  S  S31  1  0.56034274  0.53503992  0.19442742  1
  S  S32  1  0.91034430  0.46453986  0.98634499  1
  S  S33  1  0.08324999  0.48600381  0.01819502  1
  S  S34  1  0.66582445  0.49747423  0.89751726  1
  S  S35  1  0.32952611  0.50301029  0.10432263  1
  S  S36  1  0.58448850  0.02565523  0.64956923  1
  S  S37  1  0.41579132  0.00073017  0.36002941  1
  S  S38  1  0.24881603  0.48894894  0.30147595  1
  S  S39  1  0.76210875  0.52191359  0.69948186  1
  S  S40  1  0.66574546  0.01193572  0.44159840  1
  S  S41  1  0.33845056  0.03136864  0.55099476  1
