# generated using pymatgen
data_Pr2Mn3(SbS3)4
_symmetry_space_group_name_H-M   'P 1'
_cell_length_a   20.02960800
_cell_length_b   3.90410600
_cell_length_c   14.95364829
_cell_angle_alpha   90.00000000
_cell_angle_beta   126.33350609
_cell_angle_gamma   90.00000000
_symmetry_Int_Tables_number   1
_chemical_formula_structural   Pr2Mn3(SbS3)4
_chemical_formula_sum   'Pr4 Mn6 Sb8 S24'
_cell_volume   942.00006694
_cell_formula_units_Z   2
loop_
 _symmetry_equiv_pos_site_id
 _symmetry_equiv_pos_as_xyz
  1  'x, y, z'
loop_
 _atom_site_type_symbol
 _atom_site_label
 _atom_site_symmetry_multiplicity
 _atom_site_fract_x
 _atom_site_fract_y
 _atom_site_fract_z
 _atom_site_occupancy
  Pr  Pr0  1  0.25530682  0.51734758  0.85853036  1
  Pr  Pr1  1  0.73100255  0.50624222  0.12955898  1
  Pr  Pr2  1  0.76439452  0.96724487  0.86863750  1
  Pr  Pr3  1  0.24455975  0.98992690  0.14821725  1
  Mn  Mn4  1  0.29977251  0.52331750  0.62188059  1
  Mn  Mn5  1  0.69689296  0.48588532  0.37889588  1
  Mn  Mn6  1  0.99752399  0.98928851  0.98625846  1
  Mn  Mn7  1  0.79838373  0.97755031  0.60765404  1
  Mn  Mn8  1  0.19908390  0.96670220  0.38966347  1
  Mn  Mn9  1  0.50641784  0.50930173  0.00923099  1
  Sb  Sb10  1  0.89708838  0.02556057  0.45782812  1
  Sb  Sb11  1  0.10819339  0.02517247  0.54899985  1
  Sb  Sb12  1  0.03748623  0.50888896  0.81534852  1
  Sb  Sb13  1  0.96738114  0.52259692  0.19162126  1
  Sb  Sb14  1  0.39322691  0.51094279  0.45714457  1
  Sb  Sb15  1  0.60871742  0.49435161  0.55560090  1
  Sb  Sb16  1  0.53638080  0.01744870  0.81870525  1
  Sb  Sb17  1  0.45916325  0.99315762  0.18625956  1
  S  S18  1  0.93977405  0.03352676  0.80123565  1
  S  S19  1  0.06427299  0.00284000  0.21070085  1
  S  S20  1  0.41233042  0.01140420  0.99739069  1
  S  S21  1  0.58877909  0.01679832  0.01824000  1
  S  S22  1  0.17047696  0.00528792  0.90958999  1
  S  S23  1  0.82429996  0.99708014  0.10149855  1
  S  S24  1  0.08367773  0.51724557  0.64592454  1
  S  S25  1  0.92096717  0.49499070  0.35813019  1
  S  S26  1  0.74535444  0.99079681  0.30518308  1
  S  S27  1  0.25899567  0.99016043  0.70122442  1
  S  S28  1  0.17495806  0.46075655  0.45657280  1
  S  S29  1  0.82314269  0.51883871  0.54731380  1
  S  S30  1  0.44220301  0.51130051  0.80025339  1
  S  S31  1  0.56011973  0.53629364  0.19403986  1
  S  S32  1  0.91034696  0.46409976  0.98628399  1
  S  S33  1  0.08319961  0.48412676  0.01825572  1
  S  S34  1  0.66618373  0.49883177  0.89785345  1
  S  S35  1  0.32975295  0.50378010  0.10446015  1
  S  S36  1  0.58470643  0.02563915  0.64958643  1
  S  S37  1  0.41588848  0.00280509  0.36008319  1
  S  S38  1  0.24917574  0.48992554  0.30155730  1
  S  S39  1  0.76224220  0.52081358  0.69953417  1
  S  S40  1  0.66560899  0.00976173  0.44132073  1
  S  S41  1  0.33867265  0.03219383  0.55158546  1
