# generated using pymatgen
data_Pr2Mn3(SbS3)4
_symmetry_space_group_name_H-M   'P 1'
_cell_length_a   20.02960800
_cell_length_b   3.90410600
_cell_length_c   14.95364829
_cell_angle_alpha   90.00000000
_cell_angle_beta   126.33350609
_cell_angle_gamma   90.00000000
_symmetry_Int_Tables_number   1
_chemical_formula_structural   Pr2Mn3(SbS3)4
_chemical_formula_sum   'Pr4 Mn6 Sb8 S24'
_cell_volume   942.00006694
_cell_formula_units_Z   2
loop_
 _symmetry_equiv_pos_site_id
 _symmetry_equiv_pos_as_xyz
  1  'x, y, z'
loop_
 _atom_site_type_symbol
 _atom_site_label
 _atom_site_symmetry_multiplicity
 _atom_site_fract_x
 _atom_site_fract_y
 _atom_site_fract_z
 _atom_site_occupancy
  Pr  Pr0  1  0.25537355  0.51768443  0.85864898  1
  Pr  Pr1  1  0.73109164  0.50605826  0.12967592  1
  Pr  Pr2  1  0.76427276  0.96718588  0.86844503  1
  Pr  Pr3  1  0.24457831  0.99042697  0.14812955  1
  Mn  Mn4  1  0.29988010  0.52357410  0.62205009  1
  Mn  Mn5  1  0.69681381  0.48595081  0.37876536  1
  Mn  Mn6  1  0.99729622  0.98959512  0.98593128  1
  Mn  Mn7  1  0.79821364  0.97851333  0.60746245  1
  Mn  Mn8  1  0.19911148  0.96597599  0.38963973  1
  Mn  Mn9  1  0.50664616  0.50935286  0.00925032  1
  Sb  Sb10  1  0.89700839  0.02563910  0.45776720  1
  Sb  Sb11  1  0.10826094  0.02602210  0.54927659  1
  Sb  Sb12  1  0.03745885  0.50885086  0.81517962  1
  Sb  Sb13  1  0.96730566  0.52286227  0.19147389  1
  Sb  Sb14  1  0.39295046  0.51068273  0.45719938  1
  Sb  Sb15  1  0.60894574  0.49416065  0.55587986  1
  Sb  Sb16  1  0.53621647  0.01729306  0.81845912  1
  Sb  Sb17  1  0.45910844  0.99365813  0.18623901  1
  S  S18  1  0.93947710  0.03334437  0.80109271  1
  S  S19  1  0.06437949  0.00454023  0.21068738  1
  S  S20  1  0.41251962  0.01144970  0.99766268  1
  S  S21  1  0.58824873  0.01767414  0.01775982  1
  S  S22  1  0.17062284  0.00700565  0.90989905  1
  S  S23  1  0.82437660  0.99806297  0.10137183  1
  S  S24  1  0.08378930  0.51831075  0.64595412  1
  S  S25  1  0.92106185  0.49562689  0.35831029  1
  S  S26  1  0.74542737  0.99032051  0.30533324  1
  S  S27  1  0.25953561  0.98973527  0.70129438  1
  S  S28  1  0.17486519  0.45983200  0.45604172  1
  S  S29  1  0.82282629  0.51857384  0.54713867  1
  S  S30  1  0.44208696  0.51237815  0.80049883  1
  S  S31  1  0.55997979  0.53735718  0.19379605  1
  S  S32  1  0.91047439  0.46371911  0.98648742  1
  S  S33  1  0.08309095  0.48228122  0.01817173  1
  S  S34  1  0.66662350  0.50040534  0.89821764  1
  S  S35  1  0.33007271  0.50439288  0.10473363  1
  S  S36  1  0.58492560  0.02548828  0.64973146  1
  S  S37  1  0.41595924  0.00475532  0.36009776  1
  S  S38  1  0.24944702  0.49051731  0.30148092  1
  S  S39  1  0.76258514  0.52011569  0.69985188  1
  S  S40  1  0.66548467  0.00709338  0.44116186  1
  S  S41  1  0.33888566  0.03278504  0.55229287  1
