# generated using pymatgen
data_Pr2Mn3(SbS3)4
_symmetry_space_group_name_H-M   'P 1'
_cell_length_a   20.02960800
_cell_length_b   3.90410600
_cell_length_c   14.95364829
_cell_angle_alpha   90.00000000
_cell_angle_beta   126.33350609
_cell_angle_gamma   90.00000000
_symmetry_Int_Tables_number   1
_chemical_formula_structural   Pr2Mn3(SbS3)4
_chemical_formula_sum   'Pr4 Mn6 Sb8 S24'
_cell_volume   942.00006694
_cell_formula_units_Z   2
loop_
 _symmetry_equiv_pos_site_id
 _symmetry_equiv_pos_as_xyz
  1  'x, y, z'
loop_
 _atom_site_type_symbol
 _atom_site_label
 _atom_site_symmetry_multiplicity
 _atom_site_fract_x
 _atom_site_fract_y
 _atom_site_fract_z
 _atom_site_occupancy
  Pr  Pr0  1  0.25540133  0.51803105  0.85877157  1
  Pr  Pr1  1  0.73121201  0.50560427  0.12985918  1
  Pr  Pr2  1  0.76417186  0.96759629  0.86827341  1
  Pr  Pr3  1  0.24465235  0.99060183  0.14812716  1
  Mn  Mn4  1  0.29990891  0.52340850  0.62219708  1
  Mn  Mn5  1  0.69666544  0.48612634  0.37855378  1
  Mn  Mn6  1  0.99707409  0.99014514  0.98569058  1
  Mn  Mn7  1  0.79803595  0.97922230  0.60719918  1
  Mn  Mn8  1  0.19911368  0.96522017  0.38962664  1
  Mn  Mn9  1  0.50683169  0.50899714  0.00926999  1
  Sb  Sb10  1  0.89689679  0.02587563  0.45769243  1
  Sb  Sb11  1  0.10833925  0.02683439  0.54955682  1
  Sb  Sb12  1  0.03744450  0.50888517  0.81504926  1
  Sb  Sb13  1  0.96718782  0.52285176  0.19132331  1
  Sb  Sb14  1  0.39272395  0.51043223  0.45713241  1
  Sb  Sb15  1  0.60918268  0.49408086  0.55609765  1
  Sb  Sb16  1  0.53607838  0.01720311  0.81828958  1
  Sb  Sb17  1  0.45905840  0.99374551  0.18623579  1
  S  S18  1  0.93925680  0.03330762  0.80109226  1
  S  S19  1  0.06430173  0.00615930  0.21055161  1
  S  S20  1  0.41260993  0.01143956  0.99765464  1
  S  S21  1  0.58771000  0.01915159  0.01725966  1
  S  S22  1  0.17097901  0.00839629  0.91035996  1
  S  S23  1  0.82454397  0.99780931  0.10134678  1
  S  S24  1  0.08395880  0.51935666  0.64601442  1
  S  S25  1  0.92124422  0.49612517  0.35873239  1
  S  S26  1  0.74554517  0.99013145  0.30537408  1
  S  S27  1  0.26004846  0.98940359  0.70125473  1
  S  S28  1  0.17474640  0.45878346  0.45526309  1
  S  S29  1  0.82261697  0.51886387  0.54704158  1
  S  S30  1  0.44190264  0.51430284  0.80072433  1
  S  S31  1  0.55998336  0.53870481  0.19377441  1
  S  S32  1  0.91068307  0.46303133  0.98666668  1
  S  S33  1  0.08287762  0.48088089  0.01800107  1
  S  S34  1  0.66693221  0.50208858  0.89848639  1
  S  S35  1  0.33053998  0.50435134  0.10494028  1
  S  S36  1  0.58520684  0.02506676  0.65002306  1
  S  S37  1  0.41577507  0.00701296  0.36004826  1
  S  S38  1  0.24977930  0.49097963  0.30151396  1
  S  S39  1  0.76278849  0.51944595  0.70002510  1
  S  S40  1  0.66528207  0.00555278  0.44091977  1
  S  S41  1  0.33920214  0.03263441  0.55285983  1
