# generated using pymatgen
data_Pr2Mn3(SbS3)4
_symmetry_space_group_name_H-M   'P 1'
_cell_length_a   20.02960800
_cell_length_b   3.90410600
_cell_length_c   14.95364829
_cell_angle_alpha   90.00000000
_cell_angle_beta   126.33350609
_cell_angle_gamma   90.00000000
_symmetry_Int_Tables_number   1
_chemical_formula_structural   Pr2Mn3(SbS3)4
_chemical_formula_sum   'Pr4 Mn6 Sb8 S24'
_cell_volume   942.00006694
_cell_formula_units_Z   2
loop_
 _symmetry_equiv_pos_site_id
 _symmetry_equiv_pos_as_xyz
  1  'x, y, z'
loop_
 _atom_site_type_symbol
 _atom_site_label
 _atom_site_symmetry_multiplicity
 _atom_site_fract_x
 _atom_site_fract_y
 _atom_site_fract_z
 _atom_site_occupancy
  Pr  Pr0  1  0.25539731  0.51844124  0.85887197  1
  Pr  Pr1  1  0.73137297  0.50513317  0.13004747  1
  Pr  Pr2  1  0.76401500  0.96773914  0.86803890  1
  Pr  Pr3  1  0.24477623  0.99081494  0.14805662  1
  Mn  Mn4  1  0.29991786  0.52339310  0.62237584  1
  Mn  Mn5  1  0.69648278  0.48646813  0.37827308  1
  Mn  Mn6  1  0.99694028  0.99061155  0.98554487  1
  Mn  Mn7  1  0.79794936  0.98010901  0.60710478  1
  Mn  Mn8  1  0.19895274  0.96483210  0.38962608  1
  Mn  Mn9  1  0.50690498  0.50878718  0.00921825  1
  Sb  Sb10  1  0.89674639  0.02626065  0.45749184  1
  Sb  Sb11  1  0.10839997  0.02769618  0.54981975  1
  Sb  Sb12  1  0.03745015  0.50894382  0.81486701  1
  Sb  Sb13  1  0.96707210  0.52263154  0.19122456  1
  Sb  Sb14  1  0.39257052  0.51051210  0.45715179  1
  Sb  Sb15  1  0.60937749  0.49374333  0.55625772  1
  Sb  Sb16  1  0.53598015  0.01715108  0.81809825  1
  Sb  Sb17  1  0.45901829  0.99389894  0.18625523  1
  S  S18  1  0.93911499  0.03297600  0.80122584  1
  S  S19  1  0.06416214  0.00786636  0.21031715  1
  S  S20  1  0.41261233  0.01140769  0.99761941  1
  S  S21  1  0.58719439  0.01994915  0.01673007  1
  S  S22  1  0.17130974  0.00915941  0.91077972  1
  S  S23  1  0.82461587  0.99813374  0.10148361  1
  S  S24  1  0.08433968  0.52001826  0.64619404  1
  S  S25  1  0.92137205  0.49615607  0.35900488  1
  S  S26  1  0.74570945  0.99036076  0.30536647  1
  S  S27  1  0.26060439  0.98885322  0.70138767  1
  S  S28  1  0.17467148  0.45770112  0.45445762  1
  S  S29  1  0.82234537  0.51868067  0.54690391  1
  S  S30  1  0.44165463  0.51645792  0.80076582  1
  S  S31  1  0.56005247  0.53985948  0.19385373  1
  S  S32  1  0.91080195  0.46219795  0.98668629  1
  S  S33  1  0.08253948  0.48017276  0.01757007  1
  S  S34  1  0.66714779  0.50310254  0.89864154  1
  S  S35  1  0.33098469  0.50408209  0.10544453  1
  S  S36  1  0.58539077  0.02451739  0.65019723  1
  S  S37  1  0.41553219  0.00955173  0.35997114  1
  S  S38  1  0.25003685  0.49077103  0.30146622  1
  S  S39  1  0.76297703  0.51890370  0.70023257  1
  S  S40  1  0.66516102  0.00408854  0.44093898  1
  S  S41  1  0.33940202  0.03225585  0.55322922  1
