# generated using pymatgen
data_Pr2Mn3(SbS3)4
_symmetry_space_group_name_H-M   'P 1'
_cell_length_a   20.02960800
_cell_length_b   3.90410600
_cell_length_c   14.95364829
_cell_angle_alpha   90.00000000
_cell_angle_beta   126.33350609
_cell_angle_gamma   90.00000000
_symmetry_Int_Tables_number   1
_chemical_formula_structural   Pr2Mn3(SbS3)4
_chemical_formula_sum   'Pr4 Mn6 Sb8 S24'
_cell_volume   942.00006694
_cell_formula_units_Z   2
loop_
 _symmetry_equiv_pos_site_id
 _symmetry_equiv_pos_as_xyz
  1  'x, y, z'
loop_
 _atom_site_type_symbol
 _atom_site_label
 _atom_site_symmetry_multiplicity
 _atom_site_fract_x
 _atom_site_fract_y
 _atom_site_fract_z
 _atom_site_occupancy
  Pr  Pr0  1  0.26707953  0.49270281  0.86402842  1
  Pr  Pr1  1  0.73638773  0.51163683  0.13710239  1
  Pr  Pr2  1  0.76255551  0.01107078  0.86125257  1
  Pr  Pr3  1  0.23496525  0.00499154  0.13514699  1
  Mn  Mn4  1  0.28730383  0.47998749  0.59084245  1
  Mn  Mn5  1  0.68752214  0.48500916  0.36976590  1
  Mn  Mn6  1  0.00892077  0.98535849  0.02076873  1
  Mn  Mn7  1  0.80592732  0.00609069  0.61867980  1
  Mn  Mn8  1  0.19864011  0.97872927  0.37539539  1
  Mn  Mn9  1  0.49255616  0.48000419  0.99029543  1
  Sb  Sb10  1  0.88942498  0.98974185  0.45020216  1
  Sb  Sb11  1  0.11164779  0.97745772  0.54586486  1
  Sb  Sb12  1  0.03994270  0.52408919  0.82177194  1
  Sb  Sb13  1  0.96217466  0.49835490  0.18281915  1
  Sb  Sb14  1  0.39545960  0.50565014  0.45054040  1
  Sb  Sb15  1  0.60606800  0.47277279  0.54822018  1
  Sb  Sb16  1  0.53316534  0.99943131  0.80773008  1
  Sb  Sb17  1  0.46470021  0.01625801  0.18925110  1
  S  S18  1  0.93703065  0.00062748  0.80418715  1
  S  S19  1  0.06524521  0.98136957  0.20110933  1
  S  S20  1  0.41320801  0.97272201  0.98085032  1
  S  S21  1  0.57739194  0.02050513  0.00964799  1
  S  S22  1  0.17277144  0.03510261  0.90403200  1
  S  S23  1  0.82529225  0.05039770  0.09536615  1
  S  S24  1  0.09621780  0.48291443  0.64683001  1
  S  S25  1  0.91135788  0.48984090  0.35264738  1
  S  S26  1  0.73906128  0.94667043  0.30107147  1
  S  S27  1  0.26280212  0.00338617  0.70743543  1
  S  S28  1  0.15942713  0.49205190  0.42492578  1
  S  S29  1  0.82507857  0.49124251  0.55013198  1
  S  S30  1  0.43087874  0.49961277  0.79912226  1
  S  S31  1  0.55555169  0.51930808  0.18392147  1
  S  S32  1  0.91016116  0.48385474  0.98586818  1
  S  S33  1  0.09306941  0.48086263  0.03019286  1
  S  S34  1  0.66240986  0.50775999  0.88397958  1
  S  S35  1  0.33162330  0.50447345  0.10025015  1
  S  S36  1  0.59780453  0.98574156  0.65586895  1
  S  S37  1  0.40310472  0.98911452  0.34592690  1
  S  S38  1  0.23855815  0.46022719  0.30838506  1
  S  S39  1  0.76102186  0.49479946  0.69588838  1
  S  S40  1  0.66788309  0.03205358  0.45198305  1
  S  S41  1  0.32752206  0.98284428  0.55422590  1
