# generated using pymatgen
data_Pr2Mn3(SbS3)4
_symmetry_space_group_name_H-M   'P 1'
_cell_length_a   20.02960800
_cell_length_b   3.90410600
_cell_length_c   14.95364829
_cell_angle_alpha   90.00000000
_cell_angle_beta   126.33350609
_cell_angle_gamma   90.00000000
_symmetry_Int_Tables_number   1
_chemical_formula_structural   Pr2Mn3(SbS3)4
_chemical_formula_sum   'Pr4 Mn6 Sb8 S24'
_cell_volume   942.00006694
_cell_formula_units_Z   2
loop_
 _symmetry_equiv_pos_site_id
 _symmetry_equiv_pos_as_xyz
  1  'x, y, z'
loop_
 _atom_site_type_symbol
 _atom_site_label
 _atom_site_symmetry_multiplicity
 _atom_site_fract_x
 _atom_site_fract_y
 _atom_site_fract_z
 _atom_site_occupancy
  Pr  Pr0  1  0.25544132  0.51895622  0.85894820  1
  Pr  Pr1  1  0.73149581  0.50435404  0.13018271  1
  Pr  Pr2  1  0.76385550  0.96826771  0.86788390  1
  Pr  Pr3  1  0.24484262  0.99090885  0.14796276  1
  Mn  Mn4  1  0.29998561  0.52407557  0.62249682  1
  Mn  Mn5  1  0.69621351  0.48681238  0.37810494  1
  Mn  Mn6  1  0.99681355  0.99110814  0.98538534  1
  Mn  Mn7  1  0.79790920  0.98107753  0.60688803  1
  Mn  Mn8  1  0.19880328  0.96441696  0.38959833  1
  Mn  Mn9  1  0.50688130  0.50876291  0.00907501  1
  Sb  Sb10  1  0.89661202  0.02653418  0.45728028  1
  Sb  Sb11  1  0.10850018  0.02868214  0.55009678  1
  Sb  Sb12  1  0.03745454  0.50900021  0.81462513  1
  Sb  Sb13  1  0.96703417  0.52264920  0.19124532  1
  Sb  Sb14  1  0.39243517  0.51031918  0.45719708  1
  Sb  Sb15  1  0.60952940  0.49353718  0.55639446  1
  Sb  Sb16  1  0.53587164  0.01690012  0.81795192  1
  Sb  Sb17  1  0.45907343  0.99373845  0.18632109  1
  S  S18  1  0.93894890  0.03256667  0.80126539  1
  S  S19  1  0.06402393  0.00969919  0.20982993  1
  S  S20  1  0.41268263  0.01174508  0.99759029  1
  S  S21  1  0.58683435  0.02104051  0.01631053  1
  S  S22  1  0.17174619  0.00900818  0.91117840  1
  S  S23  1  0.82471220  0.99798902  0.10177528  1
  S  S24  1  0.08478284  0.52105892  0.64654060  1
  S  S25  1  0.92138000  0.49625732  0.35919025  1
  S  S26  1  0.74575079  0.99038227  0.30526423  1
  S  S27  1  0.26107266  0.98829392  0.70150202  1
  S  S28  1  0.17463989  0.45652273  0.45372579  1
  S  S29  1  0.82203538  0.51862266  0.54663610  1
  S  S30  1  0.44139256  0.51815316  0.80085037  1
  S  S31  1  0.55993014  0.54036239  0.19368550  1
  S  S32  1  0.91094496  0.46193285  0.98655158  1
  S  S33  1  0.08224619  0.47898412  0.01714019  1
  S  S34  1  0.66743188  0.50428824  0.89900999  1
  S  S35  1  0.33142765  0.50375015  0.10595423  1
  S  S36  1  0.58546226  0.02464430  0.65013765  1
  S  S37  1  0.41514643  0.01194021  0.35963884  1
  S  S38  1  0.25018153  0.49109080  0.30125721  1
  S  S39  1  0.76308514  0.51767498  0.70026326  1
  S  S40  1  0.66505497  0.00280027  0.44086866  1
  S  S41  1  0.33961676  0.03192234  0.55367380  1
