# generated using pymatgen
data_Pr2Mn3(SbS3)4
_symmetry_space_group_name_H-M   'P 1'
_cell_length_a   20.02960800
_cell_length_b   3.90410600
_cell_length_c   14.95364829
_cell_angle_alpha   90.00000000
_cell_angle_beta   126.33350609
_cell_angle_gamma   90.00000000
_symmetry_Int_Tables_number   1
_chemical_formula_structural   Pr2Mn3(SbS3)4
_chemical_formula_sum   'Pr4 Mn6 Sb8 S24'
_cell_volume   942.00006694
_cell_formula_units_Z   2
loop_
 _symmetry_equiv_pos_site_id
 _symmetry_equiv_pos_as_xyz
  1  'x, y, z'
loop_
 _atom_site_type_symbol
 _atom_site_label
 _atom_site_symmetry_multiplicity
 _atom_site_fract_x
 _atom_site_fract_y
 _atom_site_fract_z
 _atom_site_occupancy
  Pr  Pr0  1  0.25538966  0.51902867  0.85890217  1
  Pr  Pr1  1  0.73159463  0.50367557  0.13026470  1
  Pr  Pr2  1  0.76367149  0.96873429  0.86769517  1
  Pr  Pr3  1  0.24490398  0.99103843  0.14786325  1
  Mn  Mn4  1  0.29989442  0.52488088  0.62239238  1
  Mn  Mn5  1  0.69591740  0.48670890  0.37793069  1
  Mn  Mn6  1  0.99671978  0.99094537  0.98524143  1
  Mn  Mn7  1  0.79789963  0.98165211  0.60674321  1
  Mn  Mn8  1  0.19872698  0.96437615  0.38961688  1
  Mn  Mn9  1  0.50684911  0.50881501  0.00908194  1
  Sb  Sb10  1  0.89646312  0.02661724  0.45706549  1
  Sb  Sb11  1  0.10855656  0.02974271  0.55032455  1
  Sb  Sb12  1  0.03746875  0.50910938  0.81441145  1
  Sb  Sb13  1  0.96699999  0.52311144  0.19125194  1
  Sb  Sb14  1  0.39224395  0.50995320  0.45708954  1
  Sb  Sb15  1  0.60959870  0.49326674  0.55649810  1
  Sb  Sb16  1  0.53578165  0.01674030  0.81781627  1
  Sb  Sb17  1  0.45904085  0.99372532  0.18636747  1
  S  S18  1  0.93872896  0.03218887  0.80138131  1
  S  S19  1  0.06385607  0.01121376  0.20952767  1
  S  S20  1  0.41270900  0.01198223  0.99743380  1
  S  S21  1  0.58645559  0.02164283  0.01587257  1
  S  S22  1  0.17213476  0.00894870  0.91166133  1
  S  S23  1  0.82483581  0.99766877  0.10198150  1
  S  S24  1  0.08526382  0.52225396  0.64697319  1
  S  S25  1  0.92139269  0.49630099  0.35916319  1
  S  S26  1  0.74585110  0.99023535  0.30541852  1
  S  S27  1  0.26151441  0.98770671  0.70150585  1
  S  S28  1  0.17454809  0.45643604  0.45312751  1
  S  S29  1  0.82174590  0.51900984  0.54634362  1
  S  S30  1  0.44116037  0.51929976  0.80087869  1
  S  S31  1  0.55984949  0.54077792  0.19352812  1
  S  S32  1  0.91114575  0.46131470  0.98649361  1
  S  S33  1  0.08192912  0.47788223  0.01689215  1
  S  S34  1  0.66755868  0.50505774  0.89919216  1
  S  S35  1  0.33186865  0.50313805  0.10643267  1
  S  S36  1  0.58552631  0.02503416  0.65021941  1
  S  S37  1  0.41481492  0.01431830  0.35927822  1
  S  S38  1  0.25041667  0.49197699  0.30113827  1
  S  S39  1  0.76316833  0.51652078  0.70029118  1
  S  S40  1  0.66494882  0.00101389  0.44072631  1
  S  S41  1  0.33968104  0.03178227  0.55382800  1
