# generated using pymatgen
data_Pr2Mn3(SbS3)4
_symmetry_space_group_name_H-M   'P 1'
_cell_length_a   20.02960800
_cell_length_b   3.90410600
_cell_length_c   14.95364829
_cell_angle_alpha   90.00000000
_cell_angle_beta   126.33350609
_cell_angle_gamma   90.00000000
_symmetry_Int_Tables_number   1
_chemical_formula_structural   Pr2Mn3(SbS3)4
_chemical_formula_sum   'Pr4 Mn6 Sb8 S24'
_cell_volume   942.00006694
_cell_formula_units_Z   2
loop_
 _symmetry_equiv_pos_site_id
 _symmetry_equiv_pos_as_xyz
  1  'x, y, z'
loop_
 _atom_site_type_symbol
 _atom_site_label
 _atom_site_symmetry_multiplicity
 _atom_site_fract_x
 _atom_site_fract_y
 _atom_site_fract_z
 _atom_site_occupancy
  Pr  Pr0  1  0.25533452  0.51960283  0.85875860  1
  Pr  Pr1  1  0.73171151  0.50304881  0.13028890  1
  Pr  Pr2  1  0.76355141  0.96928719  0.86752140  1
  Pr  Pr3  1  0.24493294  0.99105784  0.14772505  1
  Mn  Mn4  1  0.29978954  0.52614303  0.62219186  1
  Mn  Mn5  1  0.69575785  0.48630331  0.37772233  1
  Mn  Mn6  1  0.99663751  0.99069418  0.98509625  1
  Mn  Mn7  1  0.79794371  0.98226348  0.60653878  1
  Mn  Mn8  1  0.19865916  0.96435631  0.38971167  1
  Mn  Mn9  1  0.50677779  0.50897405  0.00901423  1
  Sb  Sb10  1  0.89630467  0.02686753  0.45684067  1
  Sb  Sb11  1  0.10862336  0.03050178  0.55051075  1
  Sb  Sb12  1  0.03748230  0.50919304  0.81419272  1
  Sb  Sb13  1  0.96691844  0.52360634  0.19109104  1
  Sb  Sb14  1  0.39212970  0.50973460  0.45705022  1
  Sb  Sb15  1  0.60972236  0.49309506  0.55656420  1
  Sb  Sb16  1  0.53568653  0.01659112  0.81782384  1
  Sb  Sb17  1  0.45904942  0.99363322  0.18646066  1
  S  S18  1  0.93854731  0.03197895  0.80139456  1
  S  S19  1  0.06369490  0.01266884  0.20938221  1
  S  S20  1  0.41245285  0.01235590  0.99701302  1
  S  S21  1  0.58606910  0.02239944  0.01538959  1
  S  S22  1  0.17264352  0.00891082  0.91238234  1
  S  S23  1  0.82511619  0.99744270  0.10238577  1
  S  S24  1  0.08561982  0.52293723  0.64718288  1
  S  S25  1  0.92141387  0.49651475  0.35930652  1
  S  S26  1  0.74600758  0.99013609  0.30556636  1
  S  S27  1  0.26198017  0.98700057  0.70160496  1
  S  S28  1  0.17460872  0.45579138  0.45261376  1
  S  S29  1  0.82153451  0.51957618  0.54601753  1
  S  S30  1  0.44092717  0.51990806  0.80079397  1
  S  S31  1  0.55968408  0.54074404  0.19317871  1
  S  S32  1  0.91137012  0.46030106  0.98659147  1
  S  S33  1  0.08177801  0.47697256  0.01662369  1
  S  S34  1  0.66766640  0.50518009  0.89922323  1
  S  S35  1  0.33236557  0.50314251  0.10688032  1
  S  S36  1  0.58575386  0.02490791  0.65034363  1
  S  S37  1  0.41463033  0.01661390  0.35894401  1
  S  S38  1  0.25050591  0.49234636  0.30107138  1
  S  S39  1  0.76332849  0.51552733  0.70019227  1
  S  S40  1  0.66492497  0.99962662  0.44074016  1
  S  S41  1  0.33964200  0.03235464  0.55382157  1
