# generated using pymatgen
data_Pr2Mn3(SbS3)4
_symmetry_space_group_name_H-M   'P 1'
_cell_length_a   20.02960800
_cell_length_b   3.90410600
_cell_length_c   14.95364829
_cell_angle_alpha   90.00000000
_cell_angle_beta   126.33350609
_cell_angle_gamma   90.00000000
_symmetry_Int_Tables_number   1
_chemical_formula_structural   Pr2Mn3(SbS3)4
_chemical_formula_sum   'Pr4 Mn6 Sb8 S24'
_cell_volume   942.00006694
_cell_formula_units_Z   2
loop_
 _symmetry_equiv_pos_site_id
 _symmetry_equiv_pos_as_xyz
  1  'x, y, z'
loop_
 _atom_site_type_symbol
 _atom_site_label
 _atom_site_symmetry_multiplicity
 _atom_site_fract_x
 _atom_site_fract_y
 _atom_site_fract_z
 _atom_site_occupancy
  Pr  Pr0  1  0.25530343  0.51985255  0.85868016  1
  Pr  Pr1  1  0.73184660  0.50230182  0.13036626  1
  Pr  Pr2  1  0.76337473  0.97011620  0.86737148  1
  Pr  Pr3  1  0.24487858  0.99103276  0.14749202  1
  Mn  Mn4  1  0.29970980  0.52707766  0.62225444  1
  Mn  Mn5  1  0.69569976  0.48559252  0.37751400  1
  Mn  Mn6  1  0.99662321  0.99100637  0.98495254  1
  Mn  Mn7  1  0.79799313  0.98283851  0.60634465  1
  Mn  Mn8  1  0.19857751  0.96381431  0.38975545  1
  Mn  Mn9  1  0.50672104  0.50878790  0.00906159  1
  Sb  Sb10  1  0.89614022  0.02731799  0.45653485  1
  Sb  Sb11  1  0.10872709  0.03137741  0.55073915  1
  Sb  Sb12  1  0.03747012  0.50915015  0.81400337  1
  Sb  Sb13  1  0.96686368  0.52407656  0.19103091  1
  Sb  Sb14  1  0.39195839  0.50977005  0.45707790  1
  Sb  Sb15  1  0.60984627  0.49285361  0.55658713  1
  Sb  Sb16  1  0.53559305  0.01641100  0.81780769  1
  Sb  Sb17  1  0.45905345  0.99368471  0.18656880  1
  S  S18  1  0.93837666  0.03126602  0.80167808  1
  S  S19  1  0.06353974  0.01420200  0.20951406  1
  S  S20  1  0.41238098  0.01329251  0.99665019  1
  S  S21  1  0.58567868  0.02338555  0.01487293  1
  S  S22  1  0.17326323  0.00870660  0.91318010  1
  S  S23  1  0.82552180  0.99696527  0.10274956  1
  S  S24  1  0.08611974  0.52418017  0.64750983  1
  S  S25  1  0.92140292  0.49716669  0.35937349  1
  S  S26  1  0.74602372  0.98956979  0.30556309  1
  S  S27  1  0.26239333  0.98659914  0.70169467  1
  S  S28  1  0.17463018  0.45568422  0.45208881  1
  S  S29  1  0.82125361  0.52002956  0.54556469  1
  S  S30  1  0.44065768  0.51974566  0.80056307  1
  S  S31  1  0.55954609  0.54120405  0.19283269  1
  S  S32  1  0.91169227  0.46045308  0.98681676  1
  S  S33  1  0.08172025  0.47657878  0.01658892  1
  S  S34  1  0.66775311  0.50520136  0.89924352  1
  S  S35  1  0.33290731  0.50328924  0.10724851  1
  S  S36  1  0.58583122  0.02526895  0.65047185  1
  S  S37  1  0.41459677  0.01837217  0.35878490  1
  S  S38  1  0.25069249  0.49270765  0.30121908  1
  S  S39  1  0.76348834  0.51429500  0.70013604  1
  S  S40  1  0.66506434  0.99845680  0.44080874  1
  S  S41  1  0.33956553  0.03216361  0.55383894  1
