# generated using pymatgen
data_Pr2Mn3(SbS3)4
_symmetry_space_group_name_H-M   'P 1'
_cell_length_a   20.02960800
_cell_length_b   3.90410600
_cell_length_c   14.95364829
_cell_angle_alpha   90.00000000
_cell_angle_beta   126.33350609
_cell_angle_gamma   90.00000000
_symmetry_Int_Tables_number   1
_chemical_formula_structural   Pr2Mn3(SbS3)4
_chemical_formula_sum   'Pr4 Mn6 Sb8 S24'
_cell_volume   942.00006694
_cell_formula_units_Z   2
loop_
 _symmetry_equiv_pos_site_id
 _symmetry_equiv_pos_as_xyz
  1  'x, y, z'
loop_
 _atom_site_type_symbol
 _atom_site_label
 _atom_site_symmetry_multiplicity
 _atom_site_fract_x
 _atom_site_fract_y
 _atom_site_fract_z
 _atom_site_occupancy
  Pr  Pr0  1  0.25528289  0.52012663  0.85853023  1
  Pr  Pr1  1  0.73198359  0.50162329  0.13041943  1
  Pr  Pr2  1  0.76323441  0.97097453  0.86722136  1
  Pr  Pr3  1  0.24478945  0.99076214  0.14734360  1
  Mn  Mn4  1  0.29967728  0.52780876  0.62234434  1
  Mn  Mn5  1  0.69577368  0.48477003  0.37749558  1
  Mn  Mn6  1  0.99655383  0.99173701  0.98478006  1
  Mn  Mn7  1  0.79809071  0.98415465  0.60609950  1
  Mn  Mn8  1  0.19854241  0.96300715  0.38996376  1
  Mn  Mn9  1  0.50661101  0.50839928  0.00904581  1
  Sb  Sb10  1  0.89601765  0.02735510  0.45625434  1
  Sb  Sb11  1  0.10878782  0.03202657  0.55088789  1
  Sb  Sb12  1  0.03740812  0.50937898  0.81379929  1
  Sb  Sb13  1  0.96683667  0.52436648  0.19096317  1
  Sb  Sb14  1  0.39178756  0.50957202  0.45702856  1
  Sb  Sb15  1  0.61006182  0.49264183  0.55685475  1
  Sb  Sb16  1  0.53560623  0.01633898  0.81786814  1
  Sb  Sb17  1  0.45913583  0.99392637  0.18669749  1
  S  S18  1  0.93840843  0.03070403  0.80195645  1
  S  S19  1  0.06345758  0.01573400  0.20960216  1
  S  S20  1  0.41244697  0.01425147  0.99638846  1
  S  S21  1  0.58520913  0.02357696  0.01432383  1
  S  S22  1  0.17384891  0.00807611  0.91393905  1
  S  S23  1  0.82583237  0.99616469  0.10306542  1
  S  S24  1  0.08642006  0.52566400  0.64763729  1
  S  S25  1  0.92144040  0.49777863  0.35945597  1
  S  S26  1  0.74612278  0.98943599  0.30557330  1
  S  S27  1  0.26275623  0.98718858  0.70157288  1
  S  S28  1  0.17478215  0.45522907  0.45175426  1
  S  S29  1  0.82097651  0.52013556  0.54518267  1
  S  S30  1  0.44038318  0.51961656  0.80022705  1
  S  S31  1  0.55946820  0.54161432  0.19248283  1
  S  S32  1  0.91189085  0.46026234  0.98717608  1
  S  S33  1  0.08152544  0.47623557  0.01641767  1
  S  S34  1  0.66783926  0.50439309  0.89931302  1
  S  S35  1  0.33339331  0.50314286  0.10754408  1
  S  S36  1  0.58595860  0.02576740  0.65053469  1
  S  S37  1  0.41453563  0.01971471  0.35873112  1
  S  S38  1  0.25079270  0.49316110  0.30113178  1
  S  S39  1  0.76370209  0.51297094  0.70008507  1
  S  S40  1  0.66524264  0.99764664  0.44091569  1
  S  S41  1  0.33942758  0.03133560  0.55367117  1
