# generated using pymatgen
data_Pr2Mn3(SbS3)4
_symmetry_space_group_name_H-M   'P 1'
_cell_length_a   20.02960800
_cell_length_b   3.90410600
_cell_length_c   14.95364829
_cell_angle_alpha   90.00000000
_cell_angle_beta   126.33350609
_cell_angle_gamma   90.00000000
_symmetry_Int_Tables_number   1
_chemical_formula_structural   Pr2Mn3(SbS3)4
_chemical_formula_sum   'Pr4 Mn6 Sb8 S24'
_cell_volume   942.00006694
_cell_formula_units_Z   2
loop_
 _symmetry_equiv_pos_site_id
 _symmetry_equiv_pos_as_xyz
  1  'x, y, z'
loop_
 _atom_site_type_symbol
 _atom_site_label
 _atom_site_symmetry_multiplicity
 _atom_site_fract_x
 _atom_site_fract_y
 _atom_site_fract_z
 _atom_site_occupancy
  Pr  Pr0  1  0.25541135  0.52032187  0.85844595  1
  Pr  Pr1  1  0.73209479  0.50084989  0.13052887  1
  Pr  Pr2  1  0.76316024  0.97154063  0.86711103  1
  Pr  Pr3  1  0.24472817  0.99018967  0.14731415  1
  Mn  Mn4  1  0.29959618  0.52904425  0.62240820  1
  Mn  Mn5  1  0.69579173  0.48398945  0.37724905  1
  Mn  Mn6  1  0.99645199  0.99231134  0.98460582  1
  Mn  Mn7  1  0.79816111  0.98540368  0.60578417  1
  Mn  Mn8  1  0.19847686  0.96272626  0.39026172  1
  Mn  Mn9  1  0.50649639  0.50839783  0.00905179  1
  Sb  Sb10  1  0.89592720  0.02733130  0.45600406  1
  Sb  Sb11  1  0.10883724  0.03221206  0.55106128  1
  Sb  Sb12  1  0.03730255  0.50952510  0.81354888  1
  Sb  Sb13  1  0.96684174  0.52472346  0.19094559  1
  Sb  Sb14  1  0.39160159  0.50964401  0.45694410  1
  Sb  Sb15  1  0.61029775  0.49222114  0.55710335  1
  Sb  Sb16  1  0.53562976  0.01636988  0.81800398  1
  Sb  Sb17  1  0.45916989  0.99404767  0.18684593  1
  S  S18  1  0.93837650  0.03041076  0.80220245  1
  S  S19  1  0.06329988  0.01686300  0.20979577  1
  S  S20  1  0.41261721  0.01551703  0.99623034  1
  S  S21  1  0.58486603  0.02413329  0.01401303  1
  S  S22  1  0.17443096  0.00718989  0.91460846  1
  S  S23  1  0.82604993  0.99480090  0.10337008  1
  S  S24  1  0.08665378  0.52729531  0.64798277  1
  S  S25  1  0.92143208  0.49814664  0.35941001  1
  S  S26  1  0.74620925  0.98956353  0.30570273  1
  S  S27  1  0.26304114  0.98732999  0.70140966  1
  S  S28  1  0.17507687  0.45462298  0.45156131  1
  S  S29  1  0.82069649  0.52017489  0.54481245  1
  S  S30  1  0.44008260  0.51994068  0.80004273  1
  S  S31  1  0.55950769  0.54206897  0.19220207  1
  S  S32  1  0.91205561  0.46024638  0.98749452  1
  S  S33  1  0.08132706  0.47603828  0.01628601  1
  S  S34  1  0.66796299  0.50397300  0.89941647  1
  S  S35  1  0.33385628  0.50247922  0.10791039  1
  S  S36  1  0.58614343  0.02649290  0.65042564  1
  S  S37  1  0.41437287  0.02091606  0.35857652  1
  S  S38  1  0.25090208  0.49307730  0.30105442  1
  S  S39  1  0.76384574  0.51164496  0.69987835  1
  S  S40  1  0.66535916  0.99659713  0.44101273  1
  S  S41  1  0.33936270  0.03039246  0.55349563  1
