# generated using pymatgen
data_Pr2Mn3(SbS3)4
_symmetry_space_group_name_H-M   'P 1'
_cell_length_a   20.02960800
_cell_length_b   3.90410600
_cell_length_c   14.95364829
_cell_angle_alpha   90.00000000
_cell_angle_beta   126.33350609
_cell_angle_gamma   90.00000000
_symmetry_Int_Tables_number   1
_chemical_formula_structural   Pr2Mn3(SbS3)4
_chemical_formula_sum   'Pr4 Mn6 Sb8 S24'
_cell_volume   942.00006694
_cell_formula_units_Z   2
loop_
 _symmetry_equiv_pos_site_id
 _symmetry_equiv_pos_as_xyz
  1  'x, y, z'
loop_
 _atom_site_type_symbol
 _atom_site_label
 _atom_site_symmetry_multiplicity
 _atom_site_fract_x
 _atom_site_fract_y
 _atom_site_fract_z
 _atom_site_occupancy
  Pr  Pr0  1  0.25550469  0.52034847  0.85833890  1
  Pr  Pr1  1  0.73218368  0.50007691  0.13068389  1
  Pr  Pr2  1  0.76304131  0.97212387  0.86696163  1
  Pr  Pr3  1  0.24463574  0.99008117  0.14723248  1
  Mn  Mn4  1  0.29944853  0.52979839  0.62250252  1
  Mn  Mn5  1  0.69579400  0.48379370  0.37704528  1
  Mn  Mn6  1  0.99636533  0.99255551  0.98449885  1
  Mn  Mn7  1  0.79816622  0.98661661  0.60545408  1
  Mn  Mn8  1  0.19838585  0.96192094  0.39062190  1
  Mn  Mn9  1  0.50652389  0.50823769  0.00918151  1
  Sb  Sb10  1  0.89582167  0.02711927  0.45566823  1
  Sb  Sb11  1  0.10883515  0.03256992  0.55119739  1
  Sb  Sb12  1  0.03715480  0.50989679  0.81328768  1
  Sb  Sb13  1  0.96685861  0.52506101  0.19086445  1
  Sb  Sb14  1  0.39146377  0.50953943  0.45696397  1
  Sb  Sb15  1  0.61051861  0.49193960  0.55738354  1
  Sb  Sb16  1  0.53560349  0.01659093  0.81810584  1
  Sb  Sb17  1  0.45922287  0.99399624  0.18707971  1
  S  S18  1  0.93836157  0.03009010  0.80246493  1
  S  S19  1  0.06312900  0.01755458  0.20995957  1
  S  S20  1  0.41273291  0.01613571  0.99596901  1
  S  S21  1  0.58463755  0.02435540  0.01382960  1
  S  S22  1  0.17510558  0.00642685  0.91524663  1
  S  S23  1  0.82635146  0.99351871  0.10368709  1
  S  S24  1  0.08711263  0.52948761  0.64857885  1
  S  S25  1  0.92129595  0.49900327  0.35922328  1
  S  S26  1  0.74639149  0.98943295  0.30594706  1
  S  S27  1  0.26345848  0.98694163  0.70114737  1
  S  S28  1  0.17522740  0.45384349  0.45131124  1
  S  S29  1  0.82046619  0.52042880  0.54453741  1
  S  S30  1  0.43974382  0.51980831  0.79983565  1
  S  S31  1  0.55954966  0.54243721  0.19195999  1
  S  S32  1  0.91210379  0.46043498  0.98772592  1
  S  S33  1  0.08108440  0.47552287  0.01602627  1
  S  S34  1  0.66788683  0.50365594  0.89942598  1
  S  S35  1  0.33414693  0.50262029  0.10815073  1
  S  S36  1  0.58648466  0.02697135  0.65023687  1
  S  S37  1  0.41409454  0.02207048  0.35841654  1
  S  S38  1  0.25101399  0.49238906  0.30110045  1
  S  S39  1  0.76406438  0.51022788  0.69969855  1
  S  S40  1  0.66549464  0.99559136  0.44113551  1
  S  S41  1  0.33928775  0.02968053  0.55323690  1
