# generated using pymatgen
data_Pr2Mn3(SbS3)4
_symmetry_space_group_name_H-M   'P 1'
_cell_length_a   20.02960800
_cell_length_b   3.90410600
_cell_length_c   14.95364829
_cell_angle_alpha   90.00000000
_cell_angle_beta   126.33350609
_cell_angle_gamma   90.00000000
_symmetry_Int_Tables_number   1
_chemical_formula_structural   Pr2Mn3(SbS3)4
_chemical_formula_sum   'Pr4 Mn6 Sb8 S24'
_cell_volume   942.00006694
_cell_formula_units_Z   2
loop_
 _symmetry_equiv_pos_site_id
 _symmetry_equiv_pos_as_xyz
  1  'x, y, z'
loop_
 _atom_site_type_symbol
 _atom_site_label
 _atom_site_symmetry_multiplicity
 _atom_site_fract_x
 _atom_site_fract_y
 _atom_site_fract_z
 _atom_site_occupancy
  Pr  Pr0  1  0.25556479  0.52002110  0.85828299  1
  Pr  Pr1  1  0.73225571  0.49923378  0.13087553  1
  Pr  Pr2  1  0.76294422  0.97269848  0.86677481  1
  Pr  Pr3  1  0.24465184  0.99024187  0.14715631  1
  Mn  Mn4  1  0.29919093  0.53081325  0.62256824  1
  Mn  Mn5  1  0.69578905  0.48362378  0.37684364  1
  Mn  Mn6  1  0.99629637  0.99346464  0.98433658  1
  Mn  Mn7  1  0.79820032  0.98748083  0.60511371  1
  Mn  Mn8  1  0.19839632  0.96129930  0.39107059  1
  Mn  Mn9  1  0.50655888  0.50845335  0.00933730  1
  Sb  Sb10  1  0.89579111  0.02701521  0.45542975  1
  Sb  Sb11  1  0.10875260  0.03308535  0.55128614  1
  Sb  Sb12  1  0.03697999  0.51035760  0.81300479  1
  Sb  Sb13  1  0.96680396  0.52508404  0.19069519  1
  Sb  Sb14  1  0.39137055  0.50927775  0.45702609  1
  Sb  Sb15  1  0.61068842  0.49156050  0.55771323  1
  Sb  Sb16  1  0.53559801  0.01700048  0.81829875  1
  Sb  Sb17  1  0.45935211  0.99375806  0.18732704  1
  S  S18  1  0.93817701  0.02962073  0.80254513  1
  S  S19  1  0.06303964  0.01810813  0.21015035  1
  S  S20  1  0.41263635  0.01703443  0.99553964  1
  S  S21  1  0.58443141  0.02479953  0.01347676  1
  S  S22  1  0.17573048  0.00540622  0.91575280  1
  S  S23  1  0.82677116  0.99254569  0.10423847  1
  S  S24  1  0.08760924  0.53094094  0.64913744  1
  S  S25  1  0.92113383  0.50008052  0.35910978  1
  S  S26  1  0.74638599  0.98910163  0.30595022  1
  S  S27  1  0.26374924  0.98666393  0.70087434  1
  S  S28  1  0.17530612  0.45307512  0.45106578  1
  S  S29  1  0.82016656  0.52059184  0.54419737  1
  S  S30  1  0.43943285  0.52014694  0.79961299  1
  S  S31  1  0.55944455  0.54253536  0.19151928  1
  S  S32  1  0.91229584  0.45997524  0.98803670  1
  S  S33  1  0.08059587  0.47477739  0.01560118  1
  S  S34  1  0.66790104  0.50345869  0.89944813  1
  S  S35  1  0.33424845  0.50195648  0.10815388  1
  S  S36  1  0.58682155  0.02711376  0.65021702  1
  S  S37  1  0.41399312  0.02281182  0.35831782  1
  S  S38  1  0.25121305  0.49219837  0.30101471  1
  S  S39  1  0.76442613  0.50842896  0.69962945  1
  S  S40  1  0.66570474  0.99549592  0.44125275  1
  S  S41  1  0.33913786  0.02874414  0.55289906  1
