# generated using pymatgen
data_Pr2Mn3(SbS3)4
_symmetry_space_group_name_H-M   'P 1'
_cell_length_a   20.02960800
_cell_length_b   3.90410600
_cell_length_c   14.95364829
_cell_angle_alpha   90.00000000
_cell_angle_beta   126.33350609
_cell_angle_gamma   90.00000000
_symmetry_Int_Tables_number   1
_chemical_formula_structural   Pr2Mn3(SbS3)4
_chemical_formula_sum   'Pr4 Mn6 Sb8 S24'
_cell_volume   942.00006694
_cell_formula_units_Z   2
loop_
 _symmetry_equiv_pos_site_id
 _symmetry_equiv_pos_as_xyz
  1  'x, y, z'
loop_
 _atom_site_type_symbol
 _atom_site_label
 _atom_site_symmetry_multiplicity
 _atom_site_fract_x
 _atom_site_fract_y
 _atom_site_fract_z
 _atom_site_occupancy
  Pr  Pr0  1  0.25556167  0.51986216  0.85818599  1
  Pr  Pr1  1  0.73228216  0.49820137  0.13106630  1
  Pr  Pr2  1  0.76290175  0.97315780  0.86664098  1
  Pr  Pr3  1  0.24466810  0.99065654  0.14712336  1
  Mn  Mn4  1  0.29885822  0.53149726  0.62266624  1
  Mn  Mn5  1  0.69572505  0.48328984  0.37657080  1
  Mn  Mn6  1  0.99623780  0.99435705  0.98422834  1
  Mn  Mn7  1  0.79835859  0.98844967  0.60494609  1
  Mn  Mn8  1  0.19841990  0.96073141  0.39131659  1
  Mn  Mn9  1  0.50665771  0.50794283  0.00939275  1
  Sb  Sb10  1  0.89575806  0.02649209  0.45522522  1
  Sb  Sb11  1  0.10867214  0.03324071  0.55139896  1
  Sb  Sb12  1  0.03672057  0.51031107  0.81262589  1
  Sb  Sb13  1  0.96673370  0.52541772  0.19053908  1
  Sb  Sb14  1  0.39137769  0.50897287  0.45716512  1
  Sb  Sb15  1  0.61090317  0.49126471  0.55813150  1
  Sb  Sb16  1  0.53552188  0.01755723  0.81841151  1
  Sb  Sb17  1  0.45953345  0.99349123  0.18755135  1
  S  S18  1  0.93794934  0.02873948  0.80247700  1
  S  S19  1  0.06298564  0.01885199  0.21029128  1
  S  S20  1  0.41256890  0.01779835  0.99506711  1
  S  S21  1  0.58427028  0.02458699  0.01300294  1
  S  S22  1  0.17639169  0.00443737  0.91616454  1
  S  S23  1  0.82719475  0.99190604  0.10474083  1
  S  S24  1  0.08802483  0.53276180  0.64953132  1
  S  S25  1  0.92088348  0.50071468  0.35894479  1
  S  S26  1  0.74653723  0.98934949  0.30603920  1
  S  S27  1  0.26387973  0.98612882  0.70055452  1
  S  S28  1  0.17545944  0.45263776  0.45088834  1
  S  S29  1  0.81982619  0.52027580  0.54395276  1
  S  S30  1  0.43905062  0.52019979  0.79921879  1
  S  S31  1  0.55938665  0.54178412  0.19100788  1
  S  S32  1  0.91266918  0.45903042  0.98853537  1
  S  S33  1  0.08001382  0.47462108  0.01513058  1
  S  S34  1  0.66782866  0.50342147  0.89945563  1
  S  S35  1  0.33449777  0.50170946  0.10824810  1
  S  S36  1  0.58701737  0.02670515  0.65013280  1
  S  S37  1  0.41382980  0.02397248  0.35816709  1
  S  S38  1  0.25131392  0.49248462  0.30079757  1
  S  S39  1  0.76475524  0.50618883  0.69956879  1
  S  S40  1  0.66592555  0.99617574  0.44138816  1
  S  S41  1  0.33905529  0.02794866  0.55276697  1
