# generated using pymatgen
data_Pr2Mn3(SbS3)4
_symmetry_space_group_name_H-M   'P 1'
_cell_length_a   20.02960800
_cell_length_b   3.90410600
_cell_length_c   14.95364829
_cell_angle_alpha   90.00000000
_cell_angle_beta   126.33350609
_cell_angle_gamma   90.00000000
_symmetry_Int_Tables_number   1
_chemical_formula_structural   Pr2Mn3(SbS3)4
_chemical_formula_sum   'Pr4 Mn6 Sb8 S24'
_cell_volume   942.00006694
_cell_formula_units_Z   2
loop_
 _symmetry_equiv_pos_site_id
 _symmetry_equiv_pos_as_xyz
  1  'x, y, z'
loop_
 _atom_site_type_symbol
 _atom_site_label
 _atom_site_symmetry_multiplicity
 _atom_site_fract_x
 _atom_site_fract_y
 _atom_site_fract_z
 _atom_site_occupancy
  Pr  Pr0  1  0.25555587  0.51954338  0.85817877  1
  Pr  Pr1  1  0.73228283  0.49719934  0.13116668  1
  Pr  Pr2  1  0.76283056  0.97362647  0.86655616  1
  Pr  Pr3  1  0.24476999  0.99108907  0.14708510  1
  Mn  Mn4  1  0.29854680  0.53175905  0.62262959  1
  Mn  Mn5  1  0.69563460  0.48323821  0.37637100  1
  Mn  Mn6  1  0.99610266  0.99504984  0.98412735  1
  Mn  Mn7  1  0.79856534  0.98903632  0.60474142  1
  Mn  Mn8  1  0.19852911  0.96035939  0.39168068  1
  Mn  Mn9  1  0.50679824  0.50736740  0.00946051  1
  Sb  Sb10  1  0.89575564  0.02608903  0.45503638  1
  Sb  Sb11  1  0.10866172  0.03342672  0.55157138  1
  Sb  Sb12  1  0.03647879  0.51075579  0.81228652  1
  Sb  Sb13  1  0.96673959  0.52575586  0.19048030  1
  Sb  Sb14  1  0.39137123  0.50902646  0.45725868  1
  Sb  Sb15  1  0.61112326  0.49077846  0.55856980  1
  Sb  Sb16  1  0.53544715  0.01796596  0.81846545  1
  Sb  Sb17  1  0.45967786  0.99328173  0.18770550  1
  S  S18  1  0.93761066  0.02800680  0.80217947  1
  S  S19  1  0.06306128  0.01938097  0.21048412  1
  S  S20  1  0.41246215  0.01853801  0.99452858  1
  S  S21  1  0.58415752  0.02472135  0.01269338  1
  S  S22  1  0.17697582  0.00426364  0.91652989  1
  S  S23  1  0.82738512  0.99143475  0.10491025  1
  S  S24  1  0.08832664  0.53505734  0.64974648  1
  S  S25  1  0.92077438  0.50145245  0.35886982  1
  S  S26  1  0.74669321  0.98971618  0.30627866  1
  S  S27  1  0.26399346  0.98557841  0.70003676  1
  S  S28  1  0.17539974  0.45219576  0.45045239  1
  S  S29  1  0.81950560  0.52019759  0.54375447  1
  S  S30  1  0.43861435  0.52069519  0.79875142  1
  S  S31  1  0.55942846  0.54124611  0.19057154  1
  S  S32  1  0.91289028  0.45774692  0.98894605  1
  S  S33  1  0.07961480  0.47430179  0.01485872  1
  S  S34  1  0.66779311  0.50325174  0.89949458  1
  S  S35  1  0.33495363  0.50191600  0.10857191  1
  S  S36  1  0.58719519  0.02653292  0.65010617  1
  S  S37  1  0.41380253  0.02403523  0.35812377  1
  S  S38  1  0.25140931  0.49258417  0.30049890  1
  S  S39  1  0.76487487  0.50465796  0.69933043  1
  S  S40  1  0.66626613  0.99653079  0.44158235  1
  S  S41  1  0.33904220  0.02659520  0.55269280  1
