# generated using pymatgen
data_Pr2Mn3(SbS3)4
_symmetry_space_group_name_H-M   'P 1'
_cell_length_a   20.02960800
_cell_length_b   3.90410600
_cell_length_c   14.95364829
_cell_angle_alpha   90.00000000
_cell_angle_beta   126.33350609
_cell_angle_gamma   90.00000000
_symmetry_Int_Tables_number   1
_chemical_formula_structural   Pr2Mn3(SbS3)4
_chemical_formula_sum   'Pr4 Mn6 Sb8 S24'
_cell_volume   942.00006694
_cell_formula_units_Z   2
loop_
 _symmetry_equiv_pos_site_id
 _symmetry_equiv_pos_as_xyz
  1  'x, y, z'
loop_
 _atom_site_type_symbol
 _atom_site_label
 _atom_site_symmetry_multiplicity
 _atom_site_fract_x
 _atom_site_fract_y
 _atom_site_fract_z
 _atom_site_occupancy
  Pr  Pr0  1  0.26711436  0.49302348  0.86410516  1
  Pr  Pr1  1  0.73639892  0.51147871  0.13708568  1
  Pr  Pr2  1  0.76256744  0.01105433  0.86116940  1
  Pr  Pr3  1  0.23489174  0.00457518  0.13508299  1
  Mn  Mn4  1  0.28724210  0.47987308  0.59053635  1
  Mn  Mn5  1  0.68730830  0.48408942  0.36945547  1
  Mn  Mn6  1  0.00898827  0.98527549  0.02078598  1
  Mn  Mn7  1  0.80592093  0.00570433  0.61883059  1
  Mn  Mn8  1  0.19859304  0.97857563  0.37505789  1
  Mn  Mn9  1  0.49242429  0.48015877  0.99049894  1
  Sb  Sb10  1  0.88944947  0.98990254  0.45032448  1
  Sb  Sb11  1  0.11161580  0.97794343  0.54582731  1
  Sb  Sb12  1  0.03985784  0.52383852  0.82164720  1
  Sb  Sb13  1  0.96202161  0.49840358  0.18274349  1
  Sb  Sb14  1  0.39545076  0.50537576  0.45054171  1
  Sb  Sb15  1  0.60621535  0.47228800  0.54837293  1
  Sb  Sb16  1  0.53330455  0.99934438  0.80779455  1
  Sb  Sb17  1  0.46482008  0.01641853  0.18949711  1
  S  S18  1  0.93705915  0.00160732  0.80428831  1
  S  S19  1  0.06542191  0.98047054  0.20130124  1
  S  S20  1  0.41340910  0.97100405  0.98085833  1
  S  S21  1  0.57751739  0.02186727  0.00970986  1
  S  S22  1  0.17262035  0.03583422  0.90397296  1
  S  S23  1  0.82531413  0.05069316  0.09524372  1
  S  S24  1  0.09610058  0.48257193  0.64670129  1
  S  S25  1  0.91143018  0.49027266  0.35270825  1
  S  S26  1  0.73871690  0.94706694  0.30077717  1
  S  S27  1  0.26243584  0.00368227  0.70720182  1
  S  S28  1  0.15965241  0.49345745  0.42455725  1
  S  S29  1  0.82500226  0.49126710  0.55027587  1
  S  S30  1  0.43084445  0.49957267  0.79923294  1
  S  S31  1  0.55539212  0.52038555  0.18363457  1
  S  S32  1  0.91008720  0.48484997  0.98577978  1
  S  S33  1  0.09320406  0.48210229  0.03062890  1
  S  S34  1  0.66236253  0.50833947  0.88401957  1
  S  S35  1  0.33158461  0.50359321  0.10044450  1
  S  S36  1  0.59807300  0.98592147  0.65619906  1
  S  S37  1  0.40282328  0.98946800  0.34541816  1
  S  S38  1  0.23835860  0.46018209  0.30828136  1
  S  S39  1  0.76083002  0.49577807  0.69545188  1
  S  S40  1  0.66780917  0.03293708  0.45172198  1
  S  S41  1  0.32774567  0.98406557  0.55446972  1
