# generated using pymatgen
data_Pr2Mn3(SbS3)4
_symmetry_space_group_name_H-M   'P 1'
_cell_length_a   20.02960800
_cell_length_b   3.90410600
_cell_length_c   14.95364829
_cell_angle_alpha   90.00000000
_cell_angle_beta   126.33350609
_cell_angle_gamma   90.00000000
_symmetry_Int_Tables_number   1
_chemical_formula_structural   Pr2Mn3(SbS3)4
_chemical_formula_sum   'Pr4 Mn6 Sb8 S24'
_cell_volume   942.00006694
_cell_formula_units_Z   2
loop_
 _symmetry_equiv_pos_site_id
 _symmetry_equiv_pos_as_xyz
  1  'x, y, z'
loop_
 _atom_site_type_symbol
 _atom_site_label
 _atom_site_symmetry_multiplicity
 _atom_site_fract_x
 _atom_site_fract_y
 _atom_site_fract_z
 _atom_site_occupancy
  Pr  Pr0  1  0.25561155  0.51912507  0.85821615  1
  Pr  Pr1  1  0.73231180  0.49625628  0.13128329  1
  Pr  Pr2  1  0.76277720  0.97394732  0.86646083  1
  Pr  Pr3  1  0.24484574  0.99150767  0.14710451  1
  Mn  Mn4  1  0.29814628  0.53207170  0.62247869  1
  Mn  Mn5  1  0.69552510  0.48344184  0.37626469  1
  Mn  Mn6  1  0.99599861  0.99576776  0.98408839  1
  Mn  Mn7  1  0.79883739  0.98951449  0.60451379  1
  Mn  Mn8  1  0.19850205  0.95963194  0.39193238  1
  Mn  Mn9  1  0.50680286  0.50713867  0.00951585  1
  Sb  Sb10  1  0.89584300  0.02580523  0.45490168  1
  Sb  Sb11  1  0.10861724  0.03359895  0.55173149  1
  Sb  Sb12  1  0.03630362  0.51120700  0.81213865  1
  Sb  Sb13  1  0.96678664  0.52632453  0.19049152  1
  Sb  Sb14  1  0.39141500  0.50918141  0.45740640  1
  Sb  Sb15  1  0.61134201  0.49039792  0.55898884  1
  Sb  Sb16  1  0.53542756  0.01860886  0.81864726  1
  Sb  Sb17  1  0.45979777  0.99306382  0.18779871  1
  S  S18  1  0.93738922  0.02759910  0.80199363  1
  S  S19  1  0.06312719  0.01999046  0.21056090  1
  S  S20  1  0.41241563  0.01870598  0.99401538  1
  S  S21  1  0.58396753  0.02450183  0.01251285  1
  S  S22  1  0.17746934  0.00416585  0.91681037  1
  S  S23  1  0.82753947  0.99141072  0.10507054  1
  S  S24  1  0.08848270  0.53765061  0.64974740  1
  S  S25  1  0.92063239  0.50239343  0.35866059  1
  S  S26  1  0.74690821  0.98992960  0.30664405  1
  S  S27  1  0.26417790  0.98497662  0.69968245  1
  S  S28  1  0.17509523  0.45192741  0.44971147  1
  S  S29  1  0.81923582  0.52029842  0.54350336  1
  S  S30  1  0.43827934  0.52125444  0.79834226  1
  S  S31  1  0.55921579  0.53993188  0.18999543  1
  S  S32  1  0.91305583  0.45683138  0.98943318  1
  S  S33  1  0.07921660  0.47328302  0.01444046  1
  S  S34  1  0.66763036  0.50305968  0.89949180  1
  S  S35  1  0.33548695  0.50182177  0.10912525  1
  S  S36  1  0.58732645  0.02601122  0.64975414  1
  S  S37  1  0.41374663  0.02466812  0.35807546  1
  S  S38  1  0.25141849  0.49251971  0.30025357  1
  S  S39  1  0.76503084  0.50396581  0.69908989  1
  S  S40  1  0.66663665  0.99640520  0.44173614  1
  S  S41  1  0.33904212  0.02491295  0.55259127  1
