# generated using pymatgen
data_Pr2Mn3(SbS3)4
_symmetry_space_group_name_H-M   'P 1'
_cell_length_a   20.02960800
_cell_length_b   3.90410600
_cell_length_c   14.95364829
_cell_angle_alpha   90.00000000
_cell_angle_beta   126.33350609
_cell_angle_gamma   90.00000000
_symmetry_Int_Tables_number   1
_chemical_formula_structural   Pr2Mn3(SbS3)4
_chemical_formula_sum   'Pr4 Mn6 Sb8 S24'
_cell_volume   942.00006694
_cell_formula_units_Z   2
loop_
 _symmetry_equiv_pos_site_id
 _symmetry_equiv_pos_as_xyz
  1  'x, y, z'
loop_
 _atom_site_type_symbol
 _atom_site_label
 _atom_site_symmetry_multiplicity
 _atom_site_fract_x
 _atom_site_fract_y
 _atom_site_fract_z
 _atom_site_occupancy
  Pr  Pr0  1  0.25567748  0.51886744  0.85832658  1
  Pr  Pr1  1  0.73233088  0.49548921  0.13141681  1
  Pr  Pr2  1  0.76277098  0.97435005  0.86640846  1
  Pr  Pr3  1  0.24491452  0.99168138  0.14709101  1
  Mn  Mn4  1  0.29781962  0.53267151  0.62250067  1
  Mn  Mn5  1  0.69542179  0.48342348  0.37615477  1
  Mn  Mn6  1  0.99594394  0.99635894  0.98419615  1
  Mn  Mn7  1  0.79908425  0.99023841  0.60430947  1
  Mn  Mn8  1  0.19839161  0.95886286  0.39216829  1
  Mn  Mn9  1  0.50673250  0.50677718  0.00951589  1
  Sb  Sb10  1  0.89590525  0.02558036  0.45470289  1
  Sb  Sb11  1  0.10861757  0.03366954  0.55186714  1
  Sb  Sb12  1  0.03621754  0.51150596  0.81213964  1
  Sb  Sb13  1  0.96677518  0.52653002  0.19054883  1
  Sb  Sb14  1  0.39138277  0.50904307  0.45756021  1
  Sb  Sb15  1  0.61154635  0.48984752  0.55931456  1
  Sb  Sb16  1  0.53545995  0.01938126  0.81876786  1
  Sb  Sb17  1  0.45991315  0.99280065  0.18794980  1
  S  S18  1  0.93721137  0.02677466  0.80171767  1
  S  S19  1  0.06328516  0.02024957  0.21074900  1
  S  S20  1  0.41237077  0.01923067  0.99343135  1
  S  S21  1  0.58400384  0.02454118  0.01254031  1
  S  S22  1  0.17788052  0.00403569  0.91691623  1
  S  S23  1  0.82763705  0.99110061  0.10518538  1
  S  S24  1  0.08861154  0.53961522  0.64966291  1
  S  S25  1  0.92036402  0.50311120  0.35847068  1
  S  S26  1  0.74703432  0.98975861  0.30685860  1
  S  S27  1  0.26446165  0.98496645  0.69958678  1
  S  S28  1  0.17478062  0.45155857  0.44884044  1
  S  S29  1  0.81903208  0.51999229  0.54344101  1
  S  S30  1  0.43795443  0.52171415  0.79786237  1
  S  S31  1  0.55908440  0.53856006  0.18962740  1
  S  S32  1  0.91318358  0.45619316  0.98979853  1
  S  S33  1  0.07891521  0.47245652  0.01403589  1
  S  S34  1  0.66765320  0.50281784  0.89974011  1
  S  S35  1  0.33608399  0.50123766  0.10971655  1
  S  S36  1  0.58745141  0.02543675  0.64947629  1
  S  S37  1  0.41379964  0.02496672  0.35809758  1
  S  S38  1  0.25138156  0.49217579  0.29996998  1
  S  S39  1  0.76524375  0.50353600  0.69897702  1
  S  S40  1  0.66703180  0.99726165  0.44178303  1
  S  S41  1  0.33905303  0.02358535  0.55254108  1
