# generated using pymatgen
data_Pr2Mn3(SbS3)4
_symmetry_space_group_name_H-M   'P 1'
_cell_length_a   20.02960800
_cell_length_b   3.90410600
_cell_length_c   14.95364829
_cell_angle_alpha   90.00000000
_cell_angle_beta   126.33350609
_cell_angle_gamma   90.00000000
_symmetry_Int_Tables_number   1
_chemical_formula_structural   Pr2Mn3(SbS3)4
_chemical_formula_sum   'Pr4 Mn6 Sb8 S24'
_cell_volume   942.00006694
_cell_formula_units_Z   2
loop_
 _symmetry_equiv_pos_site_id
 _symmetry_equiv_pos_as_xyz
  1  'x, y, z'
loop_
 _atom_site_type_symbol
 _atom_site_label
 _atom_site_symmetry_multiplicity
 _atom_site_fract_x
 _atom_site_fract_y
 _atom_site_fract_z
 _atom_site_occupancy
  Pr  Pr0  1  0.25580409  0.51854553  0.85847481  1
  Pr  Pr1  1  0.73235761  0.49470488  0.13151483  1
  Pr  Pr2  1  0.76270745  0.97477811  0.86642450  1
  Pr  Pr3  1  0.24502216  0.99197245  0.14715604  1
  Mn  Mn4  1  0.29756409  0.53297865  0.62253087  1
  Mn  Mn5  1  0.69534454  0.48347326  0.37622633  1
  Mn  Mn6  1  0.99582364  0.99668307  0.98438688  1
  Mn  Mn7  1  0.79945422  0.99113909  0.60432919  1
  Mn  Mn8  1  0.19842034  0.95865882  0.39248917  1
  Mn  Mn9  1  0.50663886  0.50638491  0.00963113  1
  Sb  Sb10  1  0.89603375  0.02547542  0.45460937  1
  Sb  Sb11  1  0.10863950  0.03373940  0.55202829  1
  Sb  Sb12  1  0.03611969  0.51121690  0.81212798  1
  Sb  Sb13  1  0.96677132  0.52635836  0.19063620  1
  Sb  Sb14  1  0.39134949  0.50866812  0.45772262  1
  Sb  Sb15  1  0.61177808  0.48933600  0.55967435  1
  Sb  Sb16  1  0.53555627  0.02018215  0.81891002  1
  Sb  Sb17  1  0.45996286  0.99265634  0.18805717  1
  S  S18  1  0.93705079  0.02629277  0.80130746  1
  S  S19  1  0.06344140  0.02010374  0.21109424  1
  S  S20  1  0.41236491  0.02038654  0.99301037  1
  S  S21  1  0.58404803  0.02512100  0.01278644  1
  S  S22  1  0.17806119  0.00422198  0.91699054  1
  S  S23  1  0.82761171  0.99132613  0.10536179  1
  S  S24  1  0.08871008  0.54219549  0.64963624  1
  S  S25  1  0.92018222  0.50375151  0.35836320  1
  S  S26  1  0.74702184  0.98936312  0.30692608  1
  S  S27  1  0.26471091  0.98457054  0.69932692  1
  S  S28  1  0.17460650  0.45165707  0.44814503  1
  S  S29  1  0.81875369  0.51989015  0.54336191  1
  S  S30  1  0.43768610  0.52186531  0.79740071  1
  S  S31  1  0.55901851  0.53663781  0.18930102  1
  S  S32  1  0.91338917  0.45573655  0.99012193  1
  S  S33  1  0.07871442  0.47192109  0.01372675  1
  S  S34  1  0.66766783  0.50259613  0.89991184  1
  S  S35  1  0.33663811  0.50030228  0.11038897  1
  S  S36  1  0.58738177  0.02551471  0.64924642  1
  S  S37  1  0.41382008  0.02543211  0.35814038  1
  S  S38  1  0.25124911  0.49271581  0.29957594  1
  S  S39  1  0.76532446  0.50321881  0.69894509  1
  S  S40  1  0.66744381  0.99874389  0.44183284  1
  S  S41  1  0.33886338  0.02279698  0.55229372  1
