# generated using pymatgen
data_Pr2Mn3(SbS3)4
_symmetry_space_group_name_H-M   'P 1'
_cell_length_a   20.02960800
_cell_length_b   3.90410600
_cell_length_c   14.95364829
_cell_angle_alpha   90.00000000
_cell_angle_beta   126.33350609
_cell_angle_gamma   90.00000000
_symmetry_Int_Tables_number   1
_chemical_formula_structural   Pr2Mn3(SbS3)4
_chemical_formula_sum   'Pr4 Mn6 Sb8 S24'
_cell_volume   942.00006694
_cell_formula_units_Z   2
loop_
 _symmetry_equiv_pos_site_id
 _symmetry_equiv_pos_as_xyz
  1  'x, y, z'
loop_
 _atom_site_type_symbol
 _atom_site_label
 _atom_site_symmetry_multiplicity
 _atom_site_fract_x
 _atom_site_fract_y
 _atom_site_fract_z
 _atom_site_occupancy
  Pr  Pr0  1  0.25595603  0.51804354  0.85864646  1
  Pr  Pr1  1  0.73239849  0.49397265  0.13151215  1
  Pr  Pr2  1  0.76263859  0.97505506  0.86640305  1
  Pr  Pr3  1  0.24510207  0.99244282  0.14719194  1
  Mn  Mn4  1  0.29721174  0.53329999  0.62244775  1
  Mn  Mn5  1  0.69523436  0.48346989  0.37631705  1
  Mn  Mn6  1  0.99568180  0.99652077  0.98462695  1
  Mn  Mn7  1  0.79975491  0.99207071  0.60441651  1
  Mn  Mn8  1  0.19844734  0.95830882  0.39279838  1
  Mn  Mn9  1  0.50664657  0.50631155  0.00977387  1
  Sb  Sb10  1  0.89618249  0.02523173  0.45455818  1
  Sb  Sb11  1  0.10871190  0.03376205  0.55220143  1
  Sb  Sb12  1  0.03601340  0.51097472  0.81205367  1
  Sb  Sb13  1  0.96666717  0.52583240  0.19066139  1
  Sb  Sb14  1  0.39127345  0.50815614  0.45779439  1
  Sb  Sb15  1  0.61197395  0.48871399  0.56005343  1
  Sb  Sb16  1  0.53566274  0.02098262  0.81906209  1
  Sb  Sb17  1  0.45999653  0.99257049  0.18813241  1
  S  S18  1  0.93688501  0.02509676  0.80086107  1
  S  S19  1  0.06371230  0.01979015  0.21147586  1
  S  S20  1  0.41238144  0.02165576  0.99257437  1
  S  S21  1  0.58386746  0.02517388  0.01279250  1
  S  S22  1  0.17847349  0.00454663  0.91729739  1
  S  S23  1  0.82741107  0.99217100  0.10538580  1
  S  S24  1  0.08874887  0.54409313  0.64947490  1
  S  S25  1  0.92005771  0.50369316  0.35819063  1
  S  S26  1  0.74703599  0.98915193  0.30699130  1
  S  S27  1  0.26503775  0.98383398  0.69921564  1
  S  S28  1  0.17444885  0.45198416  0.44737908  1
  S  S29  1  0.81864579  0.51909579  0.54340367  1
  S  S30  1  0.43729772  0.52193440  0.79685837  1
  S  S31  1  0.55894707  0.53464218  0.18903848  1
  S  S32  1  0.91359975  0.45562461  0.99054065  1
  S  S33  1  0.07834482  0.47151334  0.01330777  1
  S  S34  1  0.66778082  0.50248743  0.90032933  1
  S  S35  1  0.33696536  0.49935617  0.11082284  1
  S  S36  1  0.58738555  0.02471884  0.64917801  1
  S  S37  1  0.41386000  0.02604848  0.35822057  1
  S  S38  1  0.25108423  0.49278323  0.29913771  1
  S  S39  1  0.76531689  0.50230012  0.69896771  1
  S  S40  1  0.66774378  0.00020073  0.44169343  1
  S  S41  1  0.33887783  0.02213372  0.55217836  1
