# generated using pymatgen
data_Pr2Mn3(SbS3)4
_symmetry_space_group_name_H-M   'P 1'
_cell_length_a   20.02960800
_cell_length_b   3.90410600
_cell_length_c   14.95364829
_cell_angle_alpha   90.00000000
_cell_angle_beta   126.33350609
_cell_angle_gamma   90.00000000
_symmetry_Int_Tables_number   1
_chemical_formula_structural   Pr2Mn3(SbS3)4
_chemical_formula_sum   'Pr4 Mn6 Sb8 S24'
_cell_volume   942.00006694
_cell_formula_units_Z   2
loop_
 _symmetry_equiv_pos_site_id
 _symmetry_equiv_pos_as_xyz
  1  'x, y, z'
loop_
 _atom_site_type_symbol
 _atom_site_label
 _atom_site_symmetry_multiplicity
 _atom_site_fract_x
 _atom_site_fract_y
 _atom_site_fract_z
 _atom_site_occupancy
  Pr  Pr0  1  0.25615571  0.51750733  0.85879988  1
  Pr  Pr1  1  0.73245364  0.49320383  0.13156572  1
  Pr  Pr2  1  0.76268388  0.97560151  0.86648562  1
  Pr  Pr3  1  0.24520563  0.99300446  0.14734365  1
  Mn  Mn4  1  0.29690867  0.53423879  0.62235623  1
  Mn  Mn5  1  0.69520871  0.48391191  0.37652464  1
  Mn  Mn6  1  0.99548962  0.99642567  0.98489647  1
  Mn  Mn7  1  0.79986653  0.99267868  0.60433776  1
  Mn  Mn8  1  0.19839183  0.95821968  0.39304179  1
  Mn  Mn9  1  0.50658801  0.50643876  0.00993182  1
  Sb  Sb10  1  0.89634202  0.02503664  0.45465283  1
  Sb  Sb11  1  0.10871973  0.03356547  0.55238849  1
  Sb  Sb12  1  0.03592622  0.51036185  0.81200161  1
  Sb  Sb13  1  0.96651845  0.52508488  0.19065998  1
  Sb  Sb14  1  0.39126544  0.50791288  0.45789246  1
  Sb  Sb15  1  0.61217516  0.48819068  0.56036816  1
  Sb  Sb16  1  0.53583365  0.02166531  0.81925453  1
  Sb  Sb17  1  0.46003046  0.99274763  0.18820419  1
  S  S18  1  0.93673514  0.02340893  0.80046253  1
  S  S19  1  0.06392881  0.01926433  0.21173885  1
  S  S20  1  0.41242745  0.02232251  0.99214682  1
  S  S21  1  0.58368237  0.02511307  0.01277116  1
  S  S22  1  0.17886692  0.00528956  0.91767620  1
  S  S23  1  0.82741329  0.99344133  0.10558215  1
  S  S24  1  0.08876639  0.54617097  0.64942158  1
  S  S25  1  0.91979889  0.50295323  0.35787220  1
  S  S26  1  0.74723106  0.98865109  0.30716311  1
  S  S27  1  0.26553141  0.98337414  0.69935288  1
  S  S28  1  0.17433824  0.45242815  0.44674728  1
  S  S29  1  0.81862462  0.51800898  0.54343649  1
  S  S30  1  0.43672050  0.52234406  0.79620913  1
  S  S31  1  0.55892736  0.53282490  0.18880037  1
  S  S32  1  0.91381769  0.45466254  0.99096032  1
  S  S33  1  0.07800188  0.47172330  0.01298420  1
  S  S34  1  0.66791849  0.50246808  0.90060913  1
  S  S35  1  0.33734282  0.49879059  0.11107534  1
  S  S36  1  0.58738934  0.02388945  0.64919728  1
  S  S37  1  0.41397418  0.02650082  0.35822875  1
  S  S38  1  0.25098512  0.49275341  0.29883362  1
  S  S39  1  0.76520256  0.50118685  0.69894605  1
  S  S40  1  0.66795540  0.00149369  0.44157771  1
  S  S41  1  0.33887066  0.02141821  0.55206732  1
