# generated using pymatgen
data_Pr2Mn3(SbS3)4
_symmetry_space_group_name_H-M   'P 1'
_cell_length_a   20.02960800
_cell_length_b   3.90410600
_cell_length_c   14.95364829
_cell_angle_alpha   90.00000000
_cell_angle_beta   126.33350609
_cell_angle_gamma   90.00000000
_symmetry_Int_Tables_number   1
_chemical_formula_structural   Pr2Mn3(SbS3)4
_chemical_formula_sum   'Pr4 Mn6 Sb8 S24'
_cell_volume   942.00006694
_cell_formula_units_Z   2
loop_
 _symmetry_equiv_pos_site_id
 _symmetry_equiv_pos_as_xyz
  1  'x, y, z'
loop_
 _atom_site_type_symbol
 _atom_site_label
 _atom_site_symmetry_multiplicity
 _atom_site_fract_x
 _atom_site_fract_y
 _atom_site_fract_z
 _atom_site_occupancy
  Pr  Pr0  1  0.25634676  0.51700007  0.85896412  1
  Pr  Pr1  1  0.73240031  0.49252513  0.13153758  1
  Pr  Pr2  1  0.76280765  0.97586369  0.86660800  1
  Pr  Pr3  1  0.24527551  0.99342770  0.14750438  1
  Mn  Mn4  1  0.29658048  0.53480433  0.62212245  1
  Mn  Mn5  1  0.69509101  0.48423814  0.37666309  1
  Mn  Mn6  1  0.99532056  0.99633926  0.98511249  1
  Mn  Mn7  1  0.79999010  0.99359120  0.60445152  1
  Mn  Mn8  1  0.19828977  0.95839806  0.39324196  1
  Mn  Mn9  1  0.50665654  0.50678296  0.01017916  1
  Sb  Sb10  1  0.89651632  0.02457973  0.45473520  1
  Sb  Sb11  1  0.10876435  0.03335248  0.55247153  1
  Sb  Sb12  1  0.03582789  0.50999291  0.81195028  1
  Sb  Sb13  1  0.96639940  0.52432916  0.19065121  1
  Sb  Sb14  1  0.39134293  0.50782554  0.45803265  1
  Sb  Sb15  1  0.61236083  0.48761293  0.56075878  1
  Sb  Sb16  1  0.53596595  0.02206765  0.81936856  1
  Sb  Sb17  1  0.46015351  0.99279340  0.18832440  1
  S  S18  1  0.93658713  0.02148525  0.80012053  1
  S  S19  1  0.06423429  0.01896884  0.21205689  1
  S  S20  1  0.41264236  0.02333352  0.99183855  1
  S  S21  1  0.58345115  0.02514823  0.01275900  1
  S  S22  1  0.17920565  0.00586302  0.91804919  1
  S  S23  1  0.82754556  0.99440174  0.10586132  1
  S  S24  1  0.08865502  0.54760144  0.64937668  1
  S  S25  1  0.91946755  0.50235118  0.35753527  1
  S  S26  1  0.74747454  0.98862035  0.30727863  1
  S  S27  1  0.26597401  0.98269637  0.69942073  1
  S  S28  1  0.17412644  0.45301893  0.44630447  1
  S  S29  1  0.81859102  0.51675607  0.54342091  1
  S  S30  1  0.43603038  0.52216426  0.79560292  1
  S  S31  1  0.55886594  0.53106015  0.18858644  1
  S  S32  1  0.91392459  0.45405425  0.99113782  1
  S  S33  1  0.07759839  0.47150289  0.01255841  1
  S  S34  1  0.66803938  0.50286375  0.90074911  1
  S  S35  1  0.33769634  0.49877418  0.11121204  1
  S  S36  1  0.58740442  0.02278083  0.64926814  1
  S  S37  1  0.41407029  0.02687462  0.35830672  1
  S  S38  1  0.25079190  0.49285928  0.29852150  1
  S  S39  1  0.76497756  0.50044396  0.69892705  1
  S  S40  1  0.66805455  0.00233324  0.44142630  1
  S  S41  1  0.33871967  0.02054068  0.55198592  1
