# generated using pymatgen
data_Pr2Mn3(SbS3)4
_symmetry_space_group_name_H-M   'P 1'
_cell_length_a   20.02960800
_cell_length_b   3.90410600
_cell_length_c   14.95364829
_cell_angle_alpha   90.00000000
_cell_angle_beta   126.33350609
_cell_angle_gamma   90.00000000
_symmetry_Int_Tables_number   1
_chemical_formula_structural   Pr2Mn3(SbS3)4
_chemical_formula_sum   'Pr4 Mn6 Sb8 S24'
_cell_volume   942.00006694
_cell_formula_units_Z   2
loop_
 _symmetry_equiv_pos_site_id
 _symmetry_equiv_pos_as_xyz
  1  'x, y, z'
loop_
 _atom_site_type_symbol
 _atom_site_label
 _atom_site_symmetry_multiplicity
 _atom_site_fract_x
 _atom_site_fract_y
 _atom_site_fract_z
 _atom_site_occupancy
  Pr  Pr0  1  0.25656159  0.51654189  0.85909286  1
  Pr  Pr1  1  0.73242191  0.49170270  0.13160339  1
  Pr  Pr2  1  0.76295093  0.97588195  0.86669945  1
  Pr  Pr3  1  0.24537657  0.99386549  0.14771847  1
  Mn  Mn4  1  0.29631093  0.53510460  0.62175423  1
  Mn  Mn5  1  0.69503070  0.48407538  0.37690367  1
  Mn  Mn6  1  0.99508624  0.99606085  0.98525470  1
  Mn  Mn7  1  0.80012718  0.99476256  0.60444517  1
  Mn  Mn8  1  0.19813943  0.95908350  0.39323991  1
  Mn  Mn9  1  0.50665051  0.50676324  0.01038577  1
  Sb  Sb10  1  0.89673723  0.02390280  0.45483721  1
  Sb  Sb11  1  0.10877809  0.03303701  0.55247312  1
  Sb  Sb12  1  0.03569664  0.50998976  0.81190305  1
  Sb  Sb13  1  0.96626560  0.52354762  0.19063782  1
  Sb  Sb14  1  0.39144688  0.50803126  0.45812534  1
  Sb  Sb15  1  0.61249339  0.48709939  0.56117383  1
  Sb  Sb16  1  0.53607065  0.02278963  0.81944747  1
  Sb  Sb17  1  0.46030840  0.99292840  0.18850763  1
  S  S18  1  0.93641935  0.02007431  0.79987266  1
  S  S19  1  0.06462452  0.01812509  0.21240014  1
  S  S20  1  0.41277737  0.02382592  0.99149651  1
  S  S21  1  0.58331908  0.02490508  0.01285255  1
  S  S22  1  0.17959308  0.00659678  0.91833446  1
  S  S23  1  0.82769835  0.99521969  0.10606898  1
  S  S24  1  0.08853507  0.54907405  0.64930966  1
  S  S25  1  0.91910179  0.50186407  0.35713987  1
  S  S26  1  0.74771600  0.98873067  0.30743219  1
  S  S27  1  0.26626855  0.98154965  0.69945284  1
  S  S28  1  0.17383450  0.45334146  0.44582186  1
  S  S29  1  0.81851008  0.51469434  0.54340771  1
  S  S30  1  0.43547332  0.52249063  0.79508317  1
  S  S31  1  0.55872237  0.52987910  0.18835864  1
  S  S32  1  0.91392060  0.45390908  0.99124515  1
  S  S33  1  0.07711859  0.47071623  0.01212213  1
  S  S34  1  0.66816664  0.50277876  0.90094947  1
  S  S35  1  0.33799922  0.49889064  0.11130209  1
  S  S36  1  0.58735139  0.02313041  0.64939410  1
  S  S37  1  0.41431696  0.02796380  0.35859164  1
  S  S38  1  0.25074474  0.49312554  0.29838591  1
  S  S39  1  0.76487060  0.49969536  0.69886975  1
  S  S40  1  0.66801825  0.00272099  0.44118112  1
  S  S41  1  0.33869360  0.02016318  0.55196273  1
