# generated using pymatgen
data_Pr2Mn3(SbS3)4
_symmetry_space_group_name_H-M   'P 1'
_cell_length_a   20.02960800
_cell_length_b   3.90410600
_cell_length_c   14.95364829
_cell_angle_alpha   90.00000000
_cell_angle_beta   126.33350609
_cell_angle_gamma   90.00000000
_symmetry_Int_Tables_number   1
_chemical_formula_structural   Pr2Mn3(SbS3)4
_chemical_formula_sum   'Pr4 Mn6 Sb8 S24'
_cell_volume   942.00006694
_cell_formula_units_Z   2
loop_
 _symmetry_equiv_pos_site_id
 _symmetry_equiv_pos_as_xyz
  1  'x, y, z'
loop_
 _atom_site_type_symbol
 _atom_site_label
 _atom_site_symmetry_multiplicity
 _atom_site_fract_x
 _atom_site_fract_y
 _atom_site_fract_z
 _atom_site_occupancy
  Pr  Pr0  1  0.25676822  0.51642477  0.85926278  1
  Pr  Pr1  1  0.73242769  0.49083351  0.13169282  1
  Pr  Pr2  1  0.76304073  0.97584179  0.86674167  1
  Pr  Pr3  1  0.24546757  0.99438441  0.14786499  1
  Mn  Mn4  1  0.29598649  0.53590063  0.62141828  1
  Mn  Mn5  1  0.69510247  0.48390085  0.37723198  1
  Mn  Mn6  1  0.99485409  0.99617679  0.98538907  1
  Mn  Mn7  1  0.80019884  0.99595089  0.60433523  1
  Mn  Mn8  1  0.19784783  0.95959017  0.39302865  1
  Mn  Mn9  1  0.50652294  0.50677157  0.01045907  1
  Sb  Sb10  1  0.89692852  0.02361319  0.45499317  1
  Sb  Sb11  1  0.10875251  0.03280072  0.55249248  1
  Sb  Sb12  1  0.03565848  0.50975799  0.81199228  1
  Sb  Sb13  1  0.96622655  0.52238600  0.19074446  1
  Sb  Sb14  1  0.39152144  0.50774883  0.45822438  1
  Sb  Sb15  1  0.61256175  0.48686387  0.56158264  1
  Sb  Sb16  1  0.53620344  0.02342298  0.81949349  1
  Sb  Sb17  1  0.46039915  0.99279742  0.18863863  1
  S  S18  1  0.93632317  0.01907551  0.79983453  1
  S  S19  1  0.06491286  0.01764416  0.21257636  1
  S  S20  1  0.41276491  0.02418473  0.99102881  1
  S  S21  1  0.58328335  0.02447080  0.01296643  1
  S  S22  1  0.17991855  0.00756605  0.91842240  1
  S  S23  1  0.82796086  0.99667781  0.10623903  1
  S  S24  1  0.08842970  0.55031935  0.64909324  1
  S  S25  1  0.91868465  0.50032392  0.35669977  1
  S  S26  1  0.74784600  0.98871762  0.30747620  1
  S  S27  1  0.26667845  0.98106198  0.69968729  1
  S  S28  1  0.17347046  0.45455725  0.44527095  1
  S  S29  1  0.81855052  0.51303863  0.54370895  1
  S  S30  1  0.43493961  0.52263952  0.79480173  1
  S  S31  1  0.55862668  0.52829258  0.18814608  1
  S  S32  1  0.91401286  0.45375898  0.99147508  1
  S  S33  1  0.07693325  0.47027170  0.01191439  1
  S  S34  1  0.66833656  0.50275744  0.90117138  1
  S  S35  1  0.33833521  0.49926845  0.11142706  1
  S  S36  1  0.58728461  0.02323781  0.64950172  1
  S  S37  1  0.41461724  0.02903989  0.35884847  1
  S  S38  1  0.25065093  0.49353689  0.29824304  1
  S  S39  1  0.76471101  0.49855830  0.69880648  1
  S  S40  1  0.66797465  0.00315647  0.44079184  1
  S  S41  1  0.33848828  0.01980903  0.55165980  1
