# generated using pymatgen
data_Pr2Mn3(SbS3)4
_symmetry_space_group_name_H-M   'P 1'
_cell_length_a   20.02960800
_cell_length_b   3.90410600
_cell_length_c   14.95364829
_cell_angle_alpha   90.00000000
_cell_angle_beta   126.33350609
_cell_angle_gamma   90.00000000
_symmetry_Int_Tables_number   1
_chemical_formula_structural   Pr2Mn3(SbS3)4
_chemical_formula_sum   'Pr4 Mn6 Sb8 S24'
_cell_volume   942.00006694
_cell_formula_units_Z   2
loop_
 _symmetry_equiv_pos_site_id
 _symmetry_equiv_pos_as_xyz
  1  'x, y, z'
loop_
 _atom_site_type_symbol
 _atom_site_label
 _atom_site_symmetry_multiplicity
 _atom_site_fract_x
 _atom_site_fract_y
 _atom_site_fract_z
 _atom_site_occupancy
  Pr  Pr0  1  0.25692194  0.51643736  0.85941603  1
  Pr  Pr1  1  0.73243879  0.48998723  0.13184053  1
  Pr  Pr2  1  0.76315197  0.97604525  0.86678743  1
  Pr  Pr3  1  0.24553143  0.99462679  0.14799532  1
  Mn  Mn4  1  0.29571238  0.53689556  0.62110758  1
  Mn  Mn5  1  0.69511616  0.48399643  0.37758682  1
  Mn  Mn6  1  0.99463783  0.99604418  0.98548631  1
  Mn  Mn7  1  0.80034969  0.99652040  0.60428592  1
  Mn  Mn8  1  0.19759494  0.95952390  0.39274065  1
  Mn  Mn9  1  0.50641261  0.50717219  0.01049070  1
  Sb  Sb10  1  0.89710806  0.02319832  0.45507961  1
  Sb  Sb11  1  0.10868376  0.03284231  0.55239394  1
  Sb  Sb12  1  0.03571335  0.50898263  0.81208538  1
  Sb  Sb13  1  0.96618548  0.52117074  0.19082380  1
  Sb  Sb14  1  0.39161013  0.50722925  0.45824791  1
  Sb  Sb15  1  0.61260463  0.48661710  0.56204381  1
  Sb  Sb16  1  0.53624554  0.02417761  0.81949776  1
  Sb  Sb17  1  0.46043845  0.99252919  0.18872634  1
  S  S18  1  0.93625584  0.01799889  0.79983720  1
  S  S19  1  0.06513725  0.01854059  0.21292853  1
  S  S20  1  0.41278197  0.02438146  0.99062398  1
  S  S21  1  0.58317651  0.02401711  0.01323861  1
  S  S22  1  0.18012158  0.00858875  0.91851621  1
  S  S23  1  0.82814349  0.99777957  0.10637799  1
  S  S24  1  0.08832662  0.55101226  0.64893122  1
  S  S25  1  0.91831665  0.49819517  0.35623097  1
  S  S26  1  0.74804225  0.98902994  0.30749931  1
  S  S27  1  0.26702914  0.98091337  0.70001141  1
  S  S28  1  0.17304679  0.45483552  0.44477897  1
  S  S29  1  0.81849647  0.51124199  0.54388940  1
  S  S30  1  0.43438083  0.52208496  0.79426545  1
  S  S31  1  0.55840299  0.52707933  0.18780806  1
  S  S32  1  0.91417684  0.45389911  0.99164208  1
  S  S33  1  0.07683348  0.46974469  0.01182206  1
  S  S34  1  0.66857397  0.50225548  0.90126241  1
  S  S35  1  0.33870423  0.49954975  0.11168435  1
  S  S36  1  0.58738432  0.02378942  0.64978842  1
  S  S37  1  0.41492233  0.03035773  0.35915956  1
  S  S38  1  0.25053994  0.49421124  0.29819041  1
  S  S39  1  0.76459671  0.49766828  0.69884285  1
  S  S40  1  0.66779602  0.00290814  0.44033173  1
  S  S41  1  0.33830480  0.01966758  0.55157666  1
