# generated using pymatgen
data_Pr2Mn3(SbS3)4
_symmetry_space_group_name_H-M   'P 1'
_cell_length_a   20.02960800
_cell_length_b   3.90410600
_cell_length_c   14.95364829
_cell_angle_alpha   90.00000000
_cell_angle_beta   126.33350609
_cell_angle_gamma   90.00000000
_symmetry_Int_Tables_number   1
_chemical_formula_structural   Pr2Mn3(SbS3)4
_chemical_formula_sum   'Pr4 Mn6 Sb8 S24'
_cell_volume   942.00006694
_cell_formula_units_Z   2
loop_
 _symmetry_equiv_pos_site_id
 _symmetry_equiv_pos_as_xyz
  1  'x, y, z'
loop_
 _atom_site_type_symbol
 _atom_site_label
 _atom_site_symmetry_multiplicity
 _atom_site_fract_x
 _atom_site_fract_y
 _atom_site_fract_z
 _atom_site_occupancy
  Pr  Pr0  1  0.25712673  0.51662019  0.85957820  1
  Pr  Pr1  1  0.73250246  0.48933897  0.13196237  1
  Pr  Pr2  1  0.76319425  0.97638765  0.86683413  1
  Pr  Pr3  1  0.24554975  0.99479468  0.14813628  1
  Mn  Mn4  1  0.29550372  0.53812144  0.62092299  1
  Mn  Mn5  1  0.69503732  0.48438393  0.37788538  1
  Mn  Mn6  1  0.99445780  0.99576844  0.98561180  1
  Mn  Mn7  1  0.80053247  0.99708490  0.60445723  1
  Mn  Mn8  1  0.19752688  0.95950344  0.39257678  1
  Mn  Mn9  1  0.50630388  0.50758274  0.01051009  1
  Sb  Sb10  1  0.89732290  0.02285819  0.45518155  1
  Sb  Sb11  1  0.10860577  0.03295792  0.55228548  1
  Sb  Sb12  1  0.03578037  0.50867015  0.81214618  1
  Sb  Sb13  1  0.96616916  0.52038581  0.19082942  1
  Sb  Sb14  1  0.39163882  0.50649258  0.45822502  1
  Sb  Sb15  1  0.61264964  0.48626588  0.56250530  1
  Sb  Sb16  1  0.53628605  0.02494274  0.81954030  1
  Sb  Sb17  1  0.46042465  0.99259336  0.18877324  1
  S  S18  1  0.93600761  0.01697123  0.79955012  1
  S  S19  1  0.06515338  0.01903343  0.21328127  1
  S  S20  1  0.41273472  0.02448162  0.99027113  1
  S  S21  1  0.58316156  0.02315550  0.01361304  1
  S  S22  1  0.18017668  0.00950935  0.91841130  1
  S  S23  1  0.82818792  0.99885902  0.10642624  1
  S  S24  1  0.08833840  0.55100771  0.64887662  1
  S  S25  1  0.91796331  0.49615913  0.35567761  1
  S  S26  1  0.74814517  0.98942809  0.30742834  1
  S  S27  1  0.26722516  0.98082678  0.70017323  1
  S  S28  1  0.17267989  0.45532032  0.44414964  1
  S  S29  1  0.81838741  0.51012843  0.54386767  1
  S  S30  1  0.43372445  0.52175221  0.79352338  1
  S  S31  1  0.55814254  0.52583415  0.18766712  1
  S  S32  1  0.91432623  0.45418723  0.99178554  1
  S  S33  1  0.07684190  0.46919010  0.01179558  1
  S  S34  1  0.66884446  0.50210733  0.90139549  1
  S  S35  1  0.33905264  0.49949666  0.11187622  1
  S  S36  1  0.58739491  0.02408282  0.64992058  1
  S  S37  1  0.41500713  0.03160890  0.35940167  1
  S  S38  1  0.25037870  0.49488175  0.29811532  1
  S  S39  1  0.76437467  0.49719005  0.69882499  1
  S  S40  1  0.66750952  0.00292601  0.43994136  1
  S  S41  1  0.33809284  0.01967419  0.55158457  1
