# generated using pymatgen
data_Pr2Mn3(SbS3)4
_symmetry_space_group_name_H-M   'P 1'
_cell_length_a   20.02960800
_cell_length_b   3.90410600
_cell_length_c   14.95364829
_cell_angle_alpha   90.00000000
_cell_angle_beta   126.33350609
_cell_angle_gamma   90.00000000
_symmetry_Int_Tables_number   1
_chemical_formula_structural   Pr2Mn3(SbS3)4
_chemical_formula_sum   'Pr4 Mn6 Sb8 S24'
_cell_volume   942.00006694
_cell_formula_units_Z   2
loop_
 _symmetry_equiv_pos_site_id
 _symmetry_equiv_pos_as_xyz
  1  'x, y, z'
loop_
 _atom_site_type_symbol
 _atom_site_label
 _atom_site_symmetry_multiplicity
 _atom_site_fract_x
 _atom_site_fract_y
 _atom_site_fract_z
 _atom_site_occupancy
  Pr  Pr0  1  0.26176745  0.49751390  0.86540504  1
  Pr  Pr1  1  0.74000148  0.50092430  0.13726650  1
  Pr  Pr2  1  0.76048369  0.00588119  0.86221270  1
  Pr  Pr3  1  0.24005329  0.99199612  0.13809836  1
  Mn  Mn4  1  0.29954030  0.50588068  0.62026388  1
  Mn  Mn5  1  0.69692785  0.49933014  0.37865989  1
  Mn  Mn6  1  0.00053619  0.99821370  0.00105104  1
  Mn  Mn7  1  0.80248424  0.99394838  0.61958466  1
  Mn  Mn8  1  0.19901263  0.99428038  0.37901964  1
  Mn  Mn9  1  0.49987402  0.48657799  0.00128472  1
  Sb  Sb10  1  0.89497162  0.00520571  0.45393263  1
  Sb  Sb11  1  0.10654925  0.99365283  0.54931688  1
  Sb  Sb12  1  0.03784706  0.49412624  0.81397929  1
  Sb  Sb13  1  0.96265009  0.49753284  0.18784251  1
  Sb  Sb14  1  0.39451542  0.49184866  0.45557621  1
  Sb  Sb15  1  0.60579763  0.49635252  0.54782086  1
  Sb  Sb16  1  0.53838148  0.99852770  0.81464966  1
  Sb  Sb17  1  0.46283225  0.99934799  0.18528140  1
  S  S18  1  0.93941731  0.99641532  0.79772968  1
  S  S19  1  0.05752868  0.99268457  0.19479224  1
  S  S20  1  0.40254305  0.98109301  0.98035571  1
  S  S21  1  0.59859528  0.99623939  0.01866163  1
  S  S22  1  0.16864566  0.98913919  0.89884435  1
  S  S23  1  0.82850483  0.00429884  0.10359379  1
  S  S24  1  0.08833985  0.49296957  0.64781436  1
  S  S25  1  0.91016042  0.49014600  0.34922695  1
  S  S26  1  0.74414240  0.98271367  0.29629709  1
  S  S27  1  0.25612355  0.00954610  0.70192039  1
  S  S28  1  0.15770594  0.49251038  0.44877865  1
  S  S29  1  0.83767807  0.49934409  0.54644169  1
  S  S30  1  0.44071715  0.49607234  0.79882931  1
  S  S31  1  0.56061948  0.49216491  0.19963065  1
  S  S32  1  0.90268326  0.48738403  0.97918602  1
  S  S33  1  0.09547163  0.48963029  0.01979208  1
  S  S34  1  0.66573133  0.51160826  0.89546391  1
  S  S35  1  0.33422402  0.50017398  0.10669070  1
  S  S36  1  0.58876754  0.01601450  0.64763897  1
  S  S37  1  0.41329838  0.99355617  0.35572813  1
  S  S38  1  0.24308037  0.48249629  0.29135716  1
  S  S39  1  0.76158456  0.50004905  0.70629467  1
  S  S40  1  0.65837780  0.99651646  0.45484339  1
  S  S41  1  0.34133116  0.99231433  0.54561893  1
