# generated using pymatgen
data_Pr2Mn3(SbS3)4
_symmetry_space_group_name_H-M   'P 1'
_cell_length_a   20.02960800
_cell_length_b   3.90410600
_cell_length_c   14.95364829
_cell_angle_alpha   90.00000000
_cell_angle_beta   126.33350609
_cell_angle_gamma   90.00000000
_symmetry_Int_Tables_number   1
_chemical_formula_structural   Pr2Mn3(SbS3)4
_chemical_formula_sum   'Pr4 Mn6 Sb8 S24'
_cell_volume   942.00006694
_cell_formula_units_Z   2
loop_
 _symmetry_equiv_pos_site_id
 _symmetry_equiv_pos_as_xyz
  1  'x, y, z'
loop_
 _atom_site_type_symbol
 _atom_site_label
 _atom_site_symmetry_multiplicity
 _atom_site_fract_x
 _atom_site_fract_y
 _atom_site_fract_z
 _atom_site_occupancy
  Pr  Pr0  1  0.26714516  0.49360013  0.86422754  1
  Pr  Pr1  1  0.73639498  0.51150132  0.13703450  1
  Pr  Pr2  1  0.76261555  0.01097752  0.86114257  1
  Pr  Pr3  1  0.23482450  0.00392602  0.13499866  1
  Mn  Mn4  1  0.28727947  0.47990314  0.59031478  1
  Mn  Mn5  1  0.68714472  0.48321841  0.36913264  1
  Mn  Mn6  1  0.00892553  0.98530063  0.02078984  1
  Mn  Mn7  1  0.80594506  0.00555206  0.61905477  1
  Mn  Mn8  1  0.19856295  0.97823156  0.37486488  1
  Mn  Mn9  1  0.49230302  0.48015660  0.99064634  1
  Sb  Sb10  1  0.88946609  0.98994824  0.45045407  1
  Sb  Sb11  1  0.11159044  0.97825821  0.54578342  1
  Sb  Sb12  1  0.03975313  0.52332966  0.82153824  1
  Sb  Sb13  1  0.96195748  0.49865770  0.18277329  1
  Sb  Sb14  1  0.39543961  0.50500511  0.45058197  1
  Sb  Sb15  1  0.60634911  0.47186101  0.54850849  1
  Sb  Sb16  1  0.53344607  0.99908676  0.80793312  1
  Sb  Sb17  1  0.46492341  0.01642441  0.18966568  1
  S  S18  1  0.93706098  0.00222434  0.80443245  1
  S  S19  1  0.06554866  0.98000299  0.20135494  1
  S  S20  1  0.41352964  0.96982972  0.98080535  1
  S  S21  1  0.57765238  0.02325615  0.00984678  1
  S  S22  1  0.17245883  0.03673286  0.90391422  1
  S  S23  1  0.82539838  0.05070730  0.09525416  1
  S  S24  1  0.09599690  0.48223398  0.64660680  1
  S  S25  1  0.91151027  0.49039798  0.35290659  1
  S  S26  1  0.73841039  0.94685810  0.30050020  1
  S  S27  1  0.26211729  0.00362329  0.70687966  1
  S  S28  1  0.15986870  0.49463555  0.42437585  1
  S  S29  1  0.82489763  0.49105495  0.55045177  1
  S  S30  1  0.43086462  0.49939208  0.79925881  1
  S  S31  1  0.55526344  0.52141184  0.18347954  1
  S  S32  1  0.91009480  0.48602951  0.98578929  1
  S  S33  1  0.09334880  0.48327724  0.03105970  1
  S  S34  1  0.66231851  0.50892413  0.88394625  1
  S  S35  1  0.33156442  0.50261048  0.10063653  1
  S  S36  1  0.59825786  0.98606240  0.65645824  1
  S  S37  1  0.40256318  0.98999800  0.34490978  1
  S  S38  1  0.23825536  0.46000387  0.30837525  1
  S  S39  1  0.76054971  0.49664862  0.69505001  1
  S  S40  1  0.66775502  0.03370449  0.45141485  1
  S  S41  1  0.32793172  0.98484181  0.55474422  1
