# generated using pymatgen
data_Pr2Mn3(SbS3)4
_symmetry_space_group_name_H-M   'P 1'
_cell_length_a   20.02960800
_cell_length_b   3.90410600
_cell_length_c   14.95364829
_cell_angle_alpha   90.00000000
_cell_angle_beta   126.33350609
_cell_angle_gamma   90.00000000
_symmetry_Int_Tables_number   1
_chemical_formula_structural   Pr2Mn3(SbS3)4
_chemical_formula_sum   'Pr4 Mn6 Sb8 S24'
_cell_volume   942.00006694
_cell_formula_units_Z   2
loop_
 _symmetry_equiv_pos_site_id
 _symmetry_equiv_pos_as_xyz
  1  'x, y, z'
loop_
 _atom_site_type_symbol
 _atom_site_label
 _atom_site_symmetry_multiplicity
 _atom_site_fract_x
 _atom_site_fract_y
 _atom_site_fract_z
 _atom_site_occupancy
  Pr  Pr0  1  0.25735291  0.51673513  0.85979217  1
  Pr  Pr1  1  0.73265654  0.48902465  0.13219459  1
  Pr  Pr2  1  0.76320666  0.97658653  0.86685118  1
  Pr  Pr3  1  0.24553966  0.99507274  0.14821571  1
  Mn  Mn4  1  0.29530218  0.53961796  0.62085053  1
  Mn  Mn5  1  0.69482690  0.48476830  0.37797738  1
  Mn  Mn6  1  0.99433046  0.99520437  0.98581744  1
  Mn  Mn7  1  0.80070128  0.99741224  0.60446281  1
  Mn  Mn8  1  0.19758995  0.95942080  0.39240570  1
  Mn  Mn9  1  0.50630485  0.50807132  0.01062916  1
  Sb  Sb10  1  0.89753490  0.02239857  0.45527300  1
  Sb  Sb11  1  0.10859588  0.03265938  0.55224927  1
  Sb  Sb12  1  0.03575110  0.50794191  0.81213803  1
  Sb  Sb13  1  0.96616874  0.51984117  0.19091677  1
  Sb  Sb14  1  0.39155898  0.50592239  0.45821907  1
  Sb  Sb15  1  0.61271614  0.48579557  0.56298018  1
  Sb  Sb16  1  0.53632177  0.02587946  0.81948295  1
  Sb  Sb17  1  0.46046227  0.99260215  0.18886233  1
  S  S18  1  0.93580169  0.01612360  0.79927189  1
  S  S19  1  0.06506956  0.01935365  0.21354821  1
  S  S20  1  0.41264790  0.02495249  0.98993809  1
  S  S21  1  0.58310855  0.02196008  0.01386930  1
  S  S22  1  0.18036224  0.01018130  0.91852013  1
  S  S23  1  0.82810138  0.00005392  0.10641435  1
  S  S24  1  0.08825438  0.55051410  0.64891862  1
  S  S25  1  0.91779665  0.49370308  0.35530665  1
  S  S26  1  0.74816241  0.98953811  0.30724198  1
  S  S27  1  0.26739130  0.98043264  0.70043823  1
  S  S28  1  0.17242476  0.45586911  0.44377275  1
  S  S29  1  0.81843612  0.50890405  0.54391871  1
  S  S30  1  0.43312766  0.52187791  0.79299133  1
  S  S31  1  0.55785017  0.52473846  0.18751393  1
  S  S32  1  0.91449053  0.45459831  0.99173894  1
  S  S33  1  0.07660712  0.46835094  0.01159744  1
  S  S34  1  0.66904377  0.50236067  0.90149610  1
  S  S35  1  0.33941539  0.49966031  0.11214673  1
  S  S36  1  0.58731567  0.02387295  0.64985082  1
  S  S37  1  0.41498633  0.03282759  0.35945531  1
  S  S38  1  0.25027073  0.49518186  0.29805537  1
  S  S39  1  0.76429750  0.49641108  0.69879356  1
  S  S40  1  0.66719511  0.00342039  0.43960185  1
  S  S41  1  0.33787555  0.01935148  0.55159745  1
