# generated using pymatgen
data_Pr2Mn3(SbS3)4
_symmetry_space_group_name_H-M   'P 1'
_cell_length_a   20.02960800
_cell_length_b   3.90410600
_cell_length_c   14.95364829
_cell_angle_alpha   90.00000000
_cell_angle_beta   126.33350609
_cell_angle_gamma   90.00000000
_symmetry_Int_Tables_number   1
_chemical_formula_structural   Pr2Mn3(SbS3)4
_chemical_formula_sum   'Pr4 Mn6 Sb8 S24'
_cell_volume   942.00006694
_cell_formula_units_Z   2
loop_
 _symmetry_equiv_pos_site_id
 _symmetry_equiv_pos_as_xyz
  1  'x, y, z'
loop_
 _atom_site_type_symbol
 _atom_site_label
 _atom_site_symmetry_multiplicity
 _atom_site_fract_x
 _atom_site_fract_y
 _atom_site_fract_z
 _atom_site_occupancy
  Pr  Pr0  1  0.25752952  0.51689095  0.85993283  1
  Pr  Pr1  1  0.73273710  0.48908233  0.13229400  1
  Pr  Pr2  1  0.76326328  0.97710852  0.86689406  1
  Pr  Pr3  1  0.24546916  0.99535075  0.14831923  1
  Mn  Mn4  1  0.29496923  0.54060600  0.62054771  1
  Mn  Mn5  1  0.69456909  0.48562478  0.37809158  1
  Mn  Mn6  1  0.99421499  0.99466941  0.98586852  1
  Mn  Mn7  1  0.80086507  0.99750619  0.60449754  1
  Mn  Mn8  1  0.19772922  0.95921391  0.39246048  1
  Mn  Mn9  1  0.50625484  0.50862436  0.01061432  1
  Sb  Sb10  1  0.89771831  0.02211621  0.45537897  1
  Sb  Sb11  1  0.10857432  0.03254966  0.55220717  1
  Sb  Sb12  1  0.03571905  0.50701340  0.81202616  1
  Sb  Sb13  1  0.96612592  0.51928261  0.19087333  1
  Sb  Sb14  1  0.39147588  0.50544665  0.45817979  1
  Sb  Sb15  1  0.61275949  0.48546043  0.56343857  1
  Sb  Sb16  1  0.53636792  0.02674326  0.81938038  1
  Sb  Sb17  1  0.46047037  0.99274172  0.18891997  1
  S  S18  1  0.93551441  0.01488375  0.79903551  1
  S  S19  1  0.06510489  0.01948551  0.21395481  1
  S  S20  1  0.41232513  0.02549027  0.98944648  1
  S  S21  1  0.58311277  0.02086398  0.01412391  1
  S  S22  1  0.18046885  0.01072015  0.91861231  1
  S  S23  1  0.82799895  0.00069586  0.10644572  1
  S  S24  1  0.08808545  0.55056620  0.64890315  1
  S  S25  1  0.91741691  0.49219804  0.35496482  1
  S  S26  1  0.74808914  0.98972585  0.30701319  1
  S  S27  1  0.26748072  0.98043901  0.70049709  1
  S  S28  1  0.17210349  0.45650044  0.44343315  1
  S  S29  1  0.81840482  0.50724800  0.54400510  1
  S  S30  1  0.43268598  0.52158538  0.79263802  1
  S  S31  1  0.55765984  0.52364981  0.18764965  1
  S  S32  1  0.91458604  0.45580057  0.99141390  1
  S  S33  1  0.07635985  0.46759611  0.01140701  1
  S  S34  1  0.66933672  0.50276998  0.90166239  1
  S  S35  1  0.33963994  0.49968986  0.11224708  1
  S  S36  1  0.58714321  0.02422576  0.64978057  1
  S  S37  1  0.41492541  0.03389106  0.35950524  1
  S  S38  1  0.25015655  0.49598215  0.29801619  1
  S  S39  1  0.76442142  0.49508270  0.69892339  1
  S  S40  1  0.66690297  0.00451183  0.43933153  1
  S  S41  1  0.33770310  0.01952219  0.55173700  1
