# generated using pymatgen
data_Pr2Mn3(SbS3)4
_symmetry_space_group_name_H-M   'P 1'
_cell_length_a   20.02960800
_cell_length_b   3.90410600
_cell_length_c   14.95364829
_cell_angle_alpha   90.00000000
_cell_angle_beta   126.33350609
_cell_angle_gamma   90.00000000
_symmetry_Int_Tables_number   1
_chemical_formula_structural   Pr2Mn3(SbS3)4
_chemical_formula_sum   'Pr4 Mn6 Sb8 S24'
_cell_volume   942.00006694
_cell_formula_units_Z   2
loop_
 _symmetry_equiv_pos_site_id
 _symmetry_equiv_pos_as_xyz
  1  'x, y, z'
loop_
 _atom_site_type_symbol
 _atom_site_label
 _atom_site_symmetry_multiplicity
 _atom_site_fract_x
 _atom_site_fract_y
 _atom_site_fract_z
 _atom_site_occupancy
  Pr  Pr0  1  0.25771190  0.51715717  0.86016622  1
  Pr  Pr1  1  0.73280346  0.48934162  0.13236266  1
  Pr  Pr2  1  0.76333483  0.97776545  0.86687644  1
  Pr  Pr3  1  0.24543839  0.99541272  0.14848127  1
  Mn  Mn4  1  0.29461477  0.54130845  0.62019218  1
  Mn  Mn5  1  0.69431929  0.48693616  0.37814214  1
  Mn  Mn6  1  0.99409504  0.99400327  0.98571602  1
  Mn  Mn7  1  0.80095637  0.99778021  0.60449518  1
  Mn  Mn8  1  0.19777079  0.95940441  0.39243793  1
  Mn  Mn9  1  0.50611488  0.50927355  0.01045188  1
  Sb  Sb10  1  0.89788102  0.02198022  0.45543757  1
  Sb  Sb11  1  0.10846398  0.03267832  0.55206564  1
  Sb  Sb12  1  0.03564952  0.50616572  0.81188411  1
  Sb  Sb13  1  0.96609444  0.51835049  0.19079474  1
  Sb  Sb14  1  0.39132610  0.50480135  0.45807885  1
  Sb  Sb15  1  0.61276546  0.48487659  0.56386237  1
  Sb  Sb16  1  0.53651778  0.02757097  0.81926673  1
  Sb  Sb17  1  0.46044325  0.99299151  0.18895095  1
  S  S18  1  0.93520546  0.01419941  0.79867052  1
  S  S19  1  0.06506379  0.01910319  0.21429274  1
  S  S20  1  0.41208922  0.02539983  0.98929220  1
  S  S21  1  0.58312802  0.01979105  0.01428257  1
  S  S22  1  0.18052806  0.01106632  0.91875303  1
  S  S23  1  0.82774677  0.00086758  0.10640336  1
  S  S24  1  0.08800470  0.55067066  0.64886106  1
  S  S25  1  0.91701549  0.49068086  0.35474932  1
  S  S26  1  0.74808703  0.98956190  0.30701839  1
  S  S27  1  0.26748312  0.97998744  0.70039861  1
  S  S28  1  0.17188320  0.45714832  0.44336789  1
  S  S29  1  0.81837664  0.50563152  0.54392702  1
  S  S30  1  0.43219999  0.52103677  0.79227710  1
  S  S31  1  0.55750228  0.52243861  0.18766306  1
  S  S32  1  0.91486453  0.45702315  0.99118740  1
  S  S33  1  0.07606519  0.46710735  0.01117300  1
  S  S34  1  0.66955128  0.50339691  0.90184472  1
  S  S35  1  0.33974324  0.49951715  0.11216743  1
  S  S36  1  0.58696500  0.02465712  0.64976713  1
  S  S37  1  0.41489863  0.03482125  0.35982607  1
  S  S38  1  0.25007478  0.49716034  0.29819211  1
  S  S39  1  0.76453420  0.49392579  0.69927031  1
  S  S40  1  0.66645540  0.00546441  0.43888598  1
  S  S41  1  0.33756579  0.01978319  0.55201017  1
