# generated using pymatgen
data_Pr2Mn3(SbS3)4
_symmetry_space_group_name_H-M   'P 1'
_cell_length_a   20.02960800
_cell_length_b   3.90410600
_cell_length_c   14.95364829
_cell_angle_alpha   90.00000000
_cell_angle_beta   126.33350609
_cell_angle_gamma   90.00000000
_symmetry_Int_Tables_number   1
_chemical_formula_structural   Pr2Mn3(SbS3)4
_chemical_formula_sum   'Pr4 Mn6 Sb8 S24'
_cell_volume   942.00006694
_cell_formula_units_Z   2
loop_
 _symmetry_equiv_pos_site_id
 _symmetry_equiv_pos_as_xyz
  1  'x, y, z'
loop_
 _atom_site_type_symbol
 _atom_site_label
 _atom_site_symmetry_multiplicity
 _atom_site_fract_x
 _atom_site_fract_y
 _atom_site_fract_z
 _atom_site_occupancy
  Pr  Pr0  1  0.25783458  0.51735330  0.86036610  1
  Pr  Pr1  1  0.73277103  0.48965442  0.13237693  1
  Pr  Pr2  1  0.76336590  0.97830719  0.86677780  1
  Pr  Pr3  1  0.24528551  0.99559400  0.14856876  1
  Mn  Mn4  1  0.29430522  0.54219547  0.61984125  1
  Mn  Mn5  1  0.69419144  0.48829257  0.37808928  1
  Mn  Mn6  1  0.99401849  0.99359566  0.98546921  1
  Mn  Mn7  1  0.80108105  0.99792713  0.60449958  1
  Mn  Mn8  1  0.19788152  0.95916748  0.39243273  1
  Mn  Mn9  1  0.50607264  0.50997204  0.01032640  1
  Sb  Sb10  1  0.89804780  0.02187611  0.45551158  1
  Sb  Sb11  1  0.10837478  0.03257099  0.55185811  1
  Sb  Sb12  1  0.03558405  0.50536279  0.81167235  1
  Sb  Sb13  1  0.96602954  0.51732967  0.19067944  1
  Sb  Sb14  1  0.39114246  0.50415820  0.45784141  1
  Sb  Sb15  1  0.61274430  0.48449268  0.56416607  1
  Sb  Sb16  1  0.53664511  0.02823119  0.81917491  1
  Sb  Sb17  1  0.46042448  0.99309170  0.18904732  1
  S  S18  1  0.93494222  0.01338310  0.79817897  1
  S  S19  1  0.06505866  0.01907000  0.21466777  1
  S  S20  1  0.41183341  0.02562187  0.98902794  1
  S  S21  1  0.58310592  0.01912792  0.01439957  1
  S  S22  1  0.18059940  0.01123766  0.91877199  1
  S  S23  1  0.82748853  0.00072151  0.10632893  1
  S  S24  1  0.08789049  0.55153150  0.64870046  1
  S  S25  1  0.91670704  0.48931608  0.35452476  1
  S  S26  1  0.74792727  0.98940513  0.30699368  1
  S  S27  1  0.26754168  0.97910007  0.70017465  1
  S  S28  1  0.17156336  0.45795036  0.44331757  1
  S  S29  1  0.81853755  0.50403454  0.54393631  1
  S  S30  1  0.43185767  0.52065275  0.79196515  1
  S  S31  1  0.55728406  0.52165592  0.18744302  1
  S  S32  1  0.91515919  0.45843615  0.99082938  1
  S  S33  1  0.07588869  0.46586579  0.01111459  1
  S  S34  1  0.66958878  0.50425484  0.90191525  1
  S  S35  1  0.33986751  0.49948515  0.11226005  1
  S  S36  1  0.58671749  0.02438883  0.64955282  1
  S  S37  1  0.41485815  0.03535518  0.36020438  1
  S  S38  1  0.24993206  0.49829398  0.29811459  1
  S  S39  1  0.76454848  0.49321269  0.69953699  1
  S  S40  1  0.66616795  0.00568129  0.43853855  1
  S  S41  1  0.33731798  0.02031627  0.55211174  1
