# generated using pymatgen
data_Pr2Mn3(SbS3)4
_symmetry_space_group_name_H-M   'P 1'
_cell_length_a   20.02960800
_cell_length_b   3.90410600
_cell_length_c   14.95364829
_cell_angle_alpha   90.00000000
_cell_angle_beta   126.33350609
_cell_angle_gamma   90.00000000
_symmetry_Int_Tables_number   1
_chemical_formula_structural   Pr2Mn3(SbS3)4
_chemical_formula_sum   'Pr4 Mn6 Sb8 S24'
_cell_volume   942.00006694
_cell_formula_units_Z   2
loop_
 _symmetry_equiv_pos_site_id
 _symmetry_equiv_pos_as_xyz
  1  'x, y, z'
loop_
 _atom_site_type_symbol
 _atom_site_label
 _atom_site_symmetry_multiplicity
 _atom_site_fract_x
 _atom_site_fract_y
 _atom_site_fract_z
 _atom_site_occupancy
  Pr  Pr0  1  0.25790866  0.51765771  0.86046800  1
  Pr  Pr1  1  0.73267802  0.48989693  0.13235306  1
  Pr  Pr2  1  0.76344329  0.97906222  0.86681540  1
  Pr  Pr3  1  0.24518224  0.99587966  0.14869117  1
  Mn  Mn4  1  0.29403079  0.54300110  0.61947334  1
  Mn  Mn5  1  0.69403328  0.48926139  0.37792908  1
  Mn  Mn6  1  0.99396750  0.99327823  0.98523535  1
  Mn  Mn7  1  0.80118673  0.99783750  0.60450002  1
  Mn  Mn8  1  0.19790926  0.95883857  0.39237910  1
  Mn  Mn9  1  0.50599413  0.51037694  0.01028139  1
  Sb  Sb10  1  0.89819908  0.02166481  0.45559272  1
  Sb  Sb11  1  0.10835811  0.03257222  0.55168719  1
  Sb  Sb12  1  0.03555436  0.50460467  0.81143756  1
  Sb  Sb13  1  0.96591449  0.51628470  0.19058142  1
  Sb  Sb14  1  0.39096184  0.50364896  0.45760543  1
  Sb  Sb15  1  0.61271330  0.48399379  0.56455521  1
  Sb  Sb16  1  0.53678997  0.02860368  0.81911464  1
  Sb  Sb17  1  0.46042594  0.99342907  0.18923320  1
  S  S18  1  0.93465305  0.01296389  0.79779000  1
  S  S19  1  0.06509408  0.01875796  0.21499482  1
  S  S20  1  0.41153043  0.02525351  0.98870429  1
  S  S21  1  0.58295037  0.01862842  0.01449797  1
  S  S22  1  0.18045616  0.01206046  0.91868934  1
  S  S23  1  0.82730784  0.00089794  0.10612969  1
  S  S24  1  0.08785256  0.55200901  0.64878210  1
  S  S25  1  0.91656354  0.48733246  0.35446125  1
  S  S26  1  0.74797604  0.98968298  0.30726443  1
  S  S27  1  0.26764747  0.97839112  0.70022146  1
  S  S28  1  0.17120918  0.45796962  0.44339042  1
  S  S29  1  0.81863668  0.50271236  0.54382766  1
  S  S30  1  0.43145263  0.52059373  0.79151237  1
  S  S31  1  0.55691987  0.52088825  0.18709024  1
  S  S32  1  0.91523687  0.45956595  0.99026914  1
  S  S33  1  0.07578989  0.46482614  0.01099181  1
  S  S34  1  0.66978243  0.50456113  0.90209874  1
  S  S35  1  0.34007198  0.49960842  0.11220567  1
  S  S36  1  0.58659194  0.02374671  0.64941607  1
  S  S37  1  0.41483151  0.03635730  0.36057071  1
  S  S38  1  0.24969520  0.49872933  0.29806902  1
  S  S39  1  0.76460581  0.49192563  0.69967355  1
  S  S40  1  0.66586846  0.00602823  0.43821399  1
  S  S41  1  0.33696480  0.02093677  0.55206088  1
