# generated using pymatgen
data_Pr2Mn3(SbS3)4
_symmetry_space_group_name_H-M   'P 1'
_cell_length_a   20.02960800
_cell_length_b   3.90410600
_cell_length_c   14.95364829
_cell_angle_alpha   90.00000000
_cell_angle_beta   126.33350609
_cell_angle_gamma   90.00000000
_symmetry_Int_Tables_number   1
_chemical_formula_structural   Pr2Mn3(SbS3)4
_chemical_formula_sum   'Pr4 Mn6 Sb8 S24'
_cell_volume   942.00006694
_cell_formula_units_Z   2
loop_
 _symmetry_equiv_pos_site_id
 _symmetry_equiv_pos_as_xyz
  1  'x, y, z'
loop_
 _atom_site_type_symbol
 _atom_site_label
 _atom_site_symmetry_multiplicity
 _atom_site_fract_x
 _atom_site_fract_y
 _atom_site_fract_z
 _atom_site_occupancy
  Pr  Pr0  1  0.25806290  0.51807433  0.86073309  1
  Pr  Pr1  1  0.73264656  0.49003431  0.13239048  1
  Pr  Pr2  1  0.76350838  0.97985867  0.86678700  1
  Pr  Pr3  1  0.24501575  0.99598980  0.14869131  1
  Mn  Mn4  1  0.29384730  0.54402416  0.61904957  1
  Mn  Mn5  1  0.69383377  0.48994561  0.37785123  1
  Mn  Mn6  1  0.99392104  0.99322155  0.98519700  1
  Mn  Mn7  1  0.80141029  0.99781302  0.60460011  1
  Mn  Mn8  1  0.19790548  0.95885388  0.39227489  1
  Mn  Mn9  1  0.50592265  0.51088459  0.01036827  1
  Sb  Sb10  1  0.89836128  0.02167841  0.45571307  1
  Sb  Sb11  1  0.10837117  0.03254233  0.55149485  1
  Sb  Sb12  1  0.03549878  0.50403258  0.81118909  1
  Sb  Sb13  1  0.96583087  0.51536789  0.19060552  1
  Sb  Sb14  1  0.39081547  0.50350727  0.45741379  1
  Sb  Sb15  1  0.61278487  0.48373281  0.56501137  1
  Sb  Sb16  1  0.53697621  0.02921866  0.81920275  1
  Sb  Sb17  1  0.46042564  0.99383707  0.18940730  1
  S  S18  1  0.93452630  0.01196038  0.79759886  1
  S  S19  1  0.06514972  0.01816647  0.21525581  1
  S  S20  1  0.41127698  0.02435792  0.98834013  1
  S  S21  1  0.58275443  0.01857846  0.01455866  1
  S  S22  1  0.18036866  0.01283127  0.91856074  1
  S  S23  1  0.82709184  0.00155695  0.10604770  1
  S  S24  1  0.08789875  0.55241187  0.64884331  1
  S  S25  1  0.91653539  0.48599618  0.35436624  1
  S  S26  1  0.74796575  0.98941388  0.30747268  1
  S  S27  1  0.26780092  0.97789054  0.70034872  1
  S  S28  1  0.17096306  0.45759062  0.44358460  1
  S  S29  1  0.81867410  0.50139661  0.54361386  1
  S  S30  1  0.43117231  0.51998933  0.79094514  1
  S  S31  1  0.55669043  0.52084823  0.18674906  1
  S  S32  1  0.91513811  0.46064988  0.98959668  1
  S  S33  1  0.07576586  0.46401623  0.01083534  1
  S  S34  1  0.66997029  0.50535146  0.90213456  1
  S  S35  1  0.34019710  0.50016003  0.11221886  1
  S  S36  1  0.58665853  0.02267371  0.64939132  1
  S  S37  1  0.41472849  0.03771200  0.36093964  1
  S  S38  1  0.24949129  0.49928479  0.29803093  1
  S  S39  1  0.76469420  0.49063792  0.69989355  1
  S  S40  1  0.66567080  0.00622410  0.43788540  1
  S  S41  1  0.33664293  0.02131785  0.55200301  1
