# generated using pymatgen
data_Pr2Mn3(SbS3)4
_symmetry_space_group_name_H-M   'P 1'
_cell_length_a   20.02960800
_cell_length_b   3.90410600
_cell_length_c   14.95364829
_cell_angle_alpha   90.00000000
_cell_angle_beta   126.33350609
_cell_angle_gamma   90.00000000
_symmetry_Int_Tables_number   1
_chemical_formula_structural   Pr2Mn3(SbS3)4
_chemical_formula_sum   'Pr4 Mn6 Sb8 S24'
_cell_volume   942.00006694
_cell_formula_units_Z   2
loop_
 _symmetry_equiv_pos_site_id
 _symmetry_equiv_pos_as_xyz
  1  'x, y, z'
loop_
 _atom_site_type_symbol
 _atom_site_label
 _atom_site_symmetry_multiplicity
 _atom_site_fract_x
 _atom_site_fract_y
 _atom_site_fract_z
 _atom_site_occupancy
  Pr  Pr0  1  0.25813502  0.51856908  0.86096372  1
  Pr  Pr1  1  0.73264820  0.49022065  0.13244519  1
  Pr  Pr2  1  0.76349098  0.98068296  0.86663312  1
  Pr  Pr3  1  0.24486102  0.99594552  0.14870339  1
  Mn  Mn4  1  0.29379787  0.54491595  0.61871037  1
  Mn  Mn5  1  0.69353935  0.49062627  0.37763575  1
  Mn  Mn6  1  0.99389104  0.99276002  0.98521631  1
  Mn  Mn7  1  0.80161543  0.99767771  0.60481035  1
  Mn  Mn8  1  0.19787761  0.95835025  0.39219128  1
  Mn  Mn9  1  0.50576382  0.51078157  0.01049846  1
  Sb  Sb10  1  0.89852360  0.02190044  0.45570995  1
  Sb  Sb11  1  0.10840489  0.03219561  0.55141063  1
  Sb  Sb12  1  0.03543970  0.50348689  0.81091052  1
  Sb  Sb13  1  0.96570076  0.51463974  0.19058293  1
  Sb  Sb14  1  0.39067216  0.50353969  0.45716562  1
  Sb  Sb15  1  0.61283623  0.48354040  0.56547208  1
  Sb  Sb16  1  0.53712469  0.03022349  0.81925304  1
  Sb  Sb17  1  0.46041812  0.99414354  0.18958836  1
  S  S18  1  0.93438050  0.00981558  0.79749119  1
  S  S19  1  0.06517234  0.01802110  0.21550628  1
  S  S20  1  0.41105549  0.02303948  0.98797687  1
  S  S21  1  0.58246657  0.01855721  0.01438702  1
  S  S22  1  0.18017905  0.01345968  0.91845360  1
  S  S23  1  0.82690694  0.00205585  0.10606302  1
  S  S24  1  0.08788522  0.55314154  0.64877330  1
  S  S25  1  0.91647032  0.48450803  0.35441362  1
  S  S26  1  0.74790802  0.98918831  0.30768603  1
  S  S27  1  0.26797343  0.97752294  0.70058320  1
  S  S28  1  0.17077967  0.45716327  0.44390074  1
  S  S29  1  0.81868230  0.50025244  0.54340668  1
  S  S30  1  0.43105344  0.52034349  0.79061726  1
  S  S31  1  0.55658087  0.52047100  0.18639252  1
  S  S32  1  0.91495406  0.46192534  0.98880801  1
  S  S33  1  0.07576097  0.46308800  0.01067242  1
  S  S34  1  0.67012526  0.50556394  0.90221211  1
  S  S35  1  0.34027285  0.50078305  0.11222830  1
  S  S36  1  0.58689339  0.02160345  0.64949353  1
  S  S37  1  0.41467700  0.03899716  0.36134775  1
  S  S38  1  0.24929039  0.49943746  0.29808245  1
  S  S39  1  0.76481155  0.48972463  0.70009051  1
  S  S40  1  0.66547587  0.00735838  0.43757835  1
  S  S41  1  0.33631309  0.02157567  0.55190087  1
