# generated using pymatgen
data_Pr2Mn3(SbS3)4
_symmetry_space_group_name_H-M   'P 1'
_cell_length_a   20.02960800
_cell_length_b   3.90410600
_cell_length_c   14.95364829
_cell_angle_alpha   90.00000000
_cell_angle_beta   126.33350609
_cell_angle_gamma   90.00000000
_symmetry_Int_Tables_number   1
_chemical_formula_structural   Pr2Mn3(SbS3)4
_chemical_formula_sum   'Pr4 Mn6 Sb8 S24'
_cell_volume   942.00006694
_cell_formula_units_Z   2
loop_
 _symmetry_equiv_pos_site_id
 _symmetry_equiv_pos_as_xyz
  1  'x, y, z'
loop_
 _atom_site_type_symbol
 _atom_site_label
 _atom_site_symmetry_multiplicity
 _atom_site_fract_x
 _atom_site_fract_y
 _atom_site_fract_z
 _atom_site_occupancy
  Pr  Pr0  1  0.25822717  0.51918927  0.86126627  1
  Pr  Pr1  1  0.73266310  0.49031261  0.13245925  1
  Pr  Pr2  1  0.76343895  0.98154911  0.86651648  1
  Pr  Pr3  1  0.24467274  0.99554526  0.14867367  1
  Mn  Mn4  1  0.29369144  0.54569764  0.61835533  1
  Mn  Mn5  1  0.69326167  0.49120926  0.37754216  1
  Mn  Mn6  1  0.99376631  0.99235592  0.98514198  1
  Mn  Mn7  1  0.80181803  0.99736402  0.60514251  1
  Mn  Mn8  1  0.19791411  0.95819286  0.39211494  1
  Mn  Mn9  1  0.50569790  0.51052739  0.01064052  1
  Sb  Sb10  1  0.89866294  0.02175171  0.45571279  1
  Sb  Sb11  1  0.10837184  0.03190452  0.55120596  1
  Sb  Sb12  1  0.03540211  0.50290457  0.81063631  1
  Sb  Sb13  1  0.96556808  0.51399831  0.19042284  1
  Sb  Sb14  1  0.39049483  0.50376369  0.45683958  1
  Sb  Sb15  1  0.61286058  0.48322365  0.56584102  1
  Sb  Sb16  1  0.53725341  0.03108625  0.81937813  1
  Sb  Sb17  1  0.46042955  0.99440410  0.18987226  1
  S  S18  1  0.93408876  0.00757302  0.79724717  1
  S  S19  1  0.06515265  0.01746492  0.21581702  1
  S  S20  1  0.41085672  0.02227448  0.98756369  1
  S  S21  1  0.58208917  0.01869747  0.01438446  1
  S  S22  1  0.18001533  0.01389596  0.91814114  1
  S  S23  1  0.82673778  0.00174536  0.10607849  1
  S  S24  1  0.08798241  0.55372640  0.64866123  1
  S  S25  1  0.91635030  0.48362454  0.35455589  1
  S  S26  1  0.74790708  0.98913826  0.30793776  1
  S  S27  1  0.26813331  0.97668521  0.70086824  1
  S  S28  1  0.17057859  0.45727681  0.44426387  1
  S  S29  1  0.81872556  0.49924176  0.54324115  1
  S  S30  1  0.43097506  0.52041736  0.79048382  1
  S  S31  1  0.55656238  0.52025365  0.18614506  1
  S  S32  1  0.91474174  0.46279179  0.98809346  1
  S  S33  1  0.07574988  0.46155295  0.01034330  1
  S  S34  1  0.67016831  0.50557143  0.90224622  1
  S  S35  1  0.34025530  0.50134296  0.11219090  1
  S  S36  1  0.58712031  0.02040291  0.64946397  1
  S  S37  1  0.41459909  0.04015059  0.36165939  1
  S  S38  1  0.24918391  0.49904036  0.29813679  1
  S  S39  1  0.76492242  0.48943295  0.70019198  1
  S  S40  1  0.66522628  0.00840052  0.43701347  1
  S  S41  1  0.33595025  0.02232795  0.55169495  1
