# generated using pymatgen
data_Pr2Mn3(SbS3)4
_symmetry_space_group_name_H-M   'P 1'
_cell_length_a   20.02960800
_cell_length_b   3.90410600
_cell_length_c   14.95364829
_cell_angle_alpha   90.00000000
_cell_angle_beta   126.33350609
_cell_angle_gamma   90.00000000
_symmetry_Int_Tables_number   1
_chemical_formula_structural   Pr2Mn3(SbS3)4
_chemical_formula_sum   'Pr4 Mn6 Sb8 S24'
_cell_volume   942.00006694
_cell_formula_units_Z   2
loop_
 _symmetry_equiv_pos_site_id
 _symmetry_equiv_pos_as_xyz
  1  'x, y, z'
loop_
 _atom_site_type_symbol
 _atom_site_label
 _atom_site_symmetry_multiplicity
 _atom_site_fract_x
 _atom_site_fract_y
 _atom_site_fract_z
 _atom_site_occupancy
  Pr  Pr0  1  0.25839648  0.51974989  0.86157747  1
  Pr  Pr1  1  0.73266057  0.49004607  0.13249274  1
  Pr  Pr2  1  0.76341481  0.98264621  0.86647355  1
  Pr  Pr3  1  0.24451831  0.99505458  0.14873207  1
  Mn  Mn4  1  0.29375297  0.54677511  0.61818650  1
  Mn  Mn5  1  0.69305439  0.49182826  0.37749659  1
  Mn  Mn6  1  0.99356191  0.99177834  0.98502705  1
  Mn  Mn7  1  0.80204664  0.99748683  0.60536711  1
  Mn  Mn8  1  0.19795801  0.95822658  0.39199045  1
  Mn  Mn9  1  0.50554876  0.51013057  0.01066954  1
  Sb  Sb10  1  0.89876910  0.02154364  0.45571713  1
  Sb  Sb11  1  0.10827538  0.03146137  0.55100969  1
  Sb  Sb12  1  0.03544744  0.50209202  0.81056857  1
  Sb  Sb13  1  0.96539074  0.51342234  0.19027675  1
  Sb  Sb14  1  0.39035442  0.50391452  0.45659197  1
  Sb  Sb15  1  0.61289091  0.48300109  0.56623276  1
  Sb  Sb16  1  0.53734977  0.03218933  0.81942861  1
  Sb  Sb17  1  0.46038393  0.99419278  0.19011126  1
  S  S18  1  0.93382731  0.00586209  0.79693906  1
  S  S19  1  0.06515005  0.01713681  0.21619556  1
  S  S20  1  0.41077248  0.02207655  0.98739896  1
  S  S21  1  0.58175562  0.01934991  0.01448198  1
  S  S22  1  0.17974669  0.01377063  0.91767008  1
  S  S23  1  0.82659067  0.00152925  0.10616880  1
  S  S24  1  0.08798668  0.55451155  0.64848965  1
  S  S25  1  0.91623042  0.48337053  0.35456024  1
  S  S26  1  0.74777966  0.98918543  0.30810319  1
  S  S27  1  0.26817521  0.97655974  0.70100786  1
  S  S28  1  0.17056638  0.45662775  0.44476131  1
  S  S29  1  0.81872940  0.49839215  0.54313625  1
  S  S30  1  0.43095913  0.52062424  0.79050223  1
  S  S31  1  0.55649307  0.52031200  0.18583985  1
  S  S32  1  0.91452031  0.46407396  0.98741608  1
  S  S33  1  0.07577746  0.45982523  0.00985150  1
  S  S34  1  0.67040760  0.50610814  0.90252081  1
  S  S35  1  0.34015127  0.50185175  0.11213336  1
  S  S36  1  0.58732156  0.01931168  0.64939107  1
  S  S37  1  0.41441760  0.04037021  0.36193238  1
  S  S38  1  0.24920205  0.49902481  0.29815913  1
  S  S39  1  0.76504172  0.48899902  0.70037441  1
  S  S40  1  0.66493155  0.00937236  0.43660505  1
  S  S41  1  0.33559118  0.02323458  0.55154810  1
