# generated using pymatgen
data_Pr2Mn3(SbS3)4
_symmetry_space_group_name_H-M   'P 1'
_cell_length_a   20.02960800
_cell_length_b   3.90410600
_cell_length_c   14.95364829
_cell_angle_alpha   90.00000000
_cell_angle_beta   126.33350609
_cell_angle_gamma   90.00000000
_symmetry_Int_Tables_number   1
_chemical_formula_structural   Pr2Mn3(SbS3)4
_chemical_formula_sum   'Pr4 Mn6 Sb8 S24'
_cell_volume   942.00006694
_cell_formula_units_Z   2
loop_
 _symmetry_equiv_pos_site_id
 _symmetry_equiv_pos_as_xyz
  1  'x, y, z'
loop_
 _atom_site_type_symbol
 _atom_site_label
 _atom_site_symmetry_multiplicity
 _atom_site_fract_x
 _atom_site_fract_y
 _atom_site_fract_z
 _atom_site_occupancy
  Pr  Pr0  1  0.25857830  0.52046035  0.86195203  1
  Pr  Pr1  1  0.73269396  0.48969988  0.13249658  1
  Pr  Pr2  1  0.76344094  0.98314657  0.86654836  1
  Pr  Pr3  1  0.24441765  0.99411828  0.14876524  1
  Mn  Mn4  1  0.29377676  0.54755438  0.61779739  1
  Mn  Mn5  1  0.69281740  0.49300322  0.37742652  1
  Mn  Mn6  1  0.99352184  0.99118185  0.98518523  1
  Mn  Mn7  1  0.80222492  0.99780377  0.60567610  1
  Mn  Mn8  1  0.19796305  0.95765749  0.39201272  1
  Mn  Mn9  1  0.50538269  0.51038488  0.01060199  1
  Sb  Sb10  1  0.89883163  0.02129071  0.45578153  1
  Sb  Sb11  1  0.10809898  0.03092627  0.55074832  1
  Sb  Sb12  1  0.03546391  0.50110590  0.81048832  1
  Sb  Sb13  1  0.96521179  0.51319004  0.19000746  1
  Sb  Sb14  1  0.39020619  0.50392894  0.45637859  1
  Sb  Sb15  1  0.61293642  0.48265276  0.56659135  1
  Sb  Sb16  1  0.53747905  0.03345948  0.81951808  1
  Sb  Sb17  1  0.46032191  0.99416018  0.19028047  1
  S  S18  1  0.93368962  0.00451702  0.79671493  1
  S  S19  1  0.06516535  0.01739814  0.21654938  1
  S  S20  1  0.41059924  0.02158150  0.98728877  1
  S  S21  1  0.58139018  0.02014400  0.01440101  1
  S  S22  1  0.17944287  0.01365519  0.91700651  1
  S  S23  1  0.82650765  0.00178575  0.10612534  1
  S  S24  1  0.08795410  0.55511333  0.64826819  1
  S  S25  1  0.91607206  0.48359336  0.35453394  1
  S  S26  1  0.74752729  0.98923741  0.30805710  1
  S  S27  1  0.26815799  0.97771747  0.70100354  1
  S  S28  1  0.17061320  0.45529378  0.44511023  1
  S  S29  1  0.81876219  0.49760901  0.54315661  1
  S  S30  1  0.43093964  0.52062561  0.79074960  1
  S  S31  1  0.55644451  0.52004789  0.18556799  1
  S  S32  1  0.91442261  0.46505651  0.98683743  1
  S  S33  1  0.07562843  0.45764436  0.00905858  1
  S  S34  1  0.67067068  0.50682823  0.90265507  1
  S  S35  1  0.34023135  0.50272264  0.11216818  1
  S  S36  1  0.58746761  0.01873952  0.64915828  1
  S  S37  1  0.41417263  0.04036211  0.36197105  1
  S  S38  1  0.24908653  0.49906937  0.29811478  1
  S  S39  1  0.76524911  0.48823359  0.70067627  1
  S  S40  1  0.66496999  0.01054625  0.43649991  1
  S  S41  1  0.33513746  0.02409577  0.55125798  1
