# generated using pymatgen
data_Pr2Mn3(SbS3)4
_symmetry_space_group_name_H-M   'P 1'
_cell_length_a   20.02960800
_cell_length_b   3.90410600
_cell_length_c   14.95364829
_cell_angle_alpha   90.00000000
_cell_angle_beta   126.33350609
_cell_angle_gamma   90.00000000
_symmetry_Int_Tables_number   1
_chemical_formula_structural   Pr2Mn3(SbS3)4
_chemical_formula_sum   'Pr4 Mn6 Sb8 S24'
_cell_volume   942.00006694
_cell_formula_units_Z   2
loop_
 _symmetry_equiv_pos_site_id
 _symmetry_equiv_pos_as_xyz
  1  'x, y, z'
loop_
 _atom_site_type_symbol
 _atom_site_label
 _atom_site_symmetry_multiplicity
 _atom_site_fract_x
 _atom_site_fract_y
 _atom_site_fract_z
 _atom_site_occupancy
  Pr  Pr0  1  0.26708112  0.49411538  0.86419813  1
  Pr  Pr1  1  0.73641890  0.51138880  0.13705385  1
  Pr  Pr2  1  0.76269401  0.01079489  0.86114151  1
  Pr  Pr3  1  0.23480774  0.00307825  0.13495667  1
  Mn  Mn4  1  0.28733631  0.48004608  0.59020867  1
  Mn  Mn5  1  0.68704626  0.48214440  0.36889562  1
  Mn  Mn6  1  0.00890783  0.98521684  0.02079466  1
  Mn  Mn7  1  0.80596419  0.00564329  0.61926901  1
  Mn  Mn8  1  0.19849576  0.97805683  0.37457707  1
  Mn  Mn9  1  0.49226948  0.47999213  0.99077697  1
  Sb  Sb10  1  0.88950637  0.98983001  0.45057652  1
  Sb  Sb11  1  0.11151748  0.97853036  0.54569251  1
  Sb  Sb12  1  0.03963477  0.52258434  0.82143148  1
  Sb  Sb13  1  0.96189068  0.49872054  0.18279722  1
  Sb  Sb14  1  0.39532918  0.50491532  0.45056055  1
  Sb  Sb15  1  0.60645996  0.47122908  0.54869118  1
  Sb  Sb16  1  0.53359682  0.99898927  0.80811462  1
  Sb  Sb17  1  0.46499055  0.01647735  0.18981180  1
  S  S18  1  0.93707421  0.00258884  0.80461331  1
  S  S19  1  0.06560096  0.97957066  0.20138358  1
  S  S20  1  0.41374661  0.96854099  0.98074408  1
  S  S21  1  0.57771159  0.02444192  0.00992935  1
  S  S22  1  0.17224882  0.03775292  0.90373313  1
  S  S23  1  0.82549318  0.05080035  0.09516336  1
  S  S24  1  0.09601320  0.48172097  0.64672556  1
  S  S25  1  0.91145087  0.49049721  0.35305459  1
  S  S26  1  0.73822101  0.94691142  0.30047661  1
  S  S27  1  0.26186548  0.00369828  0.70659512  1
  S  S28  1  0.15996624  0.49538649  0.42399927  1
  S  S29  1  0.82481572  0.49053244  0.55065567  1
  S  S30  1  0.43091588  0.49873932  0.79921745  1
  S  S31  1  0.55506011  0.52246188  0.18320298  1
  S  S32  1  0.91017999  0.48668226  0.98593446  1
  S  S33  1  0.09341010  0.48453455  0.03141005  1
  S  S34  1  0.66211982  0.50955076  0.88378176  1
  S  S35  1  0.33153140  0.50245896  0.10097030  1
  S  S36  1  0.59837815  0.98637918  0.65664054  1
  S  S37  1  0.40233167  0.99034431  0.34448250  1
  S  S38  1  0.23820554  0.45987452  0.30855532  1
  S  S39  1  0.76039482  0.49784137  0.69464630  1
  S  S40  1  0.66766421  0.03427461  0.45104359  1
  S  S41  1  0.32810608  0.98577516  0.55500220  1
