# generated using pymatgen
data_Pr2Mn3(SbS3)4
_symmetry_space_group_name_H-M   'P 1'
_cell_length_a   20.02960800
_cell_length_b   3.90410600
_cell_length_c   14.95364829
_cell_angle_alpha   90.00000000
_cell_angle_beta   126.33350609
_cell_angle_gamma   90.00000000
_symmetry_Int_Tables_number   1
_chemical_formula_structural   Pr2Mn3(SbS3)4
_chemical_formula_sum   'Pr4 Mn6 Sb8 S24'
_cell_volume   942.00006694
_cell_formula_units_Z   2
loop_
 _symmetry_equiv_pos_site_id
 _symmetry_equiv_pos_as_xyz
  1  'x, y, z'
loop_
 _atom_site_type_symbol
 _atom_site_label
 _atom_site_symmetry_multiplicity
 _atom_site_fract_x
 _atom_site_fract_y
 _atom_site_fract_z
 _atom_site_occupancy
  Pr  Pr0  1  0.25875615  0.52090934  0.86226209  1
  Pr  Pr1  1  0.73276221  0.48960739  0.13251508  1
  Pr  Pr2  1  0.76349653  0.98361210  0.86673201  1
  Pr  Pr3  1  0.24429667  0.99326104  0.14878151  1
  Mn  Mn4  1  0.29378102  0.54826809  0.61737532  1
  Mn  Mn5  1  0.69246685  0.49417761  0.37713762  1
  Mn  Mn6  1  0.99344999  0.98996325  0.98536909  1
  Mn  Mn7  1  0.80242029  0.99808728  0.60606966  1
  Mn  Mn8  1  0.19789772  0.95646962  0.39184525  1
  Mn  Mn9  1  0.50516816  0.51092113  0.01026571  1
  Sb  Sb10  1  0.89890746  0.02078994  0.45585886  1
  Sb  Sb11  1  0.10802552  0.03031915  0.55053205  1
  Sb  Sb12  1  0.03550719  0.49997922  0.81047670  1
  Sb  Sb13  1  0.96508131  0.51276355  0.18981360  1
  Sb  Sb14  1  0.39009051  0.50380637  0.45611501  1
  Sb  Sb15  1  0.61298266  0.48275428  0.56686270  1
  Sb  Sb16  1  0.53757419  0.03450658  0.81956031  1
  Sb  Sb17  1  0.46030402  0.99411757  0.19048800  1
  S  S18  1  0.93372381  0.00313557  0.79644858  1
  S  S19  1  0.06529876  0.01736614  0.21701335  1
  S  S20  1  0.41032078  0.02083157  0.98714945  1
  S  S21  1  0.58103498  0.02135908  0.01428166  1
  S  S22  1  0.17921563  0.01335259  0.91633161  1
  S  S23  1  0.82653469  0.00152115  0.10639164  1
  S  S24  1  0.08796708  0.55541497  0.64825979  1
  S  S25  1  0.91592253  0.48407239  0.35439654  1
  S  S26  1  0.74725888  0.98930997  0.30794173  1
  S  S27  1  0.26820759  0.97853803  0.70108059  1
  S  S28  1  0.17058972  0.45507096  0.44555580  1
  S  S29  1  0.81884751  0.49646768  0.54320352  1
  S  S30  1  0.43094925  0.52132346  0.79103200  1
  S  S31  1  0.55632211  0.52006869  0.18525967  1
  S  S32  1  0.91446224  0.46485321  0.98644903  1
  S  S33  1  0.07553017  0.45526791  0.00833916  1
  S  S34  1  0.67070362  0.50799826  0.90261524  1
  S  S35  1  0.34035672  0.50350380  0.11226111  1
  S  S36  1  0.58762899  0.01799438  0.64908361  1
  S  S37  1  0.41386384  0.04083945  0.36189798  1
  S  S38  1  0.24900229  0.49995628  0.29821392  1
  S  S39  1  0.76536597  0.48766939  0.70108331  1
  S  S40  1  0.66494811  0.01167276  0.43656430  1
  S  S41  1  0.33463456  0.02450567  0.55093480  1
