# generated using pymatgen
data_Pr2Mn3(SbS3)4
_symmetry_space_group_name_H-M   'P 1'
_cell_length_a   20.02960800
_cell_length_b   3.90410600
_cell_length_c   14.95364829
_cell_angle_alpha   90.00000000
_cell_angle_beta   126.33350609
_cell_angle_gamma   90.00000000
_symmetry_Int_Tables_number   1
_chemical_formula_structural   Pr2Mn3(SbS3)4
_chemical_formula_sum   'Pr4 Mn6 Sb8 S24'
_cell_volume   942.00006694
_cell_formula_units_Z   2
loop_
 _symmetry_equiv_pos_site_id
 _symmetry_equiv_pos_as_xyz
  1  'x, y, z'
loop_
 _atom_site_type_symbol
 _atom_site_label
 _atom_site_symmetry_multiplicity
 _atom_site_fract_x
 _atom_site_fract_y
 _atom_site_fract_z
 _atom_site_occupancy
  Pr  Pr0  1  0.25891670  0.52146734  0.86253945  1
  Pr  Pr1  1  0.73284946  0.48977080  0.13254933  1
  Pr  Pr2  1  0.76353832  0.98394207  0.86688895  1
  Pr  Pr3  1  0.24418618  0.99220332  0.14882143  1
  Mn  Mn4  1  0.29388211  0.54925216  0.61704491  1
  Mn  Mn5  1  0.69215849  0.49565035  0.37697908  1
  Mn  Mn6  1  0.99329869  0.98886524  0.98542535  1
  Mn  Mn7  1  0.80270325  0.99813599  0.60650922  1
  Mn  Mn8  1  0.19770065  0.95532752  0.39154306  1
  Mn  Mn9  1  0.50494966  0.51142742  0.00990755  1
  Sb  Sb10  1  0.89899597  0.02081581  0.45589729  1
  Sb  Sb11  1  0.10786006  0.02975910  0.55025863  1
  Sb  Sb12  1  0.03556234  0.49880149  0.81039828  1
  Sb  Sb13  1  0.96500301  0.51249996  0.18963237  1
  Sb  Sb14  1  0.39001246  0.50368392  0.45582221  1
  Sb  Sb15  1  0.61303118  0.48299186  0.56694002  1
  Sb  Sb16  1  0.53765833  0.03556729  0.81963146  1
  Sb  Sb17  1  0.46029491  0.99429918  0.19068322  1
  S  S18  1  0.93383757  0.00199636  0.79628815  1
  S  S19  1  0.06541964  0.01749767  0.21759668  1
  S  S20  1  0.41013609  0.01998381  0.98696933  1
  S  S21  1  0.58083191  0.02200290  0.01420260  1
  S  S22  1  0.17890672  0.01282381  0.91569720  1
  S  S23  1  0.82665957  0.00126103  0.10668752  1
  S  S24  1  0.08813002  0.55492746  0.64825057  1
  S  S25  1  0.91564938  0.48454827  0.35386183  1
  S  S26  1  0.74698101  0.98943107  0.30792656  1
  S  S27  1  0.26833579  0.98004601  0.70121612  1
  S  S28  1  0.17044554  0.45518920  0.44579391  1
  S  S29  1  0.81879757  0.49517437  0.54306263  1
  S  S30  1  0.43086830  0.52145820  0.79136197  1
  S  S31  1  0.55613708  0.52007697  0.18498790  1
  S  S32  1  0.91447964  0.46491195  0.98603676  1
  S  S33  1  0.07562635  0.45326213  0.00775654  1
  S  S34  1  0.67078087  0.50916025  0.90251482  1
  S  S35  1  0.34053331  0.50436920  0.11227100  1
  S  S36  1  0.58790881  0.01722713  0.64901288  1
  S  S37  1  0.41362819  0.04172191  0.36186016  1
  S  S38  1  0.24891494  0.50099950  0.29839190  1
  S  S39  1  0.76545897  0.48728670  0.70147206  1
  S  S40  1  0.66499373  0.01277031  0.43669025  1
  S  S41  1  0.33423632  0.02492378  0.55066328  1
