# generated using pymatgen
data_Pr2Mn3(SbS3)4
_symmetry_space_group_name_H-M   'P 1'
_cell_length_a   20.02960800
_cell_length_b   3.90410600
_cell_length_c   14.95364829
_cell_angle_alpha   90.00000000
_cell_angle_beta   126.33350609
_cell_angle_gamma   90.00000000
_symmetry_Int_Tables_number   1
_chemical_formula_structural   Pr2Mn3(SbS3)4
_chemical_formula_sum   'Pr4 Mn6 Sb8 S24'
_cell_volume   942.00006694
_cell_formula_units_Z   2
loop_
 _symmetry_equiv_pos_site_id
 _symmetry_equiv_pos_as_xyz
  1  'x, y, z'
loop_
 _atom_site_type_symbol
 _atom_site_label
 _atom_site_symmetry_multiplicity
 _atom_site_fract_x
 _atom_site_fract_y
 _atom_site_fract_z
 _atom_site_occupancy
  Pr  Pr0  1  0.25904958  0.52202409  0.86275238  1
  Pr  Pr1  1  0.73294729  0.49042223  0.13255802  1
  Pr  Pr2  1  0.76359979  0.98404787  0.86703014  1
  Pr  Pr3  1  0.24409029  0.99122812  0.14879696  1
  Mn  Mn4  1  0.29392614  0.55003456  0.61665405  1
  Mn  Mn5  1  0.69195469  0.49676137  0.37698444  1
  Mn  Mn6  1  0.99316266  0.98816876  0.98549753  1
  Mn  Mn7  1  0.80302824  0.99824685  0.60682697  1
  Mn  Mn8  1  0.19756412  0.95434792  0.39126941  1
  Mn  Mn9  1  0.50477435  0.51173791  0.00958483  1
  Sb  Sb10  1  0.89914941  0.02053646  0.45601513  1
  Sb  Sb11  1  0.10769376  0.02928740  0.55001786  1
  Sb  Sb12  1  0.03560111  0.49771292  0.81033731  1
  Sb  Sb13  1  0.96489729  0.51208997  0.18940930  1
  Sb  Sb14  1  0.38989943  0.50343961  0.45546951  1
  Sb  Sb15  1  0.61302308  0.48329193  0.56707091  1
  Sb  Sb16  1  0.53770525  0.03656571  0.81965633  1
  Sb  Sb17  1  0.46037764  0.99445059  0.19102271  1
  S  S18  1  0.93409434  0.00059493  0.79631780  1
  S  S19  1  0.06541750  0.01814818  0.21796499  1
  S  S20  1  0.40993449  0.01916299  0.98678054  1
  S  S21  1  0.58048887  0.02286601  0.01386708  1
  S  S22  1  0.17863671  0.01274184  0.91506445  1
  S  S23  1  0.82685749  0.00056462  0.10691424  1
  S  S24  1  0.08826207  0.55382552  0.64808547  1
  S  S25  1  0.91546628  0.48453407  0.35346875  1
  S  S26  1  0.74667353  0.98927555  0.30778909  1
  S  S27  1  0.26841528  0.98096906  0.70155148  1
  S  S28  1  0.17014105  0.45475198  0.44596376  1
  S  S29  1  0.81886876  0.49370515  0.54293548  1
  S  S30  1  0.43074391  0.52145396  0.79168097  1
  S  S31  1  0.55609928  0.52010848  0.18490173  1
  S  S32  1  0.91443643  0.46542647  0.98571298  1
  S  S33  1  0.07560561  0.45182625  0.00721113  1
  S  S34  1  0.67085187  0.50968445  0.90263581  1
  S  S35  1  0.34061823  0.50529986  0.11212510  1
  S  S36  1  0.58824768  0.01606030  0.64909295  1
  S  S37  1  0.41354193  0.04278014  0.36195546  1
  S  S38  1  0.24894178  0.50247298  0.29859363  1
  S  S39  1  0.76525105  0.48686653  0.70164959  1
  S  S40  1  0.66507741  0.01345966  0.43689412  1
  S  S41  1  0.33404194  0.02581621  0.55054951  1
