# generated using pymatgen
data_Pr2Mn3(SbS3)4
_symmetry_space_group_name_H-M   'P 1'
_cell_length_a   20.02960800
_cell_length_b   3.90410600
_cell_length_c   14.95364829
_cell_angle_alpha   90.00000000
_cell_angle_beta   126.33350609
_cell_angle_gamma   90.00000000
_symmetry_Int_Tables_number   1
_chemical_formula_structural   Pr2Mn3(SbS3)4
_chemical_formula_sum   'Pr4 Mn6 Sb8 S24'
_cell_volume   942.00006694
_cell_formula_units_Z   2
loop_
 _symmetry_equiv_pos_site_id
 _symmetry_equiv_pos_as_xyz
  1  'x, y, z'
loop_
 _atom_site_type_symbol
 _atom_site_label
 _atom_site_symmetry_multiplicity
 _atom_site_fract_x
 _atom_site_fract_y
 _atom_site_fract_z
 _atom_site_occupancy
  Pr  Pr0  1  0.25916627  0.52229069  0.86301727  1
  Pr  Pr1  1  0.73302450  0.49115577  0.13253158  1
  Pr  Pr2  1  0.76370209  0.98385089  0.86720022  1
  Pr  Pr3  1  0.24400675  0.99008140  0.14882431  1
  Mn  Mn4  1  0.29401397  0.55060105  0.61641160  1
  Mn  Mn5  1  0.69172119  0.49809544  0.37688894  1
  Mn  Mn6  1  0.99308506  0.98760297  0.98567197  1
  Mn  Mn7  1  0.80335365  0.99848972  0.60724569  1
  Mn  Mn8  1  0.19745012  0.95328100  0.39109261  1
  Mn  Mn9  1  0.50468780  0.51267481  0.00922976  1
  Sb  Sb10  1  0.89911828  0.02032513  0.45603017  1
  Sb  Sb11  1  0.10750866  0.02869307  0.54978224  1
  Sb  Sb12  1  0.03564097  0.49643073  0.81019201  1
  Sb  Sb13  1  0.96476069  0.51193779  0.18914790  1
  Sb  Sb14  1  0.38978860  0.50343994  0.45518240  1
  Sb  Sb15  1  0.61300568  0.48370631  0.56712447  1
  Sb  Sb16  1  0.53775665  0.03717448  0.81961974  1
  Sb  Sb17  1  0.46050489  0.99443213  0.19141728  1
  S  S18  1  0.93428989  0.99917421  0.79639321  1
  S  S19  1  0.06540628  0.01863398  0.21818665  1
  S  S20  1  0.40986010  0.01882521  0.98655082  1
  S  S21  1  0.58030946  0.02328143  0.01387611  1
  S  S22  1  0.17833540  0.01204508  0.91434886  1
  S  S23  1  0.82704357  0.00005386  0.10721197  1
  S  S24  1  0.08851513  0.55310669  0.64800465  1
  S  S25  1  0.91532027  0.48425117  0.35314537  1
  S  S26  1  0.74634229  0.98949201  0.30755155  1
  S  S27  1  0.26848002  0.98173746  0.70193805  1
  S  S28  1  0.16991473  0.45405697  0.44621824  1
  S  S29  1  0.81900791  0.49263568  0.54281660  1
  S  S30  1  0.43070517  0.52137033  0.79197744  1
  S  S31  1  0.55605937  0.51967097  0.18478617  1
  S  S32  1  0.91439817  0.46569477  0.98556223  1
  S  S33  1  0.07563803  0.45012366  0.00690178  1
  S  S34  1  0.67085862  0.50987784  0.90254262  1
  S  S35  1  0.34078957  0.50709181  0.11212197  1
  S  S36  1  0.58859917  0.01469274  0.64934841  1
  S  S37  1  0.41351608  0.04423545  0.36207646  1
  S  S38  1  0.24901761  0.50375085  0.29887425  1
  S  S39  1  0.76503554  0.48619421  0.70179377  1
  S  S40  1  0.66514970  0.01353977  0.43693746  1
  S  S41  1  0.33370542  0.02683187  0.55030999  1
