# generated using pymatgen
data_Pr2Mn3(SbS3)4
_symmetry_space_group_name_H-M   'P 1'
_cell_length_a   20.02960800
_cell_length_b   3.90410600
_cell_length_c   14.95364829
_cell_angle_alpha   90.00000000
_cell_angle_beta   126.33350609
_cell_angle_gamma   90.00000000
_symmetry_Int_Tables_number   1
_chemical_formula_structural   Pr2Mn3(SbS3)4
_chemical_formula_sum   'Pr4 Mn6 Sb8 S24'
_cell_volume   942.00006694
_cell_formula_units_Z   2
loop_
 _symmetry_equiv_pos_site_id
 _symmetry_equiv_pos_as_xyz
  1  'x, y, z'
loop_
 _atom_site_type_symbol
 _atom_site_label
 _atom_site_symmetry_multiplicity
 _atom_site_fract_x
 _atom_site_fract_y
 _atom_site_fract_z
 _atom_site_occupancy
  Pr  Pr0  1  0.25921270  0.52225472  0.86319993  1
  Pr  Pr1  1  0.73312612  0.49181875  0.13257002  1
  Pr  Pr2  1  0.76382431  0.98341205  0.86737338  1
  Pr  Pr3  1  0.24399089  0.98900053  0.14894185  1
  Mn  Mn4  1  0.29407138  0.55139476  0.61620899  1
  Mn  Mn5  1  0.69139337  0.49933845  0.37663187  1
  Mn  Mn6  1  0.99308927  0.98713933  0.98591702  1
  Mn  Mn7  1  0.80366363  0.99805842  0.60753970  1
  Mn  Mn8  1  0.19727686  0.95224026  0.39087371  1
  Mn  Mn9  1  0.50457123  0.51361676  0.00887754  1
  Sb  Sb10  1  0.89910865  0.02043797  0.45606545  1
  Sb  Sb11  1  0.10723547  0.02843441  0.54948924  1
  Sb  Sb12  1  0.03566016  0.49525987  0.81007613  1
  Sb  Sb13  1  0.96466876  0.51176148  0.18896450  1
  Sb  Sb14  1  0.38963518  0.50352047  0.45478859  1
  Sb  Sb15  1  0.61311116  0.48420727  0.56723758  1
  Sb  Sb16  1  0.53777306  0.03759729  0.81957426  1
  Sb  Sb17  1  0.46056931  0.99444927  0.19171394  1
  S  S18  1  0.93466957  0.99804246  0.79653813  1
  S  S19  1  0.06532733  0.01854573  0.21837791  1
  S  S20  1  0.40969842  0.01859277  0.98621614  1
  S  S21  1  0.58019239  0.02344530  0.01376417  1
  S  S22  1  0.17801614  0.01171879  0.91367839  1
  S  S23  1  0.82728445  0.99964540  0.10749885  1
  S  S24  1  0.08874520  0.55256165  0.64805619  1
  S  S25  1  0.91516562  0.48406683  0.35295432  1
  S  S26  1  0.74602889  0.99025736  0.30736725  1
  S  S27  1  0.26847194  0.98232488  0.70242314  1
  S  S28  1  0.16975847  0.45296849  0.44641339  1
  S  S29  1  0.81933226  0.49121793  0.54298397  1
  S  S30  1  0.43047673  0.52192631  0.79204817  1
  S  S31  1  0.55591547  0.51871626  0.18469958  1
  S  S32  1  0.91439898  0.46602764  0.98552086  1
  S  S33  1  0.07572939  0.44844623  0.00670805  1
  S  S34  1  0.67091577  0.51021845  0.90243384  1
  S  S35  1  0.34113771  0.50862992  0.11219608  1
  S  S36  1  0.58899576  0.01313236  0.64969861  1
  S  S37  1  0.41328904  0.04530139  0.36200169  1
  S  S38  1  0.24908461  0.50560226  0.29900897  1
  S  S39  1  0.76479476  0.48568626  0.70188365  1
  S  S40  1  0.66511147  0.01396478  0.43687112  1
  S  S41  1  0.33348534  0.02824050  0.55016426  1
