# generated using pymatgen
data_Pr2Mn3(SbS3)4
_symmetry_space_group_name_H-M   'P 1'
_cell_length_a   20.02960800
_cell_length_b   3.90410600
_cell_length_c   14.95364829
_cell_angle_alpha   90.00000000
_cell_angle_beta   126.33350609
_cell_angle_gamma   90.00000000
_symmetry_Int_Tables_number   1
_chemical_formula_structural   Pr2Mn3(SbS3)4
_chemical_formula_sum   'Pr4 Mn6 Sb8 S24'
_cell_volume   942.00006694
_cell_formula_units_Z   2
loop_
 _symmetry_equiv_pos_site_id
 _symmetry_equiv_pos_as_xyz
  1  'x, y, z'
loop_
 _atom_site_type_symbol
 _atom_site_label
 _atom_site_symmetry_multiplicity
 _atom_site_fract_x
 _atom_site_fract_y
 _atom_site_fract_z
 _atom_site_occupancy
  Pr  Pr0  1  0.25929309  0.52220974  0.86337707  1
  Pr  Pr1  1  0.73316364  0.49237573  0.13259520  1
  Pr  Pr2  1  0.76384826  0.98289706  0.86743360  1
  Pr  Pr3  1  0.24394853  0.98809605  0.14904353  1
  Mn  Mn4  1  0.29406945  0.55177495  0.61595263  1
  Mn  Mn5  1  0.69107972  0.50024934  0.37657833  1
  Mn  Mn6  1  0.99313397  0.98707532  0.98612175  1
  Mn  Mn7  1  0.80406665  0.99802689  0.60797400  1
  Mn  Mn8  1  0.19705721  0.95125281  0.39068097  1
  Mn  Mn9  1  0.50449564  0.51457757  0.00854586  1
  Sb  Sb10  1  0.89905105  0.02042164  0.45611753  1
  Sb  Sb11  1  0.10701193  0.02830368  0.54916312  1
  Sb  Sb12  1  0.03564938  0.49409642  0.80993758  1
  Sb  Sb13  1  0.96453861  0.51182113  0.18874136  1
  Sb  Sb14  1  0.38943333  0.50364231  0.45432265  1
  Sb  Sb15  1  0.61309641  0.48458419  0.56726480  1
  Sb  Sb16  1  0.53773357  0.03799643  0.81952490  1
  Sb  Sb17  1  0.46062718  0.99469726  0.19204241  1
  S  S18  1  0.93487060  0.99779277  0.79653769  1
  S  S19  1  0.06515493  0.01864214  0.21852722  1
  S  S20  1  0.40944238  0.01764611  0.98578908  1
  S  S21  1  0.58011930  0.02370388  0.01344160  1
  S  S22  1  0.17768460  0.01225860  0.91309439  1
  S  S23  1  0.82762304  0.99980533  0.10788604  1
  S  S24  1  0.08908337  0.55207431  0.64844654  1
  S  S25  1  0.91496313  0.48392891  0.35269988  1
  S  S26  1  0.74564202  0.99102582  0.30724359  1
  S  S27  1  0.26836970  0.98321217  0.70287962  1
  S  S28  1  0.16955428  0.45194389  0.44658116  1
  S  S29  1  0.81960543  0.48980627  0.54313879  1
  S  S30  1  0.43026656  0.52296678  0.79199139  1
  S  S31  1  0.55586340  0.51768954  0.18466976  1
  S  S32  1  0.91451401  0.46657097  0.98562747  1
  S  S33  1  0.07590207  0.44711703  0.00654093  1
  S  S34  1  0.67119048  0.51030565  0.90237821  1
  S  S35  1  0.34162892  0.50955918  0.11222635  1
  S  S36  1  0.58940014  0.01179368  0.65019679  1
  S  S37  1  0.41305865  0.04649924  0.36194560  1
  S  S38  1  0.24913234  0.50669717  0.29913224  1
  S  S39  1  0.76460929  0.48550952  0.70204990  1
  S  S40  1  0.66505313  0.01448419  0.43693091  1
  S  S41  1  0.33319537  0.02841542  0.54980778  1
