# generated using pymatgen
data_Pr2Mn3(SbS3)4
_symmetry_space_group_name_H-M   'P 1'
_cell_length_a   20.02960800
_cell_length_b   3.90410600
_cell_length_c   14.95364829
_cell_angle_alpha   90.00000000
_cell_angle_beta   126.33350609
_cell_angle_gamma   90.00000000
_symmetry_Int_Tables_number   1
_chemical_formula_structural   Pr2Mn3(SbS3)4
_chemical_formula_sum   'Pr4 Mn6 Sb8 S24'
_cell_volume   942.00006694
_cell_formula_units_Z   2
loop_
 _symmetry_equiv_pos_site_id
 _symmetry_equiv_pos_as_xyz
  1  'x, y, z'
loop_
 _atom_site_type_symbol
 _atom_site_label
 _atom_site_symmetry_multiplicity
 _atom_site_fract_x
 _atom_site_fract_y
 _atom_site_fract_z
 _atom_site_occupancy
  Pr  Pr0  1  0.25939795  0.52252948  0.86353132  1
  Pr  Pr1  1  0.73314931  0.49268066  0.13257347  1
  Pr  Pr2  1  0.76385678  0.98228397  0.86757139  1
  Pr  Pr3  1  0.24390977  0.98738666  0.14912255  1
  Mn  Mn4  1  0.29400963  0.55156896  0.61562873  1
  Mn  Mn5  1  0.69075730  0.50149293  0.37645978  1
  Mn  Mn6  1  0.99319945  0.98740614  0.98632292  1
  Mn  Mn7  1  0.80449579  0.99722412  0.60833580  1
  Mn  Mn8  1  0.19680449  0.95013737  0.39048560  1
  Mn  Mn9  1  0.50442286  0.51530554  0.00832472  1
  Sb  Sb10  1  0.89905225  0.02041146  0.45617658  1
  Sb  Sb11  1  0.10689241  0.02807639  0.54894162  1
  Sb  Sb12  1  0.03560975  0.49309012  0.80976576  1
  Sb  Sb13  1  0.96439793  0.51155035  0.18854197  1
  Sb  Sb14  1  0.38935804  0.50405286  0.45394390  1
  Sb  Sb15  1  0.61301025  0.48512177  0.56719876  1
  Sb  Sb16  1  0.53776274  0.03855041  0.81960468  1
  Sb  Sb17  1  0.46069143  0.99528978  0.19238770  1
  S  S18  1  0.93507428  0.99737183  0.79662091  1
  S  S19  1  0.06499969  0.01888031  0.21862154  1
  S  S20  1  0.40911763  0.01703263  0.98547428  1
  S  S21  1  0.58007562  0.02335878  0.01314627  1
  S  S22  1  0.17735283  0.01259697  0.91262743  1
  S  S23  1  0.82794912  0.99957447  0.10847289  1
  S  S24  1  0.08918707  0.55169220  0.64864101  1
  S  S25  1  0.91474599  0.48329034  0.35229051  1
  S  S26  1  0.74518940  0.99202143  0.30712439  1
  S  S27  1  0.26833122  0.98402696  0.70309383  1
  S  S28  1  0.16915601  0.45099712  0.44662394  1
  S  S29  1  0.81982774  0.48893868  0.54333793  1
  S  S30  1  0.43010581  0.52418925  0.79174170  1
  S  S31  1  0.55569523  0.51670858  0.18471565  1
  S  S32  1  0.91471172  0.46723771  0.98584043  1
  S  S33  1  0.07602083  0.44490812  0.00631397  1
  S  S34  1  0.67134575  0.51106102  0.90215845  1
  S  S35  1  0.34191108  0.51068060  0.11216497  1
  S  S36  1  0.58985716  0.01068546  0.65062491  1
  S  S37  1  0.41296508  0.04770415  0.36181504  1
  S  S38  1  0.24920657  0.50819574  0.29924044  1
  S  S39  1  0.76435709  0.48542003  0.70204596  1
  S  S40  1  0.66497376  0.01478596  0.43682357  1
  S  S41  1  0.33301605  0.02790280  0.54944197  1
