# generated using pymatgen
data_Pr2Mn3(SbS3)4
_symmetry_space_group_name_H-M   'P 1'
_cell_length_a   20.02960800
_cell_length_b   3.90410600
_cell_length_c   14.95364829
_cell_angle_alpha   90.00000000
_cell_angle_beta   126.33350609
_cell_angle_gamma   90.00000000
_symmetry_Int_Tables_number   1
_chemical_formula_structural   Pr2Mn3(SbS3)4
_chemical_formula_sum   'Pr4 Mn6 Sb8 S24'
_cell_volume   942.00006694
_cell_formula_units_Z   2
loop_
 _symmetry_equiv_pos_site_id
 _symmetry_equiv_pos_as_xyz
  1  'x, y, z'
loop_
 _atom_site_type_symbol
 _atom_site_label
 _atom_site_symmetry_multiplicity
 _atom_site_fract_x
 _atom_site_fract_y
 _atom_site_fract_z
 _atom_site_occupancy
  Pr  Pr0  1  0.25951556  0.52296458  0.86370858  1
  Pr  Pr1  1  0.73323264  0.49276606  0.13263927  1
  Pr  Pr2  1  0.76385284  0.98145023  0.86772467  1
  Pr  Pr3  1  0.24386196  0.98679589  0.14912076  1
  Mn  Mn4  1  0.29387630  0.55111578  0.61516348  1
  Mn  Mn5  1  0.69045964  0.50275619  0.37634476  1
  Mn  Mn6  1  0.99318022  0.98735792  0.98640259  1
  Mn  Mn7  1  0.80484751  0.99648329  0.60846365  1
  Mn  Mn8  1  0.19668720  0.94919957  0.39042629  1
  Mn  Mn9  1  0.50443038  0.51558136  0.00813027  1
  Sb  Sb10  1  0.89903550  0.02041786  0.45617848  1
  Sb  Sb11  1  0.10677509  0.02774240  0.54857108  1
  Sb  Sb12  1  0.03569871  0.49229082  0.80979731  1
  Sb  Sb13  1  0.96426936  0.51171918  0.18844089  1
  Sb  Sb14  1  0.38932149  0.50393114  0.45361555  1
  Sb  Sb15  1  0.61289223  0.48551081  0.56714839  1
  Sb  Sb16  1  0.53773613  0.03889753  0.81964465  1
  Sb  Sb17  1  0.46074319  0.99587130  0.19266824  1
  S  S18  1  0.93514784  0.99708491  0.79667834  1
  S  S19  1  0.06479463  0.01902019  0.21868681  1
  S  S20  1  0.40867745  0.01659893  0.98514069  1
  S  S21  1  0.58019049  0.02267816  0.01288239  1
  S  S22  1  0.17703669  0.01288458  0.91206846  1
  S  S23  1  0.82815765  0.99863438  0.10898502  1
  S  S24  1  0.08918014  0.55097419  0.64879096  1
  S  S25  1  0.91447127  0.48294067  0.35180764  1
  S  S26  1  0.74466261  0.99357173  0.30703983  1
  S  S27  1  0.26827044  0.98529466  0.70311751  1
  S  S28  1  0.16886454  0.44972133  0.44666611  1
  S  S29  1  0.82004236  0.48811504  0.54354351  1
  S  S30  1  0.43000715  0.52600990  0.79164321  1
  S  S31  1  0.55552953  0.51572847  0.18467501  1
  S  S32  1  0.91486283  0.46743076  0.98595521  1
  S  S33  1  0.07595764  0.44239027  0.00580634  1
  S  S34  1  0.67149899  0.51195398  0.90189693  1
  S  S35  1  0.34226434  0.51186789  0.11214969  1
  S  S36  1  0.59018520  0.00991031  0.65096536  1
  S  S37  1  0.41272319  0.04824136  0.36162358  1
  S  S38  1  0.24928103  0.50923259  0.29927557  1
  S  S39  1  0.76414786  0.48541812  0.70202786  1
  S  S40  1  0.66479744  0.01487680  0.43668123  1
  S  S41  1  0.33264519  0.02733613  0.54888165  1
