# generated using pymatgen
data_Pr2Mn3(SbS3)4
_symmetry_space_group_name_H-M   'P 1'
_cell_length_a   20.02960800
_cell_length_b   3.90410600
_cell_length_c   14.95364829
_cell_angle_alpha   90.00000000
_cell_angle_beta   126.33350609
_cell_angle_gamma   90.00000000
_symmetry_Int_Tables_number   1
_chemical_formula_structural   Pr2Mn3(SbS3)4
_chemical_formula_sum   'Pr4 Mn6 Sb8 S24'
_cell_volume   942.00006694
_cell_formula_units_Z   2
loop_
 _symmetry_equiv_pos_site_id
 _symmetry_equiv_pos_as_xyz
  1  'x, y, z'
loop_
 _atom_site_type_symbol
 _atom_site_label
 _atom_site_symmetry_multiplicity
 _atom_site_fract_x
 _atom_site_fract_y
 _atom_site_fract_z
 _atom_site_occupancy
  Pr  Pr0  1  0.25956761  0.52324369  0.86381958  1
  Pr  Pr1  1  0.73329872  0.49251615  0.13263058  1
  Pr  Pr2  1  0.76388630  0.98055461  0.86775150  1
  Pr  Pr3  1  0.24382474  0.98616947  0.14919283  1
  Mn  Mn4  1  0.29368001  0.55034122  0.61465229  1
  Mn  Mn5  1  0.69019154  0.50371790  0.37628337  1
  Mn  Mn6  1  0.99320343  0.98713073  0.98648217  1
  Mn  Mn7  1  0.80512044  0.99577733  0.60848645  1
  Mn  Mn8  1  0.19658229  0.94874987  0.39036643  1
  Mn  Mn9  1  0.50450329  0.51579086  0.00801075  1
  Sb  Sb10  1  0.89893603  0.02064692  0.45611539  1
  Sb  Sb11  1  0.10667977  0.02771003  0.54829567  1
  Sb  Sb12  1  0.03573673  0.49118771  0.80971706  1
  Sb  Sb13  1  0.96425642  0.51165475  0.18829885  1
  Sb  Sb14  1  0.38931092  0.50368951  0.45329632  1
  Sb  Sb15  1  0.61285790  0.48580773  0.56708667  1
  Sb  Sb16  1  0.53766463  0.03929591  0.81961546  1
  Sb  Sb17  1  0.46079553  0.99594831  0.19285445  1
  S  S18  1  0.93517707  0.99745883  0.79671794  1
  S  S19  1  0.06451530  0.01919069  0.21871744  1
  S  S20  1  0.40831866  0.01557369  0.98511198  1
  S  S21  1  0.58040111  0.02228408  0.01277751  1
  S  S22  1  0.17658450  0.01342082  0.91143592  1
  S  S23  1  0.82830029  0.99708622  0.10947287  1
  S  S24  1  0.08918067  0.54965479  0.64895037  1
  S  S25  1  0.91410413  0.48291577  0.35131263  1
  S  S26  1  0.74415690  0.99417964  0.30685316  1
  S  S27  1  0.26820511  0.98624130  0.70318955  1
  S  S28  1  0.16850908  0.44862828  0.44664859  1
  S  S29  1  0.82029340  0.48749449  0.54371169  1
  S  S30  1  0.42974573  0.52795345  0.79129691  1
  S  S31  1  0.55526268  0.51448590  0.18444680  1
  S  S32  1  0.91496732  0.46696205  0.98614472  1
  S  S33  1  0.07591776  0.44083003  0.00532560  1
  S  S34  1  0.67161334  0.51270553  0.90162312  1
  S  S35  1  0.34261004  0.51274245  0.11215307  1
  S  S36  1  0.59046972  0.00929066  0.65126888  1
  S  S37  1  0.41237812  0.04798412  0.36135722  1
  S  S38  1  0.24939362  0.51086259  0.29912059  1
  S  S39  1  0.76370440  0.48489476  0.70177304  1
  S  S40  1  0.66459033  0.01551673  0.43642942  1
  S  S41  1  0.33223024  0.02747736  0.54819573  1
