# generated using pymatgen
data_Pr2Mn3(SbS3)4
_symmetry_space_group_name_H-M   'P 1'
_cell_length_a   20.02960800
_cell_length_b   3.90410600
_cell_length_c   14.95364829
_cell_angle_alpha   90.00000000
_cell_angle_beta   126.33350609
_cell_angle_gamma   90.00000000
_symmetry_Int_Tables_number   1
_chemical_formula_structural   Pr2Mn3(SbS3)4
_chemical_formula_sum   'Pr4 Mn6 Sb8 S24'
_cell_volume   942.00006694
_cell_formula_units_Z   2
loop_
 _symmetry_equiv_pos_site_id
 _symmetry_equiv_pos_as_xyz
  1  'x, y, z'
loop_
 _atom_site_type_symbol
 _atom_site_label
 _atom_site_symmetry_multiplicity
 _atom_site_fract_x
 _atom_site_fract_y
 _atom_site_fract_z
 _atom_site_occupancy
  Pr  Pr0  1  0.25960677  0.52362045  0.86388665  1
  Pr  Pr1  1  0.73340128  0.49226032  0.13268431  1
  Pr  Pr2  1  0.76385659  0.98005668  0.86770473  1
  Pr  Pr3  1  0.24386896  0.98570254  0.14934543  1
  Mn  Mn4  1  0.29350837  0.54972846  0.61409801  1
  Mn  Mn5  1  0.68993065  0.50474214  0.37616330  1
  Mn  Mn6  1  0.99321707  0.98673304  0.98652883  1
  Mn  Mn7  1  0.80527989  0.99541887  0.60831490  1
  Mn  Mn8  1  0.19661053  0.94866374  0.39038410  1
  Mn  Mn9  1  0.50460972  0.51641569  0.00782277  1
  Sb  Sb10  1  0.89888102  0.02018876  0.45610303  1
  Sb  Sb11  1  0.10659629  0.02794552  0.54809711  1
  Sb  Sb12  1  0.03572751  0.48998051  0.80970904  1
  Sb  Sb13  1  0.96424698  0.51177500  0.18824699  1
  Sb  Sb14  1  0.38928292  0.50334951  0.45296688  1
  Sb  Sb15  1  0.61272698  0.48598659  0.56695098  1
  Sb  Sb16  1  0.53760919  0.03953936  0.81955691  1
  Sb  Sb17  1  0.46084248  0.99591251  0.19303318  1
  S  S18  1  0.93514153  0.99821268  0.79652617  1
  S  S19  1  0.06427005  0.02004095  0.21862461  1
  S  S20  1  0.40792961  0.01401256  0.98500907  1
  S  S21  1  0.58063299  0.02194740  0.01272196  1
  S  S22  1  0.17616914  0.01370234  0.91093389  1
  S  S23  1  0.82840938  0.99533027  0.11005901  1
  S  S24  1  0.08935171  0.54820445  0.64910736  1
  S  S25  1  0.91379797  0.48312568  0.35083752  1
  S  S26  1  0.74364469  0.99505189  0.30672248  1
  S  S27  1  0.26820340  0.98759980  0.70328869  1
  S  S28  1  0.16814773  0.44679711  0.44681337  1
  S  S29  1  0.82053436  0.48690115  0.54395797  1
  S  S30  1  0.42968616  0.52993755  0.79110543  1
  S  S31  1  0.55510783  0.51339232  0.18435622  1
  S  S32  1  0.91502582  0.46648978  0.98621849  1
  S  S33  1  0.07591391  0.43924588  0.00496027  1
  S  S34  1  0.67167255  0.51354645  0.90130723  1
  S  S35  1  0.34294276  0.51417391  0.11217507  1
  S  S36  1  0.59080745  0.00936520  0.65164952  1
  S  S37  1  0.41177756  0.04755198  0.36110500  1
  S  S38  1  0.24955046  0.51199660  0.29905410  1
  S  S39  1  0.76334294  0.48352460  0.70149957  1
  S  S40  1  0.66441763  0.01590083  0.43629764  1
  S  S41  1  0.33185203  0.02766056  0.54771436  1
