# generated using pymatgen
data_Pr2Mn3(SbS3)4
_symmetry_space_group_name_H-M   'P 1'
_cell_length_a   20.02960800
_cell_length_b   3.90410600
_cell_length_c   14.95364829
_cell_angle_alpha   90.00000000
_cell_angle_beta   126.33350609
_cell_angle_gamma   90.00000000
_symmetry_Int_Tables_number   1
_chemical_formula_structural   Pr2Mn3(SbS3)4
_chemical_formula_sum   'Pr4 Mn6 Sb8 S24'
_cell_volume   942.00006694
_cell_formula_units_Z   2
loop_
 _symmetry_equiv_pos_site_id
 _symmetry_equiv_pos_as_xyz
  1  'x, y, z'
loop_
 _atom_site_type_symbol
 _atom_site_label
 _atom_site_symmetry_multiplicity
 _atom_site_fract_x
 _atom_site_fract_y
 _atom_site_fract_z
 _atom_site_occupancy
  Pr  Pr0  1  0.26701320  0.49456384  0.86418229  1
  Pr  Pr1  1  0.73644086  0.51135631  0.13708972  1
  Pr  Pr2  1  0.76275097  0.01057281  0.86109743  1
  Pr  Pr3  1  0.23480520  0.00239199  0.13491670  1
  Mn  Mn4  1  0.28732898  0.48012104  0.59002256  1
  Mn  Mn5  1  0.68692681  0.48109341  0.36852637  1
  Mn  Mn6  1  0.00885421  0.98531334  0.02079272  1
  Mn  Mn7  1  0.80587261  0.00613955  0.61940710  1
  Mn  Mn8  1  0.19837804  0.97798264  0.37414332  1
  Mn  Mn9  1  0.49227187  0.47993414  0.99087605  1
  Sb  Sb10  1  0.88951345  0.98972669  0.45064195  1
  Sb  Sb11  1  0.11149327  0.97869384  0.54561141  1
  Sb  Sb12  1  0.03951332  0.52199556  0.82131717  1
  Sb  Sb13  1  0.96186359  0.49893292  0.18290490  1
  Sb  Sb14  1  0.39521559  0.50492709  0.45058019  1
  Sb  Sb15  1  0.60655095  0.47090965  0.54884369  1
  Sb  Sb16  1  0.53371050  0.99864624  0.80827561  1
  Sb  Sb17  1  0.46504339  0.01666248  0.18990873  1
  S  S18  1  0.93715702  0.00345167  0.80486062  1
  S  S19  1  0.06559889  0.97908705  0.20143782  1
  S  S20  1  0.41392866  0.96684393  0.98080660  1
  S  S21  1  0.57787364  0.02568773  0.00999489  1
  S  S22  1  0.17207672  0.03916242  0.90355913  1
  S  S23  1  0.82568706  0.05041361  0.09526980  1
  S  S24  1  0.09590930  0.48190316  0.64672035  1
  S  S25  1  0.91159036  0.49048658  0.35340588  1
  S  S26  1  0.73803908  0.94665533  0.30063472  1
  S  S27  1  0.26163909  0.00397916  0.70635757  1
  S  S28  1  0.16007854  0.49576691  0.42375538  1
  S  S29  1  0.82467182  0.48995836  0.55072064  1
  S  S30  1  0.43102522  0.49832194  0.79915820  1
  S  S31  1  0.55486416  0.52373112  0.18288929  1
  S  S32  1  0.91028113  0.48690571  0.98611273  1
  S  S33  1  0.09333501  0.48616304  0.03163086  1
  S  S34  1  0.66192223  0.51020541  0.88368305  1
  S  S35  1  0.33149548  0.50260993  0.10116546  1
  S  S36  1  0.59835932  0.98657190  0.65669064  1
  S  S37  1  0.40220592  0.99110489  0.34405814  1
  S  S38  1  0.23818510  0.46045211  0.30889821  1
  S  S39  1  0.76027214  0.49909482  0.69421779  1
  S  S40  1  0.66762427  0.03432659  0.45065308  1
  S  S41  1  0.32821055  0.98615528  0.55508924  1
