# generated using pymatgen
data_Pr2Mn3(SbS3)4
_symmetry_space_group_name_H-M   'P 1'
_cell_length_a   20.02960800
_cell_length_b   3.90410600
_cell_length_c   14.95364829
_cell_angle_alpha   90.00000000
_cell_angle_beta   126.33350609
_cell_angle_gamma   90.00000000
_symmetry_Int_Tables_number   1
_chemical_formula_structural   Pr2Mn3(SbS3)4
_chemical_formula_sum   'Pr4 Mn6 Sb8 S24'
_cell_volume   942.00006694
_cell_formula_units_Z   2
loop_
 _symmetry_equiv_pos_site_id
 _symmetry_equiv_pos_as_xyz
  1  'x, y, z'
loop_
 _atom_site_type_symbol
 _atom_site_label
 _atom_site_symmetry_multiplicity
 _atom_site_fract_x
 _atom_site_fract_y
 _atom_site_fract_z
 _atom_site_occupancy
  Pr  Pr0  1  0.25966231  0.52425677  0.86399136  1
  Pr  Pr1  1  0.73355757  0.49221448  0.13279307  1
  Pr  Pr2  1  0.76385922  0.97959515  0.86772511  1
  Pr  Pr3  1  0.24389779  0.98518827  0.14941884  1
  Mn  Mn4  1  0.29320900  0.54907125  0.61341231  1
  Mn  Mn5  1  0.68958866  0.50545080  0.37601175  1
  Mn  Mn6  1  0.99336056  0.98586468  0.98661554  1
  Mn  Mn7  1  0.80540510  0.99518735  0.60813642  1
  Mn  Mn8  1  0.19654440  0.94874327  0.39022699  1
  Mn  Mn9  1  0.50469667  0.51661506  0.00762074  1
  Sb  Sb10  1  0.89878164  0.02021075  0.45603835  1
  Sb  Sb11  1  0.10647524  0.02808913  0.54789045  1
  Sb  Sb12  1  0.03564616  0.48917452  0.80964639  1
  Sb  Sb13  1  0.96423412  0.51180555  0.18824130  1
  Sb  Sb14  1  0.38926710  0.50337786  0.45265460  1
  Sb  Sb15  1  0.61268959  0.48619528  0.56683664  1
  Sb  Sb16  1  0.53751773  0.03946042  0.81951455  1
  Sb  Sb17  1  0.46088229  0.99559911  0.19321250  1
  S  S18  1  0.93523710  0.99880310  0.79648962  1
  S  S19  1  0.06406850  0.02064662  0.21872125  1
  S  S20  1  0.40768193  0.01276173  0.98498238  1
  S  S21  1  0.58083831  0.02140712  0.01277091  1
  S  S22  1  0.17556641  0.01393605  0.91040362  1
  S  S23  1  0.82849077  0.99456611  0.11051027  1
  S  S24  1  0.08962794  0.54721248  0.64924643  1
  S  S25  1  0.91343311  0.48412677  0.35043902  1
  S  S26  1  0.74316323  0.99592038  0.30639097  1
  S  S27  1  0.26830231  0.98901845  0.70337128  1
  S  S28  1  0.16781992  0.44535569  0.44700720  1
  S  S29  1  0.82060871  0.48675925  0.54402335  1
  S  S30  1  0.42981015  0.53184151  0.79137833  1
  S  S31  1  0.55487269  0.51179529  0.18421560  1
  S  S32  1  0.91504642  0.46634746  0.98616979  1
  S  S33  1  0.07599479  0.43799689  0.00454870  1
  S  S34  1  0.67188523  0.51433494  0.90115831  1
  S  S35  1  0.34333160  0.51572264  0.11244012  1
  S  S36  1  0.59114880  0.00993520  0.65207097  1
  S  S37  1  0.41125387  0.04745116  0.36089687  1
  S  S38  1  0.24967846  0.51351867  0.29901777  1
  S  S39  1  0.76316102  0.48233948  0.70145772  1
  S  S40  1  0.66423152  0.01585267  0.43611655  1
  S  S41  1  0.33154388  0.02853491  0.54718804  1
