# generated using pymatgen
data_Pr2Mn3(SbS3)4
_symmetry_space_group_name_H-M   'P 1'
_cell_length_a   20.02960800
_cell_length_b   3.90410600
_cell_length_c   14.95364829
_cell_angle_alpha   90.00000000
_cell_angle_beta   126.33350609
_cell_angle_gamma   90.00000000
_symmetry_Int_Tables_number   1
_chemical_formula_structural   Pr2Mn3(SbS3)4
_chemical_formula_sum   'Pr4 Mn6 Sb8 S24'
_cell_volume   942.00006694
_cell_formula_units_Z   2
loop_
 _symmetry_equiv_pos_site_id
 _symmetry_equiv_pos_as_xyz
  1  'x, y, z'
loop_
 _atom_site_type_symbol
 _atom_site_label
 _atom_site_symmetry_multiplicity
 _atom_site_fract_x
 _atom_site_fract_y
 _atom_site_fract_z
 _atom_site_occupancy
  Pr  Pr0  1  0.25969196  0.52467883  0.86408737  1
  Pr  Pr1  1  0.73373207  0.49215190  0.13293652  1
  Pr  Pr2  1  0.76388800  0.97913452  0.86781968  1
  Pr  Pr3  1  0.24394174  0.98448579  0.14944550  1
  Mn  Mn4  1  0.29295863  0.54820036  0.61286602  1
  Mn  Mn5  1  0.68934653  0.50599505  0.37590453  1
  Mn  Mn6  1  0.99346143  0.98547043  0.98661917  1
  Mn  Mn7  1  0.80550156  0.99450220  0.60800099  1
  Mn  Mn8  1  0.19649733  0.94872513  0.39008382  1
  Mn  Mn9  1  0.50467109  0.51676895  0.00720850  1
  Sb  Sb10  1  0.89870731  0.02000794  0.45590497  1
  Sb  Sb11  1  0.10633633  0.02802438  0.54763572  1
  Sb  Sb12  1  0.03558392  0.48847574  0.80963195  1
  Sb  Sb13  1  0.96421155  0.51127087  0.18814221  1
  Sb  Sb14  1  0.38924840  0.50348631  0.45235253  1
  Sb  Sb15  1  0.61274583  0.48621791  0.56675399  1
  Sb  Sb16  1  0.53744931  0.03939941  0.81950376  1
  Sb  Sb17  1  0.46089621  0.99525321  0.19330638  1
  S  S18  1  0.93535823  0.99953215  0.79641266  1
  S  S19  1  0.06390546  0.02187609  0.21872685  1
  S  S20  1  0.40728296  0.01119652  0.98485264  1
  S  S21  1  0.58101654  0.02093591  0.01281098  1
  S  S22  1  0.17497476  0.01422661  0.90994588  1
  S  S23  1  0.82865185  0.99387146  0.11097778  1
  S  S24  1  0.08981533  0.54638783  0.64945083  1
  S  S25  1  0.91318572  0.48514583  0.35004119  1
  S  S26  1  0.74282306  0.99706200  0.30614369  1
  S  S27  1  0.26828257  0.98980674  0.70341454  1
  S  S28  1  0.16762340  0.44481666  0.44734122  1
  S  S29  1  0.82053328  0.48742527  0.54379849  1
  S  S30  1  0.43002126  0.53432650  0.79171095  1
  S  S31  1  0.55471778  0.50982447  0.18410820  1
  S  S32  1  0.91494530  0.46609017  0.98587347  1
  S  S33  1  0.07594703  0.43667282  0.00408971  1
  S  S34  1  0.67200999  0.51490023  0.90102750  1
  S  S35  1  0.34368547  0.51673126  0.11265438  1
  S  S36  1  0.59149499  0.00971630  0.65258594  1
  S  S37  1  0.41070193  0.04708642  0.36051200  1
  S  S38  1  0.24982826  0.51523080  0.29901836  1
  S  S39  1  0.76311149  0.48134036  0.70149611  1
  S  S40  1  0.66409672  0.01520171  0.43612849  1
  S  S41  1  0.33131787  0.02896301  0.54642258  1
