# generated using pymatgen
data_Pr2Mn3(SbS3)4
_symmetry_space_group_name_H-M   'P 1'
_cell_length_a   20.02960800
_cell_length_b   3.90410600
_cell_length_c   14.95364829
_cell_angle_alpha   90.00000000
_cell_angle_beta   126.33350609
_cell_angle_gamma   90.00000000
_symmetry_Int_Tables_number   1
_chemical_formula_structural   Pr2Mn3(SbS3)4
_chemical_formula_sum   'Pr4 Mn6 Sb8 S24'
_cell_volume   942.00006694
_cell_formula_units_Z   2
loop_
 _symmetry_equiv_pos_site_id
 _symmetry_equiv_pos_as_xyz
  1  'x, y, z'
loop_
 _atom_site_type_symbol
 _atom_site_label
 _atom_site_symmetry_multiplicity
 _atom_site_fract_x
 _atom_site_fract_y
 _atom_site_fract_z
 _atom_site_occupancy
  Pr  Pr0  1  0.25971421  0.52468171  0.86416484  1
  Pr  Pr1  1  0.73386469  0.49210397  0.13308074  1
  Pr  Pr2  1  0.76388466  0.97858939  0.86784101  1
  Pr  Pr3  1  0.24391383  0.98425822  0.14934791  1
  Mn  Mn4  1  0.29268552  0.54742448  0.61232685  1
  Mn  Mn5  1  0.68909273  0.50634482  0.37580283  1
  Mn  Mn6  1  0.99355633  0.98519990  0.98658766  1
  Mn  Mn7  1  0.80563977  0.99386477  0.60786130  1
  Mn  Mn8  1  0.19644579  0.94865625  0.38996967  1
  Mn  Mn9  1  0.50462753  0.51693498  0.00677495  1
  Sb  Sb10  1  0.89863150  0.01946295  0.45574154  1
  Sb  Sb11  1  0.10621784  0.02818070  0.54739137  1
  Sb  Sb12  1  0.03551325  0.48770193  0.80969016  1
  Sb  Sb13  1  0.96416722  0.51057426  0.18793426  1
  Sb  Sb14  1  0.38926061  0.50345485  0.45213686  1
  Sb  Sb15  1  0.61280028  0.48651184  0.56667711  1
  Sb  Sb16  1  0.53738956  0.03930097  0.81947971  1
  Sb  Sb17  1  0.46093043  0.99509483  0.19341313  1
  S  S18  1  0.93545374  0.00037026  0.79648563  1
  S  S19  1  0.06390759  0.02310692  0.21881994  1
  S  S20  1  0.40684920  0.00909710  0.98459419  1
  S  S21  1  0.58119591  0.02031885  0.01290030  1
  S  S22  1  0.17447760  0.01478453  0.90935247  1
  S  S23  1  0.82890833  0.99336178  0.11149727  1
  S  S24  1  0.09004098  0.54502495  0.64947888  1
  S  S25  1  0.91284966  0.48577755  0.34970667  1
  S  S26  1  0.74263664  0.99895014  0.30585786  1
  S  S27  1  0.26829372  0.99003838  0.70326186  1
  S  S28  1  0.16751293  0.44446691  0.44751980  1
  S  S29  1  0.82047444  0.48788667  0.54354315  1
  S  S30  1  0.43024132  0.53680748  0.79189872  1
  S  S31  1  0.55487065  0.50837160  0.18435233  1
  S  S32  1  0.91477968  0.46615192  0.98553898  1
  S  S33  1  0.07585669  0.43565723  0.00368307  1
  S  S34  1  0.67211867  0.51527698  0.90099873  1
  S  S35  1  0.34390538  0.51808630  0.11286520  1
  S  S36  1  0.59187984  0.00909162  0.65327122  1
  S  S37  1  0.41025062  0.04665437  0.36002118  1
  S  S38  1  0.25002137  0.51651260  0.29898888  1
  S  S39  1  0.76306603  0.48077466  0.70177613  1
  S  S40  1  0.66414649  0.01466719  0.43616185  1
  S  S41  1  0.33102035  0.02885770  0.54538189  1
