# generated using pymatgen
data_Pr2Mn3(SbS3)4
_symmetry_space_group_name_H-M   'P 1'
_cell_length_a   20.02960800
_cell_length_b   3.90410600
_cell_length_c   14.95364829
_cell_angle_alpha   90.00000000
_cell_angle_beta   126.33350609
_cell_angle_gamma   90.00000000
_symmetry_Int_Tables_number   1
_chemical_formula_structural   Pr2Mn3(SbS3)4
_chemical_formula_sum   'Pr4 Mn6 Sb8 S24'
_cell_volume   942.00006694
_cell_formula_units_Z   2
loop_
 _symmetry_equiv_pos_site_id
 _symmetry_equiv_pos_as_xyz
  1  'x, y, z'
loop_
 _atom_site_type_symbol
 _atom_site_label
 _atom_site_symmetry_multiplicity
 _atom_site_fract_x
 _atom_site_fract_y
 _atom_site_fract_z
 _atom_site_occupancy
  Pr  Pr0  1  0.25978294  0.52474205  0.86425030  1
  Pr  Pr1  1  0.73400277  0.49198015  0.13333498  1
  Pr  Pr2  1  0.76388689  0.97798605  0.86793329  1
  Pr  Pr3  1  0.24391405  0.98391764  0.14930750  1
  Mn  Mn4  1  0.29247061  0.54637153  0.61186569  1
  Mn  Mn5  1  0.68890037  0.50641813  0.37573064  1
  Mn  Mn6  1  0.99364958  0.98514663  0.98664632  1
  Mn  Mn7  1  0.80574978  0.99272912  0.60756635  1
  Mn  Mn8  1  0.19653015  0.94873516  0.38988828  1
  Mn  Mn9  1  0.50467834  0.51678270  0.00660454  1
  Sb  Sb10  1  0.89853875  0.01932948  0.45546552  1
  Sb  Sb11  1  0.10617622  0.02815924  0.54721167  1
  Sb  Sb12  1  0.03540935  0.48681539  0.80966894  1
  Sb  Sb13  1  0.96403293  0.51020249  0.18765258  1
  Sb  Sb14  1  0.38925807  0.50316970  0.45192351  1
  Sb  Sb15  1  0.61286783  0.48698218  0.56650803  1
  Sb  Sb16  1  0.53734684  0.03894994  0.81954717  1
  Sb  Sb17  1  0.46094874  0.99486478  0.19348417  1
  S  S18  1  0.93551117  0.00084281  0.79671852  1
  S  S19  1  0.06394998  0.02425687  0.21901868  1
  S  S20  1  0.40644382  0.00821738  0.98426430  1
  S  S21  1  0.58132551  0.01958957  0.01308585  1
  S  S22  1  0.17392533  0.01614627  0.90869965  1
  S  S23  1  0.82901180  0.99262102  0.11183447  1
  S  S24  1  0.09037953  0.54352383  0.64952652  1
  S  S25  1  0.91250659  0.48608919  0.34909552  1
  S  S26  1  0.74271034  0.00086911  0.30555481  1
  S  S27  1  0.26812978  0.98937853  0.70287992  1
  S  S28  1  0.16736596  0.44436336  0.44786731  1
  S  S29  1  0.82046978  0.48836787  0.54325449  1
  S  S30  1  0.43046436  0.53901313  0.79232890  1
  S  S31  1  0.55519127  0.50662977  0.18478719  1
  S  S32  1  0.91456800  0.46620908  0.98500422  1
  S  S33  1  0.07598631  0.43426840  0.00351763  1
  S  S34  1  0.67227577  0.51533900  0.90100532  1
  S  S35  1  0.34413945  0.51871288  0.11290192  1
  S  S36  1  0.59220506  0.00892680  0.65395420  1
  S  S37  1  0.40968733  0.04626834  0.35936987  1
  S  S38  1  0.25029352  0.51770816  0.29912117  1
  S  S39  1  0.76326980  0.48054239  0.70238220  1
  S  S40  1  0.66418096  0.01408360  0.43618831  1
  S  S41  1  0.33071928  0.02961427  0.54443084  1
