# generated using pymatgen
data_Pr2Mn3(SbS3)4
_symmetry_space_group_name_H-M   'P 1'
_cell_length_a   20.02960800
_cell_length_b   3.90410600
_cell_length_c   14.95364829
_cell_angle_alpha   90.00000000
_cell_angle_beta   126.33350609
_cell_angle_gamma   90.00000000
_symmetry_Int_Tables_number   1
_chemical_formula_structural   Pr2Mn3(SbS3)4
_chemical_formula_sum   'Pr4 Mn6 Sb8 S24'
_cell_volume   942.00006694
_cell_formula_units_Z   2
loop_
 _symmetry_equiv_pos_site_id
 _symmetry_equiv_pos_as_xyz
  1  'x, y, z'
loop_
 _atom_site_type_symbol
 _atom_site_label
 _atom_site_symmetry_multiplicity
 _atom_site_fract_x
 _atom_site_fract_y
 _atom_site_fract_z
 _atom_site_occupancy
  Pr  Pr0  1  0.25977389  0.52479607  0.86430578  1
  Pr  Pr1  1  0.73409473  0.49200299  0.13363742  1
  Pr  Pr2  1  0.76381825  0.97759468  0.86800203  1
  Pr  Pr3  1  0.24402212  0.98359827  0.14941775  1
  Mn  Mn4  1  0.29216904  0.54516586  0.61124057  1
  Mn  Mn5  1  0.68872044  0.50670734  0.37566433  1
  Mn  Mn6  1  0.99381287  0.98487307  0.98684310  1
  Mn  Mn7  1  0.80583646  0.99197089  0.60721575  1
  Mn  Mn8  1  0.19655843  0.94911814  0.38974641  1
  Mn  Mn9  1  0.50475792  0.51671601  0.00647889  1
  Sb  Sb10  1  0.89839392  0.01927011  0.45520536  1
  Sb  Sb11  1  0.10622416  0.02829981  0.54711975  1
  Sb  Sb12  1  0.03541614  0.48555001  0.80965237  1
  Sb  Sb13  1  0.96390548  0.51009569  0.18735883  1
  Sb  Sb14  1  0.38933215  0.50288174  0.45188675  1
  Sb  Sb15  1  0.61285968  0.48780979  0.56627334  1
  Sb  Sb16  1  0.53735102  0.03846212  0.81963205  1
  Sb  Sb17  1  0.46102095  0.99483516  0.19364856  1
  S  S18  1  0.93552444  0.00098891  0.79679740  1
  S  S19  1  0.06388241  0.02558846  0.21900096  1
  S  S20  1  0.40609311  0.00809999  0.98386559  1
  S  S21  1  0.58131631  0.01891679  0.01305055  1
  S  S22  1  0.17345559  0.01722573  0.90809242  1
  S  S23  1  0.82916331  0.99194358  0.11216471  1
  S  S24  1  0.09057926  0.54269044  0.64946538  1
  S  S25  1  0.91214223  0.48648201  0.34857260  1
  S  S26  1  0.74276520  0.00261334  0.30534743  1
  S  S27  1  0.26804545  0.98840513  0.70256291  1
  S  S28  1  0.16722439  0.44490900  0.44832756  1
  S  S29  1  0.82040247  0.48843555  0.54284371  1
  S  S30  1  0.43054259  0.54120280  0.79279384  1
  S  S31  1  0.55566688  0.50486976  0.18525741  1
  S  S32  1  0.91435943  0.46649909  0.98456227  1
  S  S33  1  0.07616715  0.43246472  0.00337247  1
  S  S34  1  0.67241521  0.51556869  0.90101128  1
  S  S35  1  0.34443268  0.51812729  0.11302043  1
  S  S36  1  0.59267064  0.00823159  0.65491793  1
  S  S37  1  0.40905790  0.04527148  0.35886559  1
  S  S38  1  0.25050509  0.51888906  0.29932321  1
  S  S39  1  0.76357361  0.48017109  0.70296824  1
  S  S40  1  0.66413023  0.01409649  0.43608634  1
  S  S41  1  0.33040229  0.03057392  0.54355218  1
