# generated using pymatgen
data_Pr2Mn3(SbS3)4
_symmetry_space_group_name_H-M   'P 1'
_cell_length_a   20.02960800
_cell_length_b   3.90410600
_cell_length_c   14.95364829
_cell_angle_alpha   90.00000000
_cell_angle_beta   126.33350609
_cell_angle_gamma   90.00000000
_symmetry_Int_Tables_number   1
_chemical_formula_structural   Pr2Mn3(SbS3)4
_chemical_formula_sum   'Pr4 Mn6 Sb8 S24'
_cell_volume   942.00006694
_cell_formula_units_Z   2
loop_
 _symmetry_equiv_pos_site_id
 _symmetry_equiv_pos_as_xyz
  1  'x, y, z'
loop_
 _atom_site_type_symbol
 _atom_site_label
 _atom_site_symmetry_multiplicity
 _atom_site_fract_x
 _atom_site_fract_y
 _atom_site_fract_z
 _atom_site_occupancy
  Pr  Pr0  1  0.25981048  0.52477874  0.86436497  1
  Pr  Pr1  1  0.73413009  0.49179831  0.13391950  1
  Pr  Pr2  1  0.76372729  0.97706987  0.86795108  1
  Pr  Pr3  1  0.24418732  0.98330044  0.14965820  1
  Mn  Mn4  1  0.29191205  0.54428965  0.61077772  1
  Mn  Mn5  1  0.68851570  0.50648318  0.37552880  1
  Mn  Mn6  1  0.99398311  0.98434657  0.98709444  1
  Mn  Mn7  1  0.80582490  0.99142422  0.60673563  1
  Mn  Mn8  1  0.19666290  0.94905926  0.38966520  1
  Mn  Mn9  1  0.50483608  0.51662456  0.00641013  1
  Sb  Sb10  1  0.89833706  0.01905420  0.45501581  1
  Sb  Sb11  1  0.10629660  0.02802464  0.54707362  1
  Sb  Sb12  1  0.03549767  0.48440401  0.80975396  1
  Sb  Sb13  1  0.96387944  0.51011516  0.18715767  1
  Sb  Sb14  1  0.38927613  0.50238284  0.45168470  1
  Sb  Sb15  1  0.61288202  0.48827908  0.56611504  1
  Sb  Sb16  1  0.53731053  0.03786308  0.81966562  1
  Sb  Sb17  1  0.46105347  0.99512431  0.19378023  1
  S  S18  1  0.93548304  0.00105252  0.79698770  1
  S  S19  1  0.06378706  0.02725981  0.21890851  1
  S  S20  1  0.40580426  0.00776540  0.98355023  1
  S  S21  1  0.58133094  0.01848308  0.01301418  1
  S  S22  1  0.17316607  0.01866079  0.90770312  1
  S  S23  1  0.82927973  0.99166831  0.11248295  1
  S  S24  1  0.09079284  0.54108628  0.64952081  1
  S  S25  1  0.91179277  0.48719631  0.34802239  1
  S  S26  1  0.74278588  0.00423504  0.30525557  1
  S  S27  1  0.26803460  0.98762585  0.70214265  1
  S  S28  1  0.16710363  0.44481479  0.44869262  1
  S  S29  1  0.82038524  0.48874901  0.54247903  1
  S  S30  1  0.43067396  0.54347746  0.79300059  1
  S  S31  1  0.55608689  0.50344754  0.18588520  1
  S  S32  1  0.91416223  0.46661485  0.98414380  1
  S  S33  1  0.07637888  0.43088081  0.00332003  1
  S  S34  1  0.67242783  0.51580966  0.90126703  1
  S  S35  1  0.34472043  0.51786850  0.11319914  1
  S  S36  1  0.59299439  0.00709350  0.65590542  1
  S  S37  1  0.40845562  0.04418161  0.35828872  1
  S  S38  1  0.25056597  0.51988176  0.29938207  1
  S  S39  1  0.76382821  0.47959136  0.70344425  1
  S  S40  1  0.66397368  0.01419047  0.43592825  1
  S  S41  1  0.33022034  0.03168673  0.54282281  1
