# generated using pymatgen
data_Pr2Mn3(SbS3)4
_symmetry_space_group_name_H-M   'P 1'
_cell_length_a   20.02960800
_cell_length_b   3.90410600
_cell_length_c   14.95364829
_cell_angle_alpha   90.00000000
_cell_angle_beta   126.33350609
_cell_angle_gamma   90.00000000
_symmetry_Int_Tables_number   1
_chemical_formula_structural   Pr2Mn3(SbS3)4
_chemical_formula_sum   'Pr4 Mn6 Sb8 S24'
_cell_volume   942.00006694
_cell_formula_units_Z   2
loop_
 _symmetry_equiv_pos_site_id
 _symmetry_equiv_pos_as_xyz
  1  'x, y, z'
loop_
 _atom_site_type_symbol
 _atom_site_label
 _atom_site_symmetry_multiplicity
 _atom_site_fract_x
 _atom_site_fract_y
 _atom_site_fract_z
 _atom_site_occupancy
  Pr  Pr0  1  0.25987925  0.52447947  0.86441794  1
  Pr  Pr1  1  0.73422207  0.49171151  0.13426289  1
  Pr  Pr2  1  0.76365839  0.97686884  0.86790136  1
  Pr  Pr3  1  0.24443442  0.98331655  0.14992443  1
  Mn  Mn4  1  0.29161303  0.54337948  0.61032832  1
  Mn  Mn5  1  0.68834284  0.50614772  0.37547786  1
  Mn  Mn6  1  0.99418908  0.98398190  0.98729739  1
  Mn  Mn7  1  0.80575956  0.99101396  0.60628629  1
  Mn  Mn8  1  0.19676511  0.94868396  0.38964689  1
  Mn  Mn9  1  0.50500228  0.51626831  0.00639241  1
  Sb  Sb10  1  0.89820680  0.01863519  0.45476481  1
  Sb  Sb11  1  0.10644654  0.02776747  0.54708381  1
  Sb  Sb12  1  0.03561264  0.48358445  0.80990009  1
  Sb  Sb13  1  0.96378228  0.51012133  0.18691420  1
  Sb  Sb14  1  0.38921290  0.50197503  0.45156101  1
  Sb  Sb15  1  0.61298595  0.48862310  0.56606671  1
  Sb  Sb16  1  0.53728588  0.03746349  0.81975457  1
  Sb  Sb17  1  0.46114722  0.99541440  0.19397402  1
  S  S18  1  0.93543850  0.00113106  0.79723935  1
  S  S19  1  0.06357520  0.02881321  0.21891465  1
  S  S20  1  0.40540440  0.00714840  0.98317398  1
  S  S21  1  0.58129249  0.01818742  0.01312723  1
  S  S22  1  0.17280774  0.01982089  0.90727785  1
  S  S23  1  0.82948519  0.99212794  0.11286872  1
  S  S24  1  0.09105132  0.54005914  0.64952045  1
  S  S25  1  0.91138435  0.48867449  0.34737657  1
  S  S26  1  0.74281781  0.00613820  0.30522692  1
  S  S27  1  0.26799607  0.98740985  0.70166119  1
  S  S28  1  0.16696586  0.44397668  0.44910514  1
  S  S29  1  0.82052645  0.48883330  0.54228051  1
  S  S30  1  0.43077407  0.54558445  0.79310934  1
  S  S31  1  0.55666176  0.50189630  0.18662709  1
  S  S32  1  0.91390948  0.46709155  0.98366857  1
  S  S33  1  0.07680135  0.43031262  0.00335204  1
  S  S34  1  0.67238275  0.51604401  0.90150652  1
  S  S35  1  0.34487379  0.51763195  0.11337211  1
  S  S36  1  0.59333675  0.00614367  0.65692066  1
  S  S37  1  0.40796259  0.04344601  0.35784329  1
  S  S38  1  0.25057396  0.52063872  0.29916554  1
  S  S39  1  0.76406388  0.47939569  0.70385122  1
  S  S40  1  0.66374199  0.01339125  0.43576061  1
  S  S41  1  0.33004502  0.03245832  0.54236620  1
