# generated using pymatgen
data_Pr2Mn3(SbS3)4
_symmetry_space_group_name_H-M   'P 1'
_cell_length_a   20.02960800
_cell_length_b   3.90410600
_cell_length_c   14.95364829
_cell_angle_alpha   90.00000000
_cell_angle_beta   126.33350609
_cell_angle_gamma   90.00000000
_symmetry_Int_Tables_number   1
_chemical_formula_structural   Pr2Mn3(SbS3)4
_chemical_formula_sum   'Pr4 Mn6 Sb8 S24'
_cell_volume   942.00006694
_cell_formula_units_Z   2
loop_
 _symmetry_equiv_pos_site_id
 _symmetry_equiv_pos_as_xyz
  1  'x, y, z'
loop_
 _atom_site_type_symbol
 _atom_site_label
 _atom_site_symmetry_multiplicity
 _atom_site_fract_x
 _atom_site_fract_y
 _atom_site_fract_z
 _atom_site_occupancy
  Pr  Pr0  1  0.25988685  0.52406499  0.86445386  1
  Pr  Pr1  1  0.73436812  0.49134362  0.13462380  1
  Pr  Pr2  1  0.76357173  0.97694625  0.86787781  1
  Pr  Pr3  1  0.24462779  0.98349205  0.15011656  1
  Mn  Mn4  1  0.29130221  0.54265517  0.60993212  1
  Mn  Mn5  1  0.68822446  0.50521867  0.37540401  1
  Mn  Mn6  1  0.99445250  0.98362909  0.98758536  1
  Mn  Mn7  1  0.80566720  0.99057826  0.60593022  1
  Mn  Mn8  1  0.19686995  0.94851553  0.38977829  1
  Mn  Mn9  1  0.50512001  0.51526866  0.00640330  1
  Sb  Sb10  1  0.89806489  0.01825501  0.45439614  1
  Sb  Sb11  1  0.10658247  0.02755492  0.54709201  1
  Sb  Sb12  1  0.03574207  0.48284630  0.81005932  1
  Sb  Sb13  1  0.96366048  0.51008845  0.18661899  1
  Sb  Sb14  1  0.38926133  0.50140745  0.45158676  1
  Sb  Sb15  1  0.61309180  0.48868823  0.56605948  1
  Sb  Sb16  1  0.53728442  0.03688336  0.81982921  1
  Sb  Sb17  1  0.46123737  0.99575626  0.19404673  1
  S  S18  1  0.93533561  0.00184659  0.79748201  1
  S  S19  1  0.06343592  0.03062661  0.21886967  1
  S  S20  1  0.40500789  0.00606034  0.98285542  1
  S  S21  1  0.58121445  0.01773477  0.01333002  1
  S  S22  1  0.17252853  0.02075318  0.90708039  1
  S  S23  1  0.82950216  0.99262590  0.11303139  1
  S  S24  1  0.09137085  0.53888803  0.64964058  1
  S  S25  1  0.91111552  0.49081895  0.34694950  1
  S  S26  1  0.74290176  0.00818298  0.30529705  1
  S  S27  1  0.26792624  0.98688540  0.70107667  1
  S  S28  1  0.16682747  0.44362585  0.44936363  1
  S  S29  1  0.82059243  0.48828799  0.54214327  1
  S  S30  1  0.43097516  0.54805706  0.79322680  1
  S  S31  1  0.55696873  0.50124314  0.18725576  1
  S  S32  1  0.91380728  0.46746823  0.98344551  1
  S  S33  1  0.07710845  0.43000921  0.00334018  1
  S  S34  1  0.67244481  0.51618208  0.90173530  1
  S  S35  1  0.34485436  0.51785752  0.11345452  1
  S  S36  1  0.59366699  0.00493079  0.65786516  1
  S  S37  1  0.40754896  0.04291049  0.35753834  1
  S  S38  1  0.25054516  0.52187140  0.29893449  1
  S  S39  1  0.76429382  0.47962878  0.70426863  1
  S  S40  1  0.66359262  0.01233732  0.43559764  1
  S  S41  1  0.32998560  0.03322860  0.54188665  1
