# generated using pymatgen
data_Pr2Mn3(SbS3)4
_symmetry_space_group_name_H-M   'P 1'
_cell_length_a   20.02960800
_cell_length_b   3.90410600
_cell_length_c   14.95364829
_cell_angle_alpha   90.00000000
_cell_angle_beta   126.33350609
_cell_angle_gamma   90.00000000
_symmetry_Int_Tables_number   1
_chemical_formula_structural   Pr2Mn3(SbS3)4
_chemical_formula_sum   'Pr4 Mn6 Sb8 S24'
_cell_volume   942.00006694
_cell_formula_units_Z   2
loop_
 _symmetry_equiv_pos_site_id
 _symmetry_equiv_pos_as_xyz
  1  'x, y, z'
loop_
 _atom_site_type_symbol
 _atom_site_label
 _atom_site_symmetry_multiplicity
 _atom_site_fract_x
 _atom_site_fract_y
 _atom_site_fract_z
 _atom_site_occupancy
  Pr  Pr0  1  0.25991480  0.52371533  0.86451367  1
  Pr  Pr1  1  0.73448060  0.49066731  0.13498065  1
  Pr  Pr2  1  0.76349151  0.97726035  0.86784850  1
  Pr  Pr3  1  0.24481703  0.98350631  0.15027424  1
  Mn  Mn4  1  0.29107686  0.54202280  0.60965905  1
  Mn  Mn5  1  0.68815243  0.50432365  0.37552212  1
  Mn  Mn6  1  0.99477295  0.98368692  0.98788837  1
  Mn  Mn7  1  0.80557409  0.98967080  0.60547780  1
  Mn  Mn8  1  0.19702881  0.94858877  0.38993822  1
  Mn  Mn9  1  0.50534060  0.51390666  0.00650309  1
  Sb  Sb10  1  0.89799168  0.01773079  0.45414220  1
  Sb  Sb11  1  0.10669032  0.02738284  0.54709464  1
  Sb  Sb12  1  0.03587710  0.48223796  0.81030647  1
  Sb  Sb13  1  0.96351594  0.50976269  0.18636623  1
  Sb  Sb14  1  0.38936433  0.50073411  0.45167636  1
  Sb  Sb15  1  0.61321637  0.48873536  0.56606441  1
  Sb  Sb16  1  0.53730734  0.03619928  0.81990664  1
  Sb  Sb17  1  0.46128707  0.99642242  0.19405451  1
  S  S18  1  0.93527357  0.00297189  0.79783169  1
  S  S19  1  0.06338433  0.03174325  0.21890614  1
  S  S20  1  0.40478242  0.00457424  0.98278732  1
  S  S21  1  0.58119119  0.01756158  0.01363530  1
  S  S22  1  0.17218226  0.02144714  0.90687226  1
  S  S23  1  0.82956304  0.99321522  0.11327407  1
  S  S24  1  0.09186438  0.53810783  0.64999576  1
  S  S25  1  0.91064910  0.49261282  0.34645816  1
  S  S26  1  0.74283271  0.01024594  0.30528026  1
  S  S27  1  0.26775986  0.98577555  0.70057123  1
  S  S28  1  0.16658485  0.44347172  0.44954223  1
  S  S29  1  0.82062638  0.48817722  0.54196030  1
  S  S30  1  0.43091827  0.55070617  0.79318301  1
  S  S31  1  0.55721096  0.50040263  0.18779053  1
  S  S32  1  0.91361323  0.46737590  0.98318003  1
  S  S33  1  0.07733545  0.43000588  0.00337739  1
  S  S34  1  0.67236584  0.51634293  0.90160588  1
  S  S35  1  0.34486458  0.51834203  0.11348258  1
  S  S36  1  0.59389632  0.00413486  0.65880316  1
  S  S37  1  0.40728316  0.04271036  0.35722919  1
  S  S38  1  0.25049504  0.52282304  0.29864311  1
  S  S39  1  0.76429269  0.48013952  0.70471731  1
  S  S40  1  0.66338369  0.01139943  0.43516378  1
  S  S41  1  0.33008480  0.03406020  0.54172241  1
