# generated using pymatgen
data_Pr2Mn3(SbS3)4
_symmetry_space_group_name_H-M   'P 1'
_cell_length_a   20.02960800
_cell_length_b   3.90410600
_cell_length_c   14.95364829
_cell_angle_alpha   90.00000000
_cell_angle_beta   126.33350609
_cell_angle_gamma   90.00000000
_symmetry_Int_Tables_number   1
_chemical_formula_structural   Pr2Mn3(SbS3)4
_chemical_formula_sum   'Pr4 Mn6 Sb8 S24'
_cell_volume   942.00006694
_cell_formula_units_Z   2
loop_
 _symmetry_equiv_pos_site_id
 _symmetry_equiv_pos_as_xyz
  1  'x, y, z'
loop_
 _atom_site_type_symbol
 _atom_site_label
 _atom_site_symmetry_multiplicity
 _atom_site_fract_x
 _atom_site_fract_y
 _atom_site_fract_z
 _atom_site_occupancy
  Pr  Pr0  1  0.25990586  0.52355697  0.86455696  1
  Pr  Pr1  1  0.73451879  0.48989259  0.13523915  1
  Pr  Pr2  1  0.76337878  0.97747532  0.86771128  1
  Pr  Pr3  1  0.24491457  0.98382424  0.15031684  1
  Mn  Mn4  1  0.29093853  0.54183133  0.60941791  1
  Mn  Mn5  1  0.68800806  0.50371787  0.37548609  1
  Mn  Mn6  1  0.99513173  0.98358199  0.98833886  1
  Mn  Mn7  1  0.80553999  0.98883244  0.60514709  1
  Mn  Mn8  1  0.19720205  0.94864914  0.39001017  1
  Mn  Mn9  1  0.50558897  0.51270308  0.00659924  1
  Sb  Sb10  1  0.89796446  0.01677934  0.45401235  1
  Sb  Sb11  1  0.10677749  0.02691404  0.54709346  1
  Sb  Sb12  1  0.03589035  0.48137253  0.81039314  1
  Sb  Sb13  1  0.96338732  0.50969222  0.18609317  1
  Sb  Sb14  1  0.38942690  0.50025601  0.45170031  1
  Sb  Sb15  1  0.61343056  0.48886993  0.56624740  1
  Sb  Sb16  1  0.53732684  0.03560472  0.81995956  1
  Sb  Sb17  1  0.46127164  0.99717943  0.19394503  1
  S  S18  1  0.93526150  0.00408532  0.79836588  1
  S  S19  1  0.06340296  0.03218007  0.21896657  1
  S  S20  1  0.40464866  0.00333797  0.98263406  1
  S  S21  1  0.58121431  0.01679553  0.01386479  1
  S  S22  1  0.17184353  0.02160335  0.90652672  1
  S  S23  1  0.82957903  0.99359906  0.11329382  1
  S  S24  1  0.09232580  0.53674935  0.65042207  1
  S  S25  1  0.91034277  0.49445538  0.34605463  1
  S  S26  1  0.74279819  0.01209415  0.30535799  1
  S  S27  1  0.26771356  0.98457899  0.70002400  1
  S  S28  1  0.16644856  0.44352577  0.44975387  1
  S  S29  1  0.82055251  0.48758413  0.54181745  1
  S  S30  1  0.43087837  0.55274536  0.79332411  1
  S  S31  1  0.55759029  0.49998482  0.18833613  1
  S  S32  1  0.91360579  0.46806646  0.98305442  1
  S  S33  1  0.07767862  0.43063269  0.00330331  1
  S  S34  1  0.67227612  0.51642053  0.90123867  1
  S  S35  1  0.34474966  0.51819647  0.11349928  1
  S  S36  1  0.59412948  0.00335357  0.65967128  1
  S  S37  1  0.40720175  0.04228041  0.35715153  1
  S  S38  1  0.25033352  0.52307807  0.29843175  1
  S  S39  1  0.76445417  0.48098299  0.70533011  1
  S  S40  1  0.66314776  0.01110434  0.43474216  1
  S  S41  1  0.33014631  0.03529823  0.54146958  1
