# generated using pymatgen
data_Pr2Mn3(SbS3)4
_symmetry_space_group_name_H-M   'P 1'
_cell_length_a   20.02960800
_cell_length_b   3.90410600
_cell_length_c   14.95364829
_cell_angle_alpha   90.00000000
_cell_angle_beta   126.33350609
_cell_angle_gamma   90.00000000
_symmetry_Int_Tables_number   1
_chemical_formula_structural   Pr2Mn3(SbS3)4
_chemical_formula_sum   'Pr4 Mn6 Sb8 S24'
_cell_volume   942.00006694
_cell_formula_units_Z   2
loop_
 _symmetry_equiv_pos_site_id
 _symmetry_equiv_pos_as_xyz
  1  'x, y, z'
loop_
 _atom_site_type_symbol
 _atom_site_label
 _atom_site_symmetry_multiplicity
 _atom_site_fract_x
 _atom_site_fract_y
 _atom_site_fract_z
 _atom_site_occupancy
  Pr  Pr0  1  0.26695209  0.49488770  0.86422627  1
  Pr  Pr1  1  0.73644382  0.51123794  0.13712759  1
  Pr  Pr2  1  0.76282018  0.01040425  0.86108052  1
  Pr  Pr3  1  0.23481905  0.00166568  0.13491051  1
  Mn  Mn4  1  0.28739211  0.48042422  0.58994413  1
  Mn  Mn5  1  0.68674284  0.47989025  0.36819098  1
  Mn  Mn6  1  0.00878291  0.98564811  0.02064586  1
  Mn  Mn7  1  0.80573014  0.00664237  0.61945917  1
  Mn  Mn8  1  0.19829824  0.97804155  0.37377620  1
  Mn  Mn9  1  0.49220561  0.48018841  0.99091017  1
  Sb  Sb10  1  0.88958025  0.98966557  0.45079570  1
  Sb  Sb11  1  0.11148334  0.97901325  0.54559780  1
  Sb  Sb12  1  0.03939543  0.52155914  0.82122458  1
  Sb  Sb13  1  0.96186212  0.49906253  0.18302394  1
  Sb  Sb14  1  0.39510283  0.50492813  0.45057113  1
  Sb  Sb15  1  0.60660982  0.47066402  0.54905411  1
  Sb  Sb16  1  0.53377184  0.99809234  0.80838224  1
  Sb  Sb17  1  0.46510320  0.01676885  0.19003521  1
  S  S18  1  0.93727364  0.00436832  0.80503150  1
  S  S19  1  0.06551620  0.97807302  0.20139977  1
  S  S20  1  0.41410300  0.96492847  0.98087235  1
  S  S21  1  0.57805187  0.02674679  0.01000252  1
  S  S22  1  0.17195963  0.04060726  0.90346227  1
  S  S23  1  0.82591622  0.05018363  0.09557583  1
  S  S24  1  0.09572014  0.48123876  0.64672302  1
  S  S25  1  0.91178530  0.49011318  0.35380507  1
  S  S26  1  0.73794628  0.94664160  0.30081320  1
  S  S27  1  0.26146476  0.00442696  0.70620936  1
  S  S28  1  0.16018586  0.49629651  0.42340841  1
  S  S29  1  0.82446031  0.48934319  0.55070359  1
  S  S30  1  0.43102491  0.49836939  0.79907520  1
  S  S31  1  0.55478425  0.52508482  0.18274207  1
  S  S32  1  0.91043152  0.48726540  0.98638147  1
  S  S33  1  0.09324455  0.48765965  0.03197724  1
  S  S34  1  0.66178186  0.51102377  0.88373030  1
  S  S35  1  0.33151664  0.50305896  0.10129015  1
  S  S36  1  0.59843848  0.98695188  0.65692058  1
  S  S37  1  0.40201667  0.99174683  0.34372925  1
  S  S38  1  0.23816317  0.46028761  0.30915166  1
  S  S39  1  0.76020481  0.50061212  0.69391645  1
  S  S40  1  0.66766173  0.03433183  0.45030524  1
  S  S41  1  0.32836473  0.98605534  0.55513490  1
