# generated using pymatgen
data_Pr2Mn3(SbS3)4
_symmetry_space_group_name_H-M   'P 1'
_cell_length_a   20.02960800
_cell_length_b   3.90410600
_cell_length_c   14.95364829
_cell_angle_alpha   90.00000000
_cell_angle_beta   126.33350609
_cell_angle_gamma   90.00000000
_symmetry_Int_Tables_number   1
_chemical_formula_structural   Pr2Mn3(SbS3)4
_chemical_formula_sum   'Pr4 Mn6 Sb8 S24'
_cell_volume   942.00006694
_cell_formula_units_Z   2
loop_
 _symmetry_equiv_pos_site_id
 _symmetry_equiv_pos_as_xyz
  1  'x, y, z'
loop_
 _atom_site_type_symbol
 _atom_site_label
 _atom_site_symmetry_multiplicity
 _atom_site_fract_x
 _atom_site_fract_y
 _atom_site_fract_z
 _atom_site_occupancy
  Pr  Pr0  1  0.25993292  0.52312087  0.86462415  1
  Pr  Pr1  1  0.73457193  0.48919387  0.13542544  1
  Pr  Pr2  1  0.76326107  0.97780975  0.86758749  1
  Pr  Pr3  1  0.24497326  0.98418181  0.15030251  1
  Mn  Mn4  1  0.29084485  0.54142696  0.60920022  1
  Mn  Mn5  1  0.68781303  0.50322114  0.37550747  1
  Mn  Mn6  1  0.99546952  0.98308707  0.98876866  1
  Mn  Mn7  1  0.80548258  0.98843981  0.60496099  1
  Mn  Mn8  1  0.19736764  0.94815112  0.39009305  1
  Mn  Mn9  1  0.50576820  0.51169355  0.00668882  1
  Sb  Sb10  1  0.89789209  0.01578049  0.45383926  1
  Sb  Sb11  1  0.10682621  0.02645161  0.54705702  1
  Sb  Sb12  1  0.03595782  0.48089677  0.81052271  1
  Sb  Sb13  1  0.96321886  0.50973207  0.18587153  1
  Sb  Sb14  1  0.38940388  0.49957878  0.45166183  1
  Sb  Sb15  1  0.61359022  0.48892214  0.56636408  1
  Sb  Sb16  1  0.53739888  0.03495025  0.82006960  1
  Sb  Sb17  1  0.46126287  0.99807143  0.19388879  1
  S  S18  1  0.93521516  0.00572585  0.79880308  1
  S  S19  1  0.06314723  0.03264812  0.21881579  1
  S  S20  1  0.40469210  0.00197276  0.98261099  1
  S  S21  1  0.58122433  0.01585509  0.01408205  1
  S  S22  1  0.17147661  0.02158037  0.90614681  1
  S  S23  1  0.82961848  0.99406508  0.11330710  1
  S  S24  1  0.09263873  0.53607262  0.65083734  1
  S  S25  1  0.91002158  0.49650812  0.34584857  1
  S  S26  1  0.74274080  0.01307538  0.30535079  1
  S  S27  1  0.26748967  0.98330615  0.69935569  1
  S  S28  1  0.16622300  0.44393377  0.44998234  1
  S  S29  1  0.82040798  0.48778658  0.54156789  1
  S  S30  1  0.43078258  0.55411382  0.79351980  1
  S  S31  1  0.55789122  0.49912080  0.18870476  1
  S  S32  1  0.91347516  0.46848218  0.98294473  1
  S  S33  1  0.07790639  0.43118466  0.00313952  1
  S  S34  1  0.67221361  0.51634865  0.90096923  1
  S  S35  1  0.34453446  0.51816110  0.11331571  1
  S  S36  1  0.59431461  0.00183857  0.66033349  1
  S  S37  1  0.40717171  0.04166964  0.35712075  1
  S  S38  1  0.25006556  0.52279144  0.29819264  1
  S  S39  1  0.76457429  0.48208534  0.70590740  1
  S  S40  1  0.66291536  0.01073041  0.43458924  1
  S  S41  1  0.33026184  0.03611308  0.54120991  1
