# generated using pymatgen
data_Pr2Mn3(SbS3)4
_symmetry_space_group_name_H-M   'P 1'
_cell_length_a   20.02960800
_cell_length_b   3.90410600
_cell_length_c   14.95364829
_cell_angle_alpha   90.00000000
_cell_angle_beta   126.33350609
_cell_angle_gamma   90.00000000
_symmetry_Int_Tables_number   1
_chemical_formula_structural   Pr2Mn3(SbS3)4
_chemical_formula_sum   'Pr4 Mn6 Sb8 S24'
_cell_volume   942.00006694
_cell_formula_units_Z   2
loop_
 _symmetry_equiv_pos_site_id
 _symmetry_equiv_pos_as_xyz
  1  'x, y, z'
loop_
 _atom_site_type_symbol
 _atom_site_label
 _atom_site_symmetry_multiplicity
 _atom_site_fract_x
 _atom_site_fract_y
 _atom_site_fract_z
 _atom_site_occupancy
  Pr  Pr0  1  0.25995149  0.52276964  0.86468271  1
  Pr  Pr1  1  0.73466265  0.48872766  0.13570135  1
  Pr  Pr2  1  0.76321068  0.97825561  0.86758612  1
  Pr  Pr3  1  0.24506623  0.98421582  0.15032552  1
  Mn  Mn4  1  0.29086278  0.54130846  0.60893889  1
  Mn  Mn5  1  0.68769322  0.50325617  0.37558401  1
  Mn  Mn6  1  0.99571826  0.98270508  0.98901595  1
  Mn  Mn7  1  0.80533509  0.98777464  0.60466869  1
  Mn  Mn8  1  0.19746519  0.94796241  0.39029579  1
  Mn  Mn9  1  0.50581121  0.51067046  0.00668891  1
  Sb  Sb10  1  0.89783293  0.01486529  0.45361937  1
  Sb  Sb11  1  0.10686287  0.02559923  0.54699578  1
  Sb  Sb12  1  0.03599101  0.48026004  0.81061854  1
  Sb  Sb13  1  0.96303328  0.50964812  0.18574101  1
  Sb  Sb14  1  0.38943519  0.49911724  0.45161000  1
  Sb  Sb15  1  0.61368948  0.48888025  0.56637797  1
  Sb  Sb16  1  0.53743843  0.03443968  0.82016641  1
  Sb  Sb17  1  0.46130918  0.99863195  0.19391570  1
  S  S18  1  0.93511121  0.00708781  0.79897554  1
  S  S19  1  0.06293667  0.03270343  0.21866007  1
  S  S20  1  0.40465940  0.00114759  0.98274491  1
  S  S21  1  0.58130230  0.01466208  0.01422084  1
  S  S22  1  0.17122412  0.02154006  0.90595423  1
  S  S23  1  0.82949118  0.99410124  0.11323583  1
  S  S24  1  0.09282998  0.53630275  0.65116470  1
  S  S25  1  0.90982766  0.49872365  0.34562446  1
  S  S26  1  0.74273175  0.01337631  0.30558136  1
  S  S27  1  0.26724620  0.98252758  0.69854588  1
  S  S28  1  0.16571045  0.44425113  0.44998444  1
  S  S29  1  0.82025696  0.48745490  0.54127592  1
  S  S30  1  0.43067826  0.55566170  0.79375206  1
  S  S31  1  0.55801307  0.49816295  0.18895850  1
  S  S32  1  0.91364083  0.46912636  0.98319778  1
  S  S33  1  0.07828358  0.43158318  0.00292386  1
  S  S34  1  0.67211146  0.51624494  0.90070184  1
  S  S35  1  0.34426113  0.51824914  0.11324491  1
  S  S36  1  0.59451085  0.99979882  0.66109873  1
  S  S37  1  0.40723462  0.04092099  0.35703073  1
  S  S38  1  0.24977558  0.52225024  0.29799388  1
  S  S39  1  0.76457867  0.48346954  0.70631476  1
  S  S40  1  0.66271560  0.01075324  0.43436230  1
  S  S41  1  0.33031856  0.03668259  0.54087933  1
