# generated using pymatgen
data_Pr2Mn3(SbS3)4
_symmetry_space_group_name_H-M   'P 1'
_cell_length_a   20.02960800
_cell_length_b   3.90410600
_cell_length_c   14.95364829
_cell_angle_alpha   90.00000000
_cell_angle_beta   126.33350609
_cell_angle_gamma   90.00000000
_symmetry_Int_Tables_number   1
_chemical_formula_structural   Pr2Mn3(SbS3)4
_chemical_formula_sum   'Pr4 Mn6 Sb8 S24'
_cell_volume   942.00006694
_cell_formula_units_Z   2
loop_
 _symmetry_equiv_pos_site_id
 _symmetry_equiv_pos_as_xyz
  1  'x, y, z'
loop_
 _atom_site_type_symbol
 _atom_site_label
 _atom_site_symmetry_multiplicity
 _atom_site_fract_x
 _atom_site_fract_y
 _atom_site_fract_z
 _atom_site_occupancy
  Pr  Pr0  1  0.25989376  0.52269192  0.86473988  1
  Pr  Pr1  1  0.73474036  0.48799506  0.13605403  1
  Pr  Pr2  1  0.76321196  0.97845938  0.86773119  1
  Pr  Pr3  1  0.24518125  0.98448636  0.15032765  1
  Mn  Mn4  1  0.29083397  0.54135340  0.60860505  1
  Mn  Mn5  1  0.68747308  0.50299116  0.37555592  1
  Mn  Mn6  1  0.99599132  0.98212313  0.98921209  1
  Mn  Mn7  1  0.80520691  0.98664475  0.60448162  1
  Mn  Mn8  1  0.19752932  0.94790141  0.39044013  1
  Mn  Mn9  1  0.50587905  0.50949973  0.00668049  1
  Sb  Sb10  1  0.89777211  0.01384856  0.45332882  1
  Sb  Sb11  1  0.10689050  0.02501881  0.54698446  1
  Sb  Sb12  1  0.03591771  0.47999507  0.81065693  1
  Sb  Sb13  1  0.96299026  0.50969198  0.18573499  1
  Sb  Sb14  1  0.38947248  0.49887246  0.45157156  1
  Sb  Sb15  1  0.61380711  0.48843086  0.56638269  1
  Sb  Sb16  1  0.53742351  0.03363073  0.82022343  1
  Sb  Sb17  1  0.46130557  0.99932488  0.19396943  1
  S  S18  1  0.93509034  0.00870303  0.79908810  1
  S  S19  1  0.06247334  0.03245946  0.21819328  1
  S  S20  1  0.40470939  0.99949231  0.98275589  1
  S  S21  1  0.58134014  0.01352683  0.01423467  1
  S  S22  1  0.17101579  0.02145141  0.90586118  1
  S  S23  1  0.82928610  0.99465845  0.11302018  1
  S  S24  1  0.09293146  0.53640723  0.65142033  1
  S  S25  1  0.90953719  0.50007639  0.34546428  1
  S  S26  1  0.74273598  0.01254588  0.30597800  1
  S  S27  1  0.26702221  0.98191295  0.69768029  1
  S  S28  1  0.16505273  0.44441612  0.44976311  1
  S  S29  1  0.82009861  0.48733869  0.54094710  1
  S  S30  1  0.43033570  0.55665496  0.79384223  1
  S  S31  1  0.55810014  0.49715606  0.18911964  1
  S  S32  1  0.91379169  0.46953506  0.98338849  1
  S  S33  1  0.07882974  0.43230708  0.00287934  1
  S  S34  1  0.67212839  0.51662983  0.90054142  1
  S  S35  1  0.34398075  0.51785819  0.11322721  1
  S  S36  1  0.59469415  0.99781941  0.66173184  1
  S  S37  1  0.40730042  0.04047155  0.35694635  1
  S  S38  1  0.24951435  0.52234787  0.29796779  1
  S  S39  1  0.76442154  0.48428473  0.70665593  1
  S  S40  1  0.66249646  0.01071785  0.43390062  1
  S  S41  1  0.33027494  0.03760471  0.54048488  1
