# generated using pymatgen
data_Pr2Mn3(SbS3)4
_symmetry_space_group_name_H-M   'P 1'
_cell_length_a   20.02960800
_cell_length_b   3.90410600
_cell_length_c   14.95364829
_cell_angle_alpha   90.00000000
_cell_angle_beta   126.33350609
_cell_angle_gamma   90.00000000
_symmetry_Int_Tables_number   1
_chemical_formula_structural   Pr2Mn3(SbS3)4
_chemical_formula_sum   'Pr4 Mn6 Sb8 S24'
_cell_volume   942.00006694
_cell_formula_units_Z   2
loop_
 _symmetry_equiv_pos_site_id
 _symmetry_equiv_pos_as_xyz
  1  'x, y, z'
loop_
 _atom_site_type_symbol
 _atom_site_label
 _atom_site_symmetry_multiplicity
 _atom_site_fract_x
 _atom_site_fract_y
 _atom_site_fract_z
 _atom_site_occupancy
  Pr  Pr0  1  0.25980431  0.52259628  0.86474784  1
  Pr  Pr1  1  0.73483595  0.48750190  0.13635561  1
  Pr  Pr2  1  0.76321367  0.97871988  0.86784228  1
  Pr  Pr3  1  0.24530375  0.98500872  0.15039494  1
  Mn  Mn4  1  0.29070687  0.54146061  0.60817956  1
  Mn  Mn5  1  0.68731096  0.50278097  0.37549678  1
  Mn  Mn6  1  0.99627996  0.98082961  0.98954830  1
  Mn  Mn7  1  0.80513083  0.98564889  0.60421437  1
  Mn  Mn8  1  0.19757700  0.94784348  0.39048264  1
  Mn  Mn9  1  0.50593631  0.50845083  0.00665171  1
  Sb  Sb10  1  0.89766004  0.01303228  0.45295993  1
  Sb  Sb11  1  0.10692489  0.02433688  0.54696371  1
  Sb  Sb12  1  0.03586554  0.47967946  0.81080748  1
  Sb  Sb13  1  0.96295796  0.50934223  0.18573722  1
  Sb  Sb14  1  0.38947951  0.49880629  0.45168662  1
  Sb  Sb15  1  0.61394861  0.48757508  0.56641495  1
  Sb  Sb16  1  0.53740810  0.03318281  0.82022179  1
  Sb  Sb17  1  0.46125978  0.99978247  0.19399418  1
  S  S18  1  0.93494853  0.01011295  0.79923076  1
  S  S19  1  0.06203067  0.03205546  0.21776659  1
  S  S20  1  0.40492170  0.99857346  0.98276545  1
  S  S21  1  0.58137042  0.01252598  0.01447998  1
  S  S22  1  0.17091970  0.02130095  0.90584789  1
  S  S23  1  0.82912320  0.99498339  0.11298635  1
  S  S24  1  0.09302051  0.53671553  0.65153056  1
  S  S25  1  0.90928039  0.50208758  0.34525736  1
  S  S26  1  0.74283415  0.01193260  0.30630081  1
  S  S27  1  0.26698938  0.98129779  0.69710645  1
  S  S28  1  0.16434349  0.44505758  0.44947882  1
  S  S29  1  0.81998417  0.48758190  0.54058894  1
  S  S30  1  0.43003178  0.55742449  0.79404069  1
  S  S31  1  0.55829194  0.49650890  0.18937284  1
  S  S32  1  0.91382464  0.46974423  0.98343811  1
  S  S33  1  0.07928776  0.43287705  0.00287145  1
  S  S34  1  0.67214679  0.51731541  0.90032535  1
  S  S35  1  0.34378593  0.51719874  0.11342663  1
  S  S36  1  0.59482569  0.99513235  0.66220870  1
  S  S37  1  0.40745781  0.04039360  0.35708432  1
  S  S38  1  0.24919632  0.52237150  0.29775959  1
  S  S39  1  0.76432757  0.48524790  0.70706658  1
  S  S40  1  0.66225520  0.01044606  0.43348277  1
  S  S41  1  0.33033377  0.03818779  0.54026037  1
