# generated using pymatgen
data_Pr2Mn3(SbS3)4
_symmetry_space_group_name_H-M   'P 1'
_cell_length_a   20.02960800
_cell_length_b   3.90410600
_cell_length_c   14.95364829
_cell_angle_alpha   90.00000000
_cell_angle_beta   126.33350609
_cell_angle_gamma   90.00000000
_symmetry_Int_Tables_number   1
_chemical_formula_structural   Pr2Mn3(SbS3)4
_chemical_formula_sum   'Pr4 Mn6 Sb8 S24'
_cell_volume   942.00006694
_cell_formula_units_Z   2
loop_
 _symmetry_equiv_pos_site_id
 _symmetry_equiv_pos_as_xyz
  1  'x, y, z'
loop_
 _atom_site_type_symbol
 _atom_site_label
 _atom_site_symmetry_multiplicity
 _atom_site_fract_x
 _atom_site_fract_y
 _atom_site_fract_z
 _atom_site_occupancy
  Pr  Pr0  1  0.25972773  0.52241989  0.86474556  1
  Pr  Pr1  1  0.73495342  0.48695885  0.13661643  1
  Pr  Pr2  1  0.76323939  0.97897396  0.86801175  1
  Pr  Pr3  1  0.24546430  0.98542676  0.15046414  1
  Mn  Mn4  1  0.29064264  0.54153144  0.60788015  1
  Mn  Mn5  1  0.68728255  0.50240404  0.37552223  1
  Mn  Mn6  1  0.99662722  0.97941421  0.98999253  1
  Mn  Mn7  1  0.80500798  0.98492656  0.60394592  1
  Mn  Mn8  1  0.19758133  0.94753101  0.39059913  1
  Mn  Mn9  1  0.50607230  0.50729415  0.00675666  1
  Sb  Sb10  1  0.89756032  0.01238355  0.45266623  1
  Sb  Sb11  1  0.10697456  0.02372488  0.54698503  1
  Sb  Sb12  1  0.03589875  0.47942263  0.81112941  1
  Sb  Sb13  1  0.96288345  0.50904510  0.18577664  1
  Sb  Sb14  1  0.38945199  0.49892792  0.45175130  1
  Sb  Sb15  1  0.61412642  0.48653490  0.56651156  1
  Sb  Sb16  1  0.53738028  0.03289694  0.82020869  1
  Sb  Sb17  1  0.46134238  0.00026231  0.19418778  1
  S  S18  1  0.93478642  0.01062040  0.79936254  1
  S  S19  1  0.06170391  0.03126005  0.21755770  1
  S  S20  1  0.40496006  0.99801145  0.98248121  1
  S  S21  1  0.58142600  0.01210027  0.01459877  1
  S  S22  1  0.17085340  0.02074618  0.90589813  1
  S  S23  1  0.82882233  0.99517994  0.11280277  1
  S  S24  1  0.09287920  0.53728972  0.65132354  1
  S  S25  1  0.90900067  0.50377349  0.34524868  1
  S  S26  1  0.74291706  0.01188375  0.30665194  1
  S  S27  1  0.26687973  0.98068560  0.69655598  1
  S  S28  1  0.16366642  0.44577308  0.44923939  1
  S  S29  1  0.82007556  0.48819759  0.54044269  1
  S  S30  1  0.42991668  0.55832883  0.79436200  1
  S  S31  1  0.55816579  0.49564546  0.18952345  1
  S  S32  1  0.91383170  0.46953181  0.98333779  1
  S  S33  1  0.07976500  0.43369187  0.00289059  1
  S  S34  1  0.67219400  0.51826159  0.90010124  1
  S  S35  1  0.34330261  0.51686601  0.11338665  1
  S  S36  1  0.59499661  0.99222165  0.66287870  1
  S  S37  1  0.40777044  0.04073150  0.35749380  1
  S  S38  1  0.24889093  0.52276655  0.29761739  1
  S  S39  1  0.76410061  0.48662097  0.70728799  1
  S  S40  1  0.66215680  0.00992816  0.43324548  1
  S  S41  1  0.33042959  0.03895169  0.54015310  1
