# generated using pymatgen
data_Pr2Mn3(SbS3)4
_symmetry_space_group_name_H-M   'P 1'
_cell_length_a   20.02960800
_cell_length_b   3.90410600
_cell_length_c   14.95364829
_cell_angle_alpha   90.00000000
_cell_angle_beta   126.33350609
_cell_angle_gamma   90.00000000
_symmetry_Int_Tables_number   1
_chemical_formula_structural   Pr2Mn3(SbS3)4
_chemical_formula_sum   'Pr4 Mn6 Sb8 S24'
_cell_volume   942.00006694
_cell_formula_units_Z   2
loop_
 _symmetry_equiv_pos_site_id
 _symmetry_equiv_pos_as_xyz
  1  'x, y, z'
loop_
 _atom_site_type_symbol
 _atom_site_label
 _atom_site_symmetry_multiplicity
 _atom_site_fract_x
 _atom_site_fract_y
 _atom_site_fract_z
 _atom_site_occupancy
  Pr  Pr0  1  0.25968254  0.52245186  0.86471811  1
  Pr  Pr1  1  0.73504832  0.48653477  0.13683929  1
  Pr  Pr2  1  0.76323181  0.97918911  0.86806429  1
  Pr  Pr3  1  0.24561029  0.98554937  0.15047838  1
  Mn  Mn4  1  0.29052981  0.54151394  0.60750044  1
  Mn  Mn5  1  0.68723349  0.50180504  0.37561998  1
  Mn  Mn6  1  0.99685375  0.97838545  0.99021060  1
  Mn  Mn7  1  0.80492059  0.98440112  0.60370843  1
  Mn  Mn8  1  0.19763249  0.94729716  0.39068486  1
  Mn  Mn9  1  0.50613484  0.50628777  0.00683668  1
  Sb  Sb10  1  0.89743299  0.01225693  0.45228410  1
  Sb  Sb11  1  0.10697519  0.02322729  0.54699818  1
  Sb  Sb12  1  0.03596096  0.47921451  0.81140075  1
  Sb  Sb13  1  0.96284104  0.50871915  0.18576418  1
  Sb  Sb14  1  0.38944061  0.49941881  0.45183379  1
  Sb  Sb15  1  0.61423825  0.48555619  0.56656025  1
  Sb  Sb16  1  0.53733533  0.03261756  0.82016584  1
  Sb  Sb17  1  0.46138088  0.00078194  0.19435483  1
  S  S18  1  0.93465546  0.01103753  0.79952617  1
  S  S19  1  0.06137258  0.03013728  0.21727546  1
  S  S20  1  0.40502137  0.99751621  0.98229607  1
  S  S21  1  0.58140106  0.01207554  0.01455252  1
  S  S22  1  0.17089046  0.01945235  0.90602633  1
  S  S23  1  0.82848938  0.99598398  0.11259063  1
  S  S24  1  0.09266817  0.53818310  0.65091474  1
  S  S25  1  0.90871227  0.50560839  0.34542676  1
  S  S26  1  0.74304952  0.01156937  0.30693448  1
  S  S27  1  0.26679614  0.98046657  0.69608266  1
  S  S28  1  0.16313052  0.44614596  0.44927893  1
  S  S29  1  0.81997741  0.48905446  0.54019558  1
  S  S30  1  0.42992147  0.55960277  0.79494026  1
  S  S31  1  0.55814636  0.49499105  0.18955631  1
  S  S32  1  0.91379482  0.46969487  0.98324949  1
  S  S33  1  0.08003957  0.43513480  0.00276256  1
  S  S34  1  0.67209970  0.51902716  0.89988314  1
  S  S35  1  0.34279842  0.51679141  0.11328747  1
  S  S36  1  0.59531375  0.98943312  0.66369534  1
  S  S37  1  0.40797813  0.04057267  0.35786047  1
  S  S38  1  0.24866151  0.52281859  0.29746290  1
  S  S39  1  0.76384385  0.48786349  0.70730969  1
  S  S40  1  0.66207822  0.00940471  0.43286114  1
  S  S41  1  0.33033134  0.04001197  0.53997972  1
