# generated using pymatgen
data_Pr2Mn3(SbS3)4
_symmetry_space_group_name_H-M   'P 1'
_cell_length_a   20.02960800
_cell_length_b   3.90410600
_cell_length_c   14.95364829
_cell_angle_alpha   90.00000000
_cell_angle_beta   126.33350609
_cell_angle_gamma   90.00000000
_symmetry_Int_Tables_number   1
_chemical_formula_structural   Pr2Mn3(SbS3)4
_chemical_formula_sum   'Pr4 Mn6 Sb8 S24'
_cell_volume   942.00006694
_cell_formula_units_Z   2
loop_
 _symmetry_equiv_pos_site_id
 _symmetry_equiv_pos_as_xyz
  1  'x, y, z'
loop_
 _atom_site_type_symbol
 _atom_site_label
 _atom_site_symmetry_multiplicity
 _atom_site_fract_x
 _atom_site_fract_y
 _atom_site_fract_z
 _atom_site_occupancy
  Pr  Pr0  1  0.25967710  0.52233610  0.86465512  1
  Pr  Pr1  1  0.73514690  0.48621289  0.13702511  1
  Pr  Pr2  1  0.76322233  0.97922888  0.86809986  1
  Pr  Pr3  1  0.24578542  0.98573017  0.15050120  1
  Mn  Mn4  1  0.29038268  0.54162777  0.60718799  1
  Mn  Mn5  1  0.68710963  0.50126023  0.37569419  1
  Mn  Mn6  1  0.99708530  0.97728310  0.99043764  1
  Mn  Mn7  1  0.80465214  0.98399702  0.60336393  1
  Mn  Mn8  1  0.19750516  0.94686319  0.39057600  1
  Mn  Mn9  1  0.50607976  0.50575156  0.00689179  1
  Sb  Sb10  1  0.89739920  0.01199171  0.45198340  1
  Sb  Sb11  1  0.10692879  0.02258509  0.54694382  1
  Sb  Sb12  1  0.03603267  0.47892604  0.81168613  1
  Sb  Sb13  1  0.96289148  0.50864465  0.18578257  1
  Sb  Sb14  1  0.38940161  0.49995806  0.45186680  1
  Sb  Sb15  1  0.61435956  0.48473701  0.56658796  1
  Sb  Sb16  1  0.53728277  0.03258485  0.82003082  1
  Sb  Sb17  1  0.46140634  0.00097064  0.19448452  1
  S  S18  1  0.93467804  0.01132034  0.79966447  1
  S  S19  1  0.06092663  0.02902732  0.21700970  1
  S  S20  1  0.40519884  0.99744243  0.98232661  1
  S  S21  1  0.58135755  0.01237003  0.01450624  1
  S  S22  1  0.17091592  0.01847337  0.90620525  1
  S  S23  1  0.82831299  0.99688855  0.11239420  1
  S  S24  1  0.09240389  0.53825550  0.65071507  1
  S  S25  1  0.90847791  0.50797235  0.34570668  1
  S  S26  1  0.74322923  0.01100308  0.30702505  1
  S  S27  1  0.26663074  0.98040816  0.69575526  1
  S  S28  1  0.16260289  0.44664103  0.44929843  1
  S  S29  1  0.81988969  0.49016896  0.53997450  1
  S  S30  1  0.42985571  0.56041233  0.79537477  1
  S  S31  1  0.55807807  0.49413047  0.18957636  1
  S  S32  1  0.91375735  0.46974729  0.98321729  1
  S  S33  1  0.08019559  0.43704672  0.00258258  1
  S  S34  1  0.67194749  0.52006824  0.89958195  1
  S  S35  1  0.34239620  0.51673300  0.11324598  1
  S  S36  1  0.59575132  0.98685998  0.66428167  1
  S  S37  1  0.40809284  0.04035404  0.35816992  1
  S  S38  1  0.24828004  0.52303201  0.29720557  1
  S  S39  1  0.76342212  0.48882558  0.70701536  1
  S  S40  1  0.66192848  0.00971279  0.43263027  1
  S  S41  1  0.33016852  0.04123413  0.53970283  1
