# generated using pymatgen
data_Pr2Mn3(SbS3)4
_symmetry_space_group_name_H-M   'P 1'
_cell_length_a   20.02960800
_cell_length_b   3.90410600
_cell_length_c   14.95364829
_cell_angle_alpha   90.00000000
_cell_angle_beta   126.33350609
_cell_angle_gamma   90.00000000
_symmetry_Int_Tables_number   1
_chemical_formula_structural   Pr2Mn3(SbS3)4
_chemical_formula_sum   'Pr4 Mn6 Sb8 S24'
_cell_volume   942.00006694
_cell_formula_units_Z   2
loop_
 _symmetry_equiv_pos_site_id
 _symmetry_equiv_pos_as_xyz
  1  'x, y, z'
loop_
 _atom_site_type_symbol
 _atom_site_label
 _atom_site_symmetry_multiplicity
 _atom_site_fract_x
 _atom_site_fract_y
 _atom_site_fract_z
 _atom_site_occupancy
  Pr  Pr0  1  0.25969252  0.52251955  0.86466709  1
  Pr  Pr1  1  0.73514991  0.48612069  0.13717454  1
  Pr  Pr2  1  0.76324792  0.97915279  0.86819646  1
  Pr  Pr3  1  0.24596755  0.98623353  0.15061977  1
  Mn  Mn4  1  0.29009180  0.54167069  0.60678704  1
  Mn  Mn5  1  0.68715320  0.50122346  0.37587732  1
  Mn  Mn6  1  0.99733849  0.97650491  0.99074442  1
  Mn  Mn7  1  0.80434377  0.98327603  0.60305155  1
  Mn  Mn8  1  0.19725449  0.94585902  0.39035752  1
  Mn  Mn9  1  0.50598800  0.50534904  0.00686502  1
  Sb  Sb10  1  0.89745379  0.01135174  0.45179483  1
  Sb  Sb11  1  0.10686388  0.02210243  0.54682066  1
  Sb  Sb12  1  0.03604164  0.47881825  0.81185037  1
  Sb  Sb13  1  0.96290338  0.50820409  0.18581065  1
  Sb  Sb14  1  0.38932126  0.50034582  0.45183096  1
  Sb  Sb15  1  0.61443458  0.48369255  0.56659250  1
  Sb  Sb16  1  0.53713934  0.03221226  0.81989592  1
  Sb  Sb17  1  0.46151953  0.00110755  0.19463104  1
  S  S18  1  0.93495534  0.01114056  0.79972850  1
  S  S19  1  0.06053307  0.02820849  0.21668909  1
  S  S20  1  0.40526206  0.99752721  0.98216407  1
  S  S21  1  0.58112226  0.01261481  0.01446350  1
  S  S22  1  0.17092745  0.01755120  0.90621566  1
  S  S23  1  0.82815406  0.99831897  0.11215127  1
  S  S24  1  0.09226570  0.53913364  0.65046276  1
  S  S25  1  0.90828951  0.51000486  0.34598421  1
  S  S26  1  0.74346032  0.01050530  0.30731204  1
  S  S27  1  0.26651023  0.98012264  0.69552067  1
  S  S28  1  0.16196177  0.44721009  0.44919395  1
  S  S29  1  0.81972258  0.49086130  0.53969470  1
  S  S30  1  0.42999769  0.56088806  0.79584293  1
  S  S31  1  0.55817741  0.49431928  0.18981318  1
  S  S32  1  0.91382946  0.46953881  0.98318754  1
  S  S33  1  0.08037551  0.43939979  0.00254522  1
  S  S34  1  0.67178553  0.52088707  0.89929803  1
  S  S35  1  0.34183707  0.51685505  0.11304701  1
  S  S36  1  0.59623030  0.98470339  0.66485108  1
  S  S37  1  0.40829521  0.03981589  0.35836618  1
  S  S38  1  0.24784048  0.52349420  0.29674231  1
  S  S39  1  0.76301949  0.48986582  0.70664703  1
  S  S40  1  0.66166210  0.01022566  0.43240651  1
  S  S41  1  0.33007919  0.04224807  0.53941143  1
