# generated using pymatgen
data_Pr2Mn3(SbS3)4
_symmetry_space_group_name_H-M   'P 1'
_cell_length_a   20.02960800
_cell_length_b   3.90410600
_cell_length_c   14.95364829
_cell_angle_alpha   90.00000000
_cell_angle_beta   126.33350609
_cell_angle_gamma   90.00000000
_symmetry_Int_Tables_number   1
_chemical_formula_structural   Pr2Mn3(SbS3)4
_chemical_formula_sum   'Pr4 Mn6 Sb8 S24'
_cell_volume   942.00006694
_cell_formula_units_Z   2
loop_
 _symmetry_equiv_pos_site_id
 _symmetry_equiv_pos_as_xyz
  1  'x, y, z'
loop_
 _atom_site_type_symbol
 _atom_site_label
 _atom_site_symmetry_multiplicity
 _atom_site_fract_x
 _atom_site_fract_y
 _atom_site_fract_z
 _atom_site_occupancy
  Pr  Pr0  1  0.25965704  0.52306784  0.86469377  1
  Pr  Pr1  1  0.73513884  0.48603378  0.13732679  1
  Pr  Pr2  1  0.76332881  0.97919722  0.86842226  1
  Pr  Pr3  1  0.24612823  0.98654888  0.15075964  1
  Mn  Mn4  1  0.28980696  0.54153738  0.60653974  1
  Mn  Mn5  1  0.68720540  0.50103714  0.37613419  1
  Mn  Mn6  1  0.99752862  0.97608398  0.99109985  1
  Mn  Mn7  1  0.80416959  0.98279260  0.60265911  1
  Mn  Mn8  1  0.19708835  0.94524672  0.39028705  1
  Mn  Mn9  1  0.50591926  0.50497760  0.00683285  1
  Sb  Sb10  1  0.89748904  0.01089376  0.45157459  1
  Sb  Sb11  1  0.10675570  0.02166017  0.54668136  1
  Sb  Sb12  1  0.03603547  0.47914353  0.81201691  1
  Sb  Sb13  1  0.96285129  0.50778603  0.18575627  1
  Sb  Sb14  1  0.38921582  0.50119018  0.45182022  1
  Sb  Sb15  1  0.61446448  0.48266710  0.56653996  1
  Sb  Sb16  1  0.53708828  0.03181833  0.81987856  1
  Sb  Sb17  1  0.46172503  0.00121704  0.19485661  1
  S  S18  1  0.93512023  0.01117932  0.79983998  1
  S  S19  1  0.06004953  0.02765551  0.21636180  1
  S  S20  1  0.40536736  0.99736779  0.98215888  1
  S  S21  1  0.58085955  0.01266733  0.01437966  1
  S  S22  1  0.17104449  0.01691710  0.90619187  1
  S  S23  1  0.82811787  0.99981092  0.11211043  1
  S  S24  1  0.09215919  0.54003281  0.65033496  1
  S  S25  1  0.90816710  0.51213385  0.34630368  1
  S  S26  1  0.74372028  0.01040047  0.30757570  1
  S  S27  1  0.26631612  0.98014189  0.69528280  1
  S  S28  1  0.16134684  0.44733485  0.44916114  1
  S  S29  1  0.81947036  0.49124194  0.53936033  1
  S  S30  1  0.43011997  0.56125232  0.79624995  1
  S  S31  1  0.55818998  0.49453737  0.19009710  1
  S  S32  1  0.91395750  0.46963027  0.98324462  1
  S  S33  1  0.08048358  0.44136137  0.00256626  1
  S  S34  1  0.67161261  0.52132704  0.89913249  1
  S  S35  1  0.34151972  0.51698896  0.11302820  1
  S  S36  1  0.59669419  0.98181168  0.66539605  1
  S  S37  1  0.40847867  0.03989275  0.35844326  1
  S  S38  1  0.24737847  0.52364290  0.29624782  1
  S  S39  1  0.76255028  0.49033086  0.70643816  1
  S  S40  1  0.66140006  0.01027854  0.43211018  1
  S  S41  1  0.33008056  0.04335393  0.53926937  1
