# generated using pymatgen
data_Pr2Mn3(SbS3)4
_symmetry_space_group_name_H-M   'P 1'
_cell_length_a   20.02960800
_cell_length_b   3.90410600
_cell_length_c   14.95364829
_cell_angle_alpha   90.00000000
_cell_angle_beta   126.33350609
_cell_angle_gamma   90.00000000
_symmetry_Int_Tables_number   1
_chemical_formula_structural   Pr2Mn3(SbS3)4
_chemical_formula_sum   'Pr4 Mn6 Sb8 S24'
_cell_volume   942.00006694
_cell_formula_units_Z   2
loop_
 _symmetry_equiv_pos_site_id
 _symmetry_equiv_pos_as_xyz
  1  'x, y, z'
loop_
 _atom_site_type_symbol
 _atom_site_label
 _atom_site_symmetry_multiplicity
 _atom_site_fract_x
 _atom_site_fract_y
 _atom_site_fract_z
 _atom_site_occupancy
  Pr  Pr0  1  0.25958763  0.52334960  0.86465440  1
  Pr  Pr1  1  0.73516581  0.48585983  0.13752556  1
  Pr  Pr2  1  0.76346280  0.97902054  0.86859858  1
  Pr  Pr3  1  0.24627281  0.98662195  0.15088070  1
  Mn  Mn4  1  0.28954256  0.54127946  0.60629315  1
  Mn  Mn5  1  0.68719085  0.50151056  0.37631626  1
  Mn  Mn6  1  0.99775490  0.97600723  0.99155439  1
  Mn  Mn7  1  0.80402007  0.98199707  0.60216876  1
  Mn  Mn8  1  0.19696588  0.94444948  0.39028493  1
  Mn  Mn9  1  0.50578691  0.50452675  0.00667240  1
  Sb  Sb10  1  0.89763027  0.01043126  0.45145944  1
  Sb  Sb11  1  0.10665674  0.02118636  0.54657464  1
  Sb  Sb12  1  0.03602819  0.47951995  0.81220969  1
  Sb  Sb13  1  0.96287340  0.50728196  0.18578949  1
  Sb  Sb14  1  0.38911025  0.50171004  0.45179449  1
  Sb  Sb15  1  0.61454566  0.48191065  0.56657012  1
  Sb  Sb16  1  0.53702602  0.03148944  0.81980497  1
  Sb  Sb17  1  0.46191085  0.00107204  0.19513546  1
  S  S18  1  0.93529041  0.00991925  0.80002992  1
  S  S19  1  0.05959124  0.02705734  0.21586919  1
  S  S20  1  0.40535110  0.99727916  0.98215826  1
  S  S21  1  0.58049591  0.01332530  0.01413716  1
  S  S22  1  0.17108085  0.01629867  0.90598361  1
  S  S23  1  0.82828382  0.00088090  0.11221659  1
  S  S24  1  0.09209533  0.54056335  0.65003551  1
  S  S25  1  0.90808087  0.51423827  0.34672706  1
  S  S26  1  0.74393450  0.01038255  0.30784764  1
  S  S27  1  0.26616926  0.97987924  0.69510255  1
  S  S28  1  0.16079635  0.44732895  0.44917052  1
  S  S29  1  0.81932887  0.49135750  0.53922067  1
  S  S30  1  0.43035753  0.56125933  0.79669606  1
  S  S31  1  0.55825977  0.49429304  0.19039205  1
  S  S32  1  0.91412474  0.46944472  0.98339649  1
  S  S33  1  0.08058418  0.44369793  0.00264823  1
  S  S34  1  0.67124954  0.52152609  0.89895554  1
  S  S35  1  0.34136361  0.51694882  0.11292816  1
  S  S36  1  0.59724428  0.97879558  0.66607302  1
  S  S37  1  0.40858432  0.04027311  0.35834643  1
  S  S38  1  0.24681092  0.52407540  0.29553300  1
  S  S39  1  0.76208620  0.49065481  0.70635025  1
  S  S40  1  0.66139324  0.01022542  0.43206276  1
  S  S41  1  0.33012415  0.04477654  0.53906539  1
