# generated using pymatgen
data_Pr2Mn3(SbS3)4
_symmetry_space_group_name_H-M   'P 1'
_cell_length_a   20.02960800
_cell_length_b   3.90410600
_cell_length_c   14.95364829
_cell_angle_alpha   90.00000000
_cell_angle_beta   126.33350609
_cell_angle_gamma   90.00000000
_symmetry_Int_Tables_number   1
_chemical_formula_structural   Pr2Mn3(SbS3)4
_chemical_formula_sum   'Pr4 Mn6 Sb8 S24'
_cell_volume   942.00006694
_cell_formula_units_Z   2
loop_
 _symmetry_equiv_pos_site_id
 _symmetry_equiv_pos_as_xyz
  1  'x, y, z'
loop_
 _atom_site_type_symbol
 _atom_site_label
 _atom_site_symmetry_multiplicity
 _atom_site_fract_x
 _atom_site_fract_y
 _atom_site_fract_z
 _atom_site_occupancy
  Pr  Pr0  1  0.26691327  0.49530657  0.86429346  1
  Pr  Pr1  1  0.73642601  0.51119641  0.13709799  1
  Pr  Pr2  1  0.76289179  0.01056373  0.86104755  1
  Pr  Pr3  1  0.23485388  0.00088805  0.13489921  1
  Mn  Mn4  1  0.28752472  0.48097234  0.58993231  1
  Mn  Mn5  1  0.68657526  0.47843342  0.36794601  1
  Mn  Mn6  1  0.00863214  0.98593522  0.02047445  1
  Mn  Mn7  1  0.80560569  0.00703205  0.61945990  1
  Mn  Mn8  1  0.19816630  0.97808436  0.37349414  1
  Mn  Mn9  1  0.49211286  0.48019824  0.99090847  1
  Sb  Sb10  1  0.88970580  0.98928394  0.45098093  1
  Sb  Sb11  1  0.11157890  0.97941177  0.54568133  1
  Sb  Sb12  1  0.03924743  0.52112073  0.82118646  1
  Sb  Sb13  1  0.96189988  0.49925374  0.18311494  1
  Sb  Sb14  1  0.39499502  0.50485175  0.45056708  1
  Sb  Sb15  1  0.60664166  0.47053874  0.54922474  1
  Sb  Sb16  1  0.53380951  0.99770627  0.80840950  1
  Sb  Sb17  1  0.46522656  0.01703828  0.19023147  1
  S  S18  1  0.93734308  0.00473331  0.80525158  1
  S  S19  1  0.06540226  0.97726733  0.20140255  1
  S  S20  1  0.41427680  0.96342142  0.98090717  1
  S  S21  1  0.57812221  0.02797151  0.01000147  1
  S  S22  1  0.17191756  0.04237507  0.90341968  1
  S  S23  1  0.82609749  0.04966783  0.09578514  1
  S  S24  1  0.09547600  0.48095844  0.64674794  1
  S  S25  1  0.91201461  0.48986161  0.35422003  1
  S  S26  1  0.73774360  0.94691596  0.30078674  1
  S  S27  1  0.26141639  0.00503831  0.70617018  1
  S  S28  1  0.16026287  0.49700833  0.42292815  1
  S  S29  1  0.82425080  0.48909093  0.55071147  1
  S  S30  1  0.43090849  0.49821015  0.79898534  1
  S  S31  1  0.55475253  0.52600058  0.18264989  1
  S  S32  1  0.91059708  0.48771765  0.98662700  1
  S  S33  1  0.09321593  0.48891773  0.03227624  1
  S  S34  1  0.66170142  0.51156450  0.88387573  1
  S  S35  1  0.33160052  0.50335399  0.10149031  1
  S  S36  1  0.59842626  0.98773047  0.65702933  1
  S  S37  1  0.40182991  0.99214417  0.34349370  1
  S  S38  1  0.23816301  0.46046059  0.30936145  1
  S  S39  1  0.76020919  0.50198461  0.69373361  1
  S  S40  1  0.66775358  0.03461011  0.45016461  1
  S  S41  1  0.32860730  0.98607302  0.55530373  1
