# generated using pymatgen
data_Pr2Mn3(SbS3)4
_symmetry_space_group_name_H-M   'P 1'
_cell_length_a   20.02960800
_cell_length_b   3.90410600
_cell_length_c   14.95364829
_cell_angle_alpha   90.00000000
_cell_angle_beta   126.33350609
_cell_angle_gamma   90.00000000
_symmetry_Int_Tables_number   1
_chemical_formula_structural   Pr2Mn3(SbS3)4
_chemical_formula_sum   'Pr4 Mn6 Sb8 S24'
_cell_volume   942.00006694
_cell_formula_units_Z   2
loop_
 _symmetry_equiv_pos_site_id
 _symmetry_equiv_pos_as_xyz
  1  'x, y, z'
loop_
 _atom_site_type_symbol
 _atom_site_label
 _atom_site_symmetry_multiplicity
 _atom_site_fract_x
 _atom_site_fract_y
 _atom_site_fract_z
 _atom_site_occupancy
  Pr  Pr0  1  0.25952612  0.52326534  0.86453636  1
  Pr  Pr1  1  0.73521876  0.48579787  0.13772416  1
  Pr  Pr2  1  0.76353751  0.97854961  0.86874023  1
  Pr  Pr3  1  0.24647279  0.98620045  0.15105580  1
  Mn  Mn4  1  0.28928902  0.54103520  0.60595770  1
  Mn  Mn5  1  0.68732335  0.50239744  0.37648244  1
  Mn  Mn6  1  0.99793116  0.97604503  0.99205220  1
  Mn  Mn7  1  0.80392252  0.98140012  0.60172299  1
  Mn  Mn8  1  0.19680949  0.94406568  0.39029065  1
  Mn  Mn9  1  0.50564660  0.50410942  0.00642516  1
  Sb  Sb10  1  0.89774000  0.01016813  0.45134231  1
  Sb  Sb11  1  0.10659101  0.02066488  0.54642781  1
  Sb  Sb12  1  0.03598958  0.47962510  0.81239543  1
  Sb  Sb13  1  0.96290499  0.50733878  0.18586881  1
  Sb  Sb14  1  0.38904905  0.50235290  0.45184827  1
  Sb  Sb15  1  0.61459154  0.48130308  0.56654924  1
  Sb  Sb16  1  0.53697570  0.03155514  0.81977298  1
  Sb  Sb17  1  0.46197468  0.00111378  0.19527331  1
  S  S18  1  0.93541931  0.00824547  0.79998924  1
  S  S19  1  0.05927586  0.02632356  0.21556352  1
  S  S20  1  0.40522195  0.99721666  0.98194521  1
  S  S21  1  0.58006470  0.01341768  0.01398428  1
  S  S22  1  0.17112404  0.01524198  0.90586058  1
  S  S23  1  0.82855582  0.00209891  0.11229425  1
  S  S24  1  0.09194210  0.54074884  0.64964289  1
  S  S25  1  0.90808618  0.51635971  0.34724884  1
  S  S26  1  0.74417258  0.01084019  0.30797803  1
  S  S27  1  0.26614186  0.97983150  0.69488631  1
  S  S28  1  0.16011711  0.44753695  0.44917421  1
  S  S29  1  0.81930920  0.49064442  0.53910007  1
  S  S30  1  0.43057131  0.56224475  0.79712451  1
  S  S31  1  0.55817704  0.49449834  0.19053636  1
  S  S32  1  0.91408836  0.46897861  0.98318455  1
  S  S33  1  0.08069096  0.44582156  0.00277754  1
  S  S34  1  0.67092969  0.52171116  0.89872772  1
  S  S35  1  0.34116605  0.51732815  0.11277148  1
  S  S36  1  0.59749312  0.97517027  0.66657584  1
  S  S37  1  0.40845659  0.04057027  0.35822879  1
  S  S38  1  0.24620988  0.52467636  0.29447998  1
  S  S39  1  0.76169788  0.49038725  0.70636369  1
  S  S40  1  0.66144908  0.01005397  0.43208098  1
  S  S41  1  0.33023888  0.04592456  0.53889474  1
