# generated using pymatgen
data_Pr2Mn3(SbS3)4
_symmetry_space_group_name_H-M   'P 1'
_cell_length_a   20.02960800
_cell_length_b   3.90410600
_cell_length_c   14.95364829
_cell_angle_alpha   90.00000000
_cell_angle_beta   126.33350609
_cell_angle_gamma   90.00000000
_symmetry_Int_Tables_number   1
_chemical_formula_structural   Pr2Mn3(SbS3)4
_chemical_formula_sum   'Pr4 Mn6 Sb8 S24'
_cell_volume   942.00006694
_cell_formula_units_Z   2
loop_
 _symmetry_equiv_pos_site_id
 _symmetry_equiv_pos_as_xyz
  1  'x, y, z'
loop_
 _atom_site_type_symbol
 _atom_site_label
 _atom_site_symmetry_multiplicity
 _atom_site_fract_x
 _atom_site_fract_y
 _atom_site_fract_z
 _atom_site_occupancy
  Pr  Pr0  1  0.25956538  0.52327526  0.86452476  1
  Pr  Pr1  1  0.73526239  0.48592209  0.13790071  1
  Pr  Pr2  1  0.76358675  0.97808230  0.86892298  1
  Pr  Pr3  1  0.24667254  0.98576239  0.15119573  1
  Mn  Mn4  1  0.28909814  0.54103585  0.60569193  1
  Mn  Mn5  1  0.68738944  0.50296341  0.37666616  1
  Mn  Mn6  1  0.99805716  0.97607296  0.99240216  1
  Mn  Mn7  1  0.80386810  0.98080207  0.60138953  1
  Mn  Mn8  1  0.19658571  0.94321765  0.39022335  1
  Mn  Mn9  1  0.50535139  0.50375261  0.00618831  1
  Sb  Sb10  1  0.89788686  0.00983309  0.45122913  1
  Sb  Sb11  1  0.10652566  0.02041852  0.54627204  1
  Sb  Sb12  1  0.03596812  0.47972900  0.81260237  1
  Sb  Sb13  1  0.96287984  0.50716265  0.18597850  1
  Sb  Sb14  1  0.38901525  0.50312497  0.45194111  1
  Sb  Sb15  1  0.61453907  0.48114037  0.56643353  1
  Sb  Sb16  1  0.53685599  0.03183389  0.81967049  1
  Sb  Sb17  1  0.46199089  0.00143993  0.19541973  1
  S  S18  1  0.93536129  0.00672970  0.79999842  1
  S  S19  1  0.05906295  0.02584855  0.21543091  1
  S  S20  1  0.40517259  0.99697109  0.98169562  1
  S  S21  1  0.57980612  0.01315498  0.01410091  1
  S  S22  1  0.17103294  0.01416041  0.90561677  1
  S  S23  1  0.82877399  0.00298172  0.11244058  1
  S  S24  1  0.09183708  0.54113005  0.64939500  1
  S  S25  1  0.90809795  0.51774631  0.34785139  1
  S  S26  1  0.74441078  0.01133836  0.30806166  1
  S  S27  1  0.26595115  0.97938597  0.69438441  1
  S  S28  1  0.15950495  0.44806174  0.44928051  1
  S  S29  1  0.81920854  0.48975738  0.53886910  1
  S  S30  1  0.43053638  0.56281414  0.79715195  1
  S  S31  1  0.55819400  0.49446887  0.19071778  1
  S  S32  1  0.91391131  0.46863249  0.98287359  1
  S  S33  1  0.08087008  0.44740868  0.00301069  1
  S  S34  1  0.67053897  0.52200728  0.89843175  1
  S  S35  1  0.34082353  0.51746271  0.11277780  1
  S  S36  1  0.59768345  0.97196770  0.66696240  1
  S  S37  1  0.40827421  0.04096496  0.35811573  1
  S  S38  1  0.24553144  0.52532361  0.29347844  1
  S  S39  1  0.76144139  0.49056659  0.70649907  1
  S  S40  1  0.66150656  0.00954242  0.43193346  1
  S  S41  1  0.33029549  0.04661074  0.53877695  1
