# generated using pymatgen
data_Pr2Mn3(SbS3)4
_symmetry_space_group_name_H-M   'P 1'
_cell_length_a   20.02960800
_cell_length_b   3.90410600
_cell_length_c   14.95364829
_cell_angle_alpha   90.00000000
_cell_angle_beta   126.33350609
_cell_angle_gamma   90.00000000
_symmetry_Int_Tables_number   1
_chemical_formula_structural   Pr2Mn3(SbS3)4
_chemical_formula_sum   'Pr4 Mn6 Sb8 S24'
_cell_volume   942.00006694
_cell_formula_units_Z   2
loop_
 _symmetry_equiv_pos_site_id
 _symmetry_equiv_pos_as_xyz
  1  'x, y, z'
loop_
 _atom_site_type_symbol
 _atom_site_label
 _atom_site_symmetry_multiplicity
 _atom_site_fract_x
 _atom_site_fract_y
 _atom_site_fract_z
 _atom_site_occupancy
  Pr  Pr0  1  0.25964908  0.52306247  0.86457840  1
  Pr  Pr1  1  0.73516935  0.48579488  0.13793662  1
  Pr  Pr2  1  0.76363481  0.97784650  0.86913764  1
  Pr  Pr3  1  0.24679045  0.98529935  0.15120451  1
  Mn  Mn4  1  0.28897481  0.54049000  0.60559896  1
  Mn  Mn5  1  0.68736653  0.50233129  0.37680023  1
  Mn  Mn6  1  0.99820297  0.97642193  0.99265648  1
  Mn  Mn7  1  0.80388218  0.98048444  0.60109261  1
  Mn  Mn8  1  0.19638077  0.94254049  0.39028123  1
  Mn  Mn9  1  0.50500228  0.50355356  0.00595182  1
  Sb  Sb10  1  0.89802966  0.00939603  0.45114033  1
  Sb  Sb11  1  0.10647865  0.02028204  0.54618087  1
  Sb  Sb12  1  0.03591320  0.48021079  0.81275544  1
  Sb  Sb13  1  0.96284775  0.50676148  0.18605574  1
  Sb  Sb14  1  0.38901278  0.50388450  0.45197278  1
  Sb  Sb15  1  0.61448437  0.48085121  0.56635486  1
  Sb  Sb16  1  0.53674003  0.03194630  0.81958207  1
  Sb  Sb17  1  0.46199252  0.00194010  0.19555249  1
  S  S18  1  0.93523012  0.00612529  0.79978532  1
  S  S19  1  0.05891556  0.02504890  0.21531583  1
  S  S20  1  0.40514399  0.99670579  0.98160427  1
  S  S21  1  0.57966878  0.01257708  0.01410149  1
  S  S22  1  0.17087750  0.01310970  0.90525805  1
  S  S23  1  0.82904304  0.00438137  0.11275356  1
  S  S24  1  0.09185784  0.54091205  0.64958302  1
  S  S25  1  0.90806940  0.51877060  0.34820563  1
  S  S26  1  0.74448839  0.01218944  0.30793925  1
  S  S27  1  0.26571429  0.97910516  0.69382989  1
  S  S28  1  0.15903484  0.44896068  0.44949723  1
  S  S29  1  0.81913099  0.48937585  0.53865404  1
  S  S30  1  0.43053542  0.56354242  0.79687908  1
  S  S31  1  0.55811107  0.49366730  0.19071976  1
  S  S32  1  0.91357115  0.46902035  0.98243465  1
  S  S33  1  0.08106088  0.44833528  0.00323816  1
  S  S34  1  0.67031689  0.52176321  0.89837660  1
  S  S35  1  0.34043484  0.51723954  0.11267886  1
  S  S36  1  0.59803009  0.96906579  0.66749406  1
  S  S37  1  0.40815305  0.04106130  0.35810361  1
  S  S38  1  0.24495698  0.52606264  0.29236312  1
  S  S39  1  0.76128113  0.49092700  0.70689645  1
  S  S40  1  0.66172318  0.00861157  0.43195542  1
  S  S41  1  0.33042465  0.04752355  0.53866644  1
