# generated using pymatgen
data_Pr2Mn3(SbS3)4
_symmetry_space_group_name_H-M   'P 1'
_cell_length_a   20.02960800
_cell_length_b   3.90410600
_cell_length_c   14.95364829
_cell_angle_alpha   90.00000000
_cell_angle_beta   126.33350609
_cell_angle_gamma   90.00000000
_symmetry_Int_Tables_number   1
_chemical_formula_structural   Pr2Mn3(SbS3)4
_chemical_formula_sum   'Pr4 Mn6 Sb8 S24'
_cell_volume   942.00006694
_cell_formula_units_Z   2
loop_
 _symmetry_equiv_pos_site_id
 _symmetry_equiv_pos_as_xyz
  1  'x, y, z'
loop_
 _atom_site_type_symbol
 _atom_site_label
 _atom_site_symmetry_multiplicity
 _atom_site_fract_x
 _atom_site_fract_y
 _atom_site_fract_z
 _atom_site_occupancy
  Pr  Pr0  1  0.25981682  0.52281248  0.86465123  1
  Pr  Pr1  1  0.73507930  0.48557240  0.13792981  1
  Pr  Pr2  1  0.76363129  0.97753928  0.86922895  1
  Pr  Pr3  1  0.24690894  0.98473262  0.15114104  1
  Mn  Mn4  1  0.28888595  0.53986137  0.60554221  1
  Mn  Mn5  1  0.68735820  0.50192940  0.37690848  1
  Mn  Mn6  1  0.99839711  0.97671538  0.99287995  1
  Mn  Mn7  1  0.80382682  0.98051804  0.60084900  1
  Mn  Mn8  1  0.19600893  0.94227981  0.39022858  1
  Mn  Mn9  1  0.50474232  0.50331137  0.00569842  1
  Sb  Sb10  1  0.89811208  0.00871712  0.45103761  1
  Sb  Sb11  1  0.10645978  0.02039329  0.54615484  1
  Sb  Sb12  1  0.03585715  0.48038176  0.81288472  1
  Sb  Sb13  1  0.96283081  0.50622716  0.18609043  1
  Sb  Sb14  1  0.38907674  0.50450727  0.45209495  1
  Sb  Sb15  1  0.61441263  0.48046818  0.56622689  1
  Sb  Sb16  1  0.53654132  0.03219705  0.81939137  1
  Sb  Sb17  1  0.46209090  0.00216602  0.19572676  1
  S  S18  1  0.93503199  0.00522874  0.79928027  1
  S  S19  1  0.05885123  0.02485708  0.21517962  1
  S  S20  1  0.40521078  0.99669030  0.98147878  1
  S  S21  1  0.57949993  0.01149201  0.01414464  1
  S  S22  1  0.17083713  0.01178474  0.90515002  1
  S  S23  1  0.82924963  0.00574206  0.11283054  1
  S  S24  1  0.09168395  0.54111182  0.64972730  1
  S  S25  1  0.90823702  0.51979923  0.34855766  1
  S  S26  1  0.74446527  0.01262330  0.30788811  1
  S  S27  1  0.26532007  0.97927716  0.69321451  1
  S  S28  1  0.15866655  0.44966164  0.44976334  1
  S  S29  1  0.81921200  0.48923034  0.53842651  1
  S  S30  1  0.43048007  0.56416120  0.79646254  1
  S  S31  1  0.55802822  0.49258668  0.19077258  1
  S  S32  1  0.91330386  0.47005297  0.98198621  1
  S  S33  1  0.08117853  0.44947212  0.00338431  1
  S  S34  1  0.67011578  0.52172319  0.89831301  1
  S  S35  1  0.34003632  0.51723750  0.11264681  1
  S  S36  1  0.59844032  0.96682829  0.66805451  1
  S  S37  1  0.40789179  0.04114792  0.35796863  1
  S  S38  1  0.24450673  0.52640836  0.29130312  1
  S  S39  1  0.76128311  0.49103256  0.70730897  1
  S  S40  1  0.66178431  0.00786153  0.43185631  1
  S  S41  1  0.33060638  0.04826002  0.53846598  1
