# generated using pymatgen
data_Pr2Mn3(SbS3)4
_symmetry_space_group_name_H-M   'P 1'
_cell_length_a   20.02960800
_cell_length_b   3.90410600
_cell_length_c   14.95364829
_cell_angle_alpha   90.00000000
_cell_angle_beta   126.33350609
_cell_angle_gamma   90.00000000
_symmetry_Int_Tables_number   1
_chemical_formula_structural   Pr2Mn3(SbS3)4
_chemical_formula_sum   'Pr4 Mn6 Sb8 S24'
_cell_volume   942.00006694
_cell_formula_units_Z   2
loop_
 _symmetry_equiv_pos_site_id
 _symmetry_equiv_pos_as_xyz
  1  'x, y, z'
loop_
 _atom_site_type_symbol
 _atom_site_label
 _atom_site_symmetry_multiplicity
 _atom_site_fract_x
 _atom_site_fract_y
 _atom_site_fract_z
 _atom_site_occupancy
  Pr  Pr0  1  0.25998781  0.52269150  0.86477892  1
  Pr  Pr1  1  0.73501541  0.48524123  0.13791270  1
  Pr  Pr2  1  0.76352301  0.97713590  0.86923863  1
  Pr  Pr3  1  0.24705462  0.98395035  0.15114373  1
  Mn  Mn4  1  0.28876258  0.53912735  0.60555940  1
  Mn  Mn5  1  0.68730676  0.50141612  0.37689508  1
  Mn  Mn6  1  0.99859200  0.97709528  0.99319335  1
  Mn  Mn7  1  0.80379668  0.98057163  0.60075088  1
  Mn  Mn8  1  0.19575126  0.94109787  0.39018346  1
  Mn  Mn9  1  0.50428171  0.50340696  0.00518524  1
  Sb  Sb10  1  0.89815365  0.00824460  0.45093255  1
  Sb  Sb11  1  0.10642073  0.02089232  0.54607183  1
  Sb  Sb12  1  0.03583584  0.48058758  0.81294637  1
  Sb  Sb13  1  0.96277565  0.50605559  0.18600378  1
  Sb  Sb14  1  0.38914887  0.50519231  0.45216103  1
  Sb  Sb15  1  0.61438816  0.48017674  0.56611706  1
  Sb  Sb16  1  0.53639523  0.03255404  0.81916628  1
  Sb  Sb17  1  0.46218149  0.00263490  0.19587071  1
  S  S18  1  0.93481468  0.00480345  0.79883305  1
  S  S19  1  0.05879491  0.02528031  0.21522142  1
  S  S20  1  0.40541354  0.99723777  0.98143754  1
  S  S21  1  0.57924443  0.01068433  0.01400068  1
  S  S22  1  0.17086896  0.01111458  0.90486293  1
  S  S23  1  0.82937725  0.00697620  0.11300017  1
  S  S24  1  0.09151846  0.54148579  0.64983106  1
  S  S25  1  0.90856312  0.52031188  0.34922505  1
  S  S26  1  0.74445625  0.01301310  0.30786844  1
  S  S27  1  0.26497245  0.97921656  0.69247273  1
  S  S28  1  0.15830268  0.45022879  0.45000209  1
  S  S29  1  0.81919580  0.48923278  0.53824655  1
  S  S30  1  0.43035608  0.56470666  0.79611225  1
  S  S31  1  0.55784587  0.49208516  0.19048405  1
  S  S32  1  0.91301355  0.47155439  0.98148280  1
  S  S33  1  0.08129193  0.45008667  0.00350759  1
  S  S34  1  0.66994352  0.52138080  0.89812151  1
  S  S35  1  0.33958938  0.51712717  0.11251447  1
  S  S36  1  0.59868965  0.96472535  0.66848763  1
  S  S37  1  0.40757147  0.04130434  0.35774019  1
  S  S38  1  0.24395208  0.52697195  0.29020236  1
  S  S39  1  0.76138318  0.49073511  0.70774363  1
  S  S40  1  0.66182904  0.00784468  0.43168208  1
  S  S41  1  0.33096989  0.04853104  0.53857688  1
