# generated using pymatgen
data_Pr2Mn3(SbS3)4
_symmetry_space_group_name_H-M   'P 1'
_cell_length_a   20.02960800
_cell_length_b   3.90410600
_cell_length_c   14.95364829
_cell_angle_alpha   90.00000000
_cell_angle_beta   126.33350609
_cell_angle_gamma   90.00000000
_symmetry_Int_Tables_number   1
_chemical_formula_structural   Pr2Mn3(SbS3)4
_chemical_formula_sum   'Pr4 Mn6 Sb8 S24'
_cell_volume   942.00006694
_cell_formula_units_Z   2
loop_
 _symmetry_equiv_pos_site_id
 _symmetry_equiv_pos_as_xyz
  1  'x, y, z'
loop_
 _atom_site_type_symbol
 _atom_site_label
 _atom_site_symmetry_multiplicity
 _atom_site_fract_x
 _atom_site_fract_y
 _atom_site_fract_z
 _atom_site_occupancy
  Pr  Pr0  1  0.26019534  0.52276690  0.86495021  1
  Pr  Pr1  1  0.73499644  0.48486813  0.13792100  1
  Pr  Pr2  1  0.76344030  0.97695417  0.86917458  1
  Pr  Pr3  1  0.24718895  0.98345610  0.15121309  1
  Mn  Mn4  1  0.28873365  0.53840888  0.60565819  1
  Mn  Mn5  1  0.68739635  0.50120573  0.37684319  1
  Mn  Mn6  1  0.99880406  0.97762858  0.99363850  1
  Mn  Mn7  1  0.80386971  0.98073881  0.60063331  1
  Mn  Mn8  1  0.19547179  0.94023992  0.39012308  1
  Mn  Mn9  1  0.50377657  0.50378865  0.00466541  1
  Sb  Sb10  1  0.89826356  0.00766121  0.45098732  1
  Sb  Sb11  1  0.10642051  0.02131972  0.54603359  1
  Sb  Sb12  1  0.03578932  0.48080176  0.81303288  1
  Sb  Sb13  1  0.96268495  0.50540702  0.18589615  1
  Sb  Sb14  1  0.38925927  0.50549530  0.45217700  1
  Sb  Sb15  1  0.61437699  0.47964779  0.56601128  1
  Sb  Sb16  1  0.53631757  0.03259683  0.81894439  1
  Sb  Sb17  1  0.46225027  0.00319166  0.19607402  1
  S  S18  1  0.93464088  0.00460643  0.79856549  1
  S  S19  1  0.05876844  0.02568919  0.21535866  1
  S  S20  1  0.40562532  0.99769312  0.98145878  1
  S  S21  1  0.57911137  0.00949469  0.01401935  1
  S  S22  1  0.17095002  0.01020905  0.90483128  1
  S  S23  1  0.82957068  0.00835648  0.11320155  1
  S  S24  1  0.09138259  0.54156667  0.64993399  1
  S  S25  1  0.90894633  0.52169859  0.34973487  1
  S  S26  1  0.74446382  0.01401440  0.30803509  1
  S  S27  1  0.26460477  0.97904511  0.69155043  1
  S  S28  1  0.15801825  0.45097067  0.45019195  1
  S  S29  1  0.81934335  0.48864005  0.53821535  1
  S  S30  1  0.43031044  0.56518438  0.79585387  1
  S  S31  1  0.55774757  0.49206530  0.19031066  1
  S  S32  1  0.91287972  0.47333595  0.98117949  1
  S  S33  1  0.08140965  0.45108938  0.00349251  1
  S  S34  1  0.66966181  0.52131903  0.89810772  1
  S  S35  1  0.33903885  0.51771649  0.11235476  1
  S  S36  1  0.59896642  0.96249637  0.66885861  1
  S  S37  1  0.40736280  0.04139908  0.35747946  1
  S  S38  1  0.24336844  0.52822514  0.28928466  1
  S  S39  1  0.76164719  0.49025001  0.70835913  1
  S  S40  1  0.66203297  0.00720282  0.43171420  1
  S  S41  1  0.33119024  0.04897249  0.53864865  1
