# generated using pymatgen
data_Pr2Mn3(SbS3)4
_symmetry_space_group_name_H-M   'P 1'
_cell_length_a   20.02960800
_cell_length_b   3.90410600
_cell_length_c   14.95364829
_cell_angle_alpha   90.00000000
_cell_angle_beta   126.33350609
_cell_angle_gamma   90.00000000
_symmetry_Int_Tables_number   1
_chemical_formula_structural   Pr2Mn3(SbS3)4
_chemical_formula_sum   'Pr4 Mn6 Sb8 S24'
_cell_volume   942.00006694
_cell_formula_units_Z   2
loop_
 _symmetry_equiv_pos_site_id
 _symmetry_equiv_pos_as_xyz
  1  'x, y, z'
loop_
 _atom_site_type_symbol
 _atom_site_label
 _atom_site_symmetry_multiplicity
 _atom_site_fract_x
 _atom_site_fract_y
 _atom_site_fract_z
 _atom_site_occupancy
  Pr  Pr0  1  0.26033148  0.52282398  0.86498643  1
  Pr  Pr1  1  0.73491307  0.48469460  0.13791388  1
  Pr  Pr2  1  0.76334688  0.97677462  0.86912473  1
  Pr  Pr3  1  0.24729277  0.98295038  0.15136855  1
  Mn  Mn4  1  0.28860972  0.53773095  0.60568407  1
  Mn  Mn5  1  0.68759253  0.50073231  0.37669177  1
  Mn  Mn6  1  0.99910941  0.97777302  0.99402098  1
  Mn  Mn7  1  0.80384571  0.98033038  0.60040685  1
  Mn  Mn8  1  0.19515224  0.93947383  0.39003626  1
  Mn  Mn9  1  0.50332026  0.50426472  0.00414763  1
  Sb  Sb10  1  0.89835873  0.00723752  0.45099668  1
  Sb  Sb11  1  0.10640356  0.02200881  0.54594374  1
  Sb  Sb12  1  0.03568647  0.48094437  0.81300368  1
  Sb  Sb13  1  0.96263876  0.50529787  0.18587652  1
  Sb  Sb14  1  0.38933786  0.50564893  0.45216338  1
  Sb  Sb15  1  0.61437929  0.47912086  0.56592098  1
  Sb  Sb16  1  0.53631678  0.03258992  0.81886966  1
  Sb  Sb17  1  0.46226447  0.00348581  0.19621648  1
  S  S18  1  0.93438230  0.00471424  0.79824082  1
  S  S19  1  0.05873288  0.02592991  0.21539051  1
  S  S20  1  0.40588843  0.99789067  0.98168122  1
  S  S21  1  0.57899650  0.00896750  0.01405417  1
  S  S22  1  0.17093710  0.00850447  0.90452210  1
  S  S23  1  0.82968247  0.01020263  0.11347251  1
  S  S24  1  0.09127924  0.54173730  0.65012094  1
  S  S25  1  0.90930064  0.52271174  0.35023357  1
  S  S26  1  0.74442040  0.01484540  0.30821478  1
  S  S27  1  0.26432329  0.97896197  0.69081055  1
  S  S28  1  0.15774726  0.45173575  0.45031713  1
  S  S29  1  0.81939868  0.48759624  0.53832281  1
  S  S30  1  0.43023868  0.56535381  0.79547395  1
  S  S31  1  0.55785447  0.49193186  0.19036139  1
  S  S32  1  0.91255046  0.47595193  0.98053931  1
  S  S33  1  0.08134639  0.45166947  0.00332480  1
  S  S34  1  0.66944004  0.52099097  0.89809103  1
  S  S35  1  0.33848457  0.51765921  0.11213896  1
  S  S36  1  0.59913341  0.96059711  0.66918587  1
  S  S37  1  0.40708074  0.04172083  0.35720351  1
  S  S38  1  0.24284050  0.52933073  0.28856840  1
  S  S39  1  0.76193356  0.48946443  0.70896891  1
  S  S40  1  0.66203543  0.00619170  0.43157982  1
  S  S41  1  0.33131020  0.04895279  0.53865292  1
