# generated using pymatgen
data_Pr2Mn3(SbS3)4
_symmetry_space_group_name_H-M   'P 1'
_cell_length_a   20.02960800
_cell_length_b   3.90410600
_cell_length_c   14.95364829
_cell_angle_alpha   90.00000000
_cell_angle_beta   126.33350609
_cell_angle_gamma   90.00000000
_symmetry_Int_Tables_number   1
_chemical_formula_structural   Pr2Mn3(SbS3)4
_chemical_formula_sum   'Pr4 Mn6 Sb8 S24'
_cell_volume   942.00006694
_cell_formula_units_Z   2
loop_
 _symmetry_equiv_pos_site_id
 _symmetry_equiv_pos_as_xyz
  1  'x, y, z'
loop_
 _atom_site_type_symbol
 _atom_site_label
 _atom_site_symmetry_multiplicity
 _atom_site_fract_x
 _atom_site_fract_y
 _atom_site_fract_z
 _atom_site_occupancy
  Pr  Pr0  1  0.26041590  0.52299191  0.86504492  1
  Pr  Pr1  1  0.73477387  0.48451108  0.13785039  1
  Pr  Pr2  1  0.76317382  0.97668613  0.86901293  1
  Pr  Pr3  1  0.24747057  0.98238623  0.15150281  1
  Mn  Mn4  1  0.28847817  0.53658458  0.60568726  1
  Mn  Mn5  1  0.68771519  0.50022284  0.37647099  1
  Mn  Mn6  1  0.99954127  0.97783460  0.99447132  1
  Mn  Mn7  1  0.80394319  0.98052766  0.60031324  1
  Mn  Mn8  1  0.19473769  0.93853118  0.39004418  1
  Mn  Mn9  1  0.50290259  0.50494022  0.00375712  1
  Sb  Sb10  1  0.89832761  0.00646437  0.45085206  1
  Sb  Sb11  1  0.10636956  0.02259011  0.54588796  1
  Sb  Sb12  1  0.03557111  0.48104218  0.81290686  1
  Sb  Sb13  1  0.96259681  0.50524153  0.18579314  1
  Sb  Sb14  1  0.38939368  0.50568287  0.45207635  1
  Sb  Sb15  1  0.61432238  0.47881265  0.56571926  1
  Sb  Sb16  1  0.53633759  0.03275263  0.81886433  1
  Sb  Sb17  1  0.46224295  0.00375826  0.19630108  1
  S  S18  1  0.93422414  0.00466598  0.79796655  1
  S  S19  1  0.05880546  0.02667718  0.21546211  1
  S  S20  1  0.40611720  0.99898310  0.98197972  1
  S  S21  1  0.57885283  0.00855668  0.01400568  1
  S  S22  1  0.17104816  0.00705597  0.90429137  1
  S  S23  1  0.82974457  0.01195267  0.11346281  1
  S  S24  1  0.09121391  0.54137893  0.65039880  1
  S  S25  1  0.90948038  0.52361381  0.35060995  1
  S  S26  1  0.74441942  0.01579477  0.30836372  1
  S  S27  1  0.26406327  0.97894885  0.69011711  1
  S  S28  1  0.15746790  0.45226504  0.45024780  1
  S  S29  1  0.81947906  0.48668696  0.53842181  1
  S  S30  1  0.43012536  0.56544590  0.79515596  1
  S  S31  1  0.55795111  0.49181373  0.19019103  1
  S  S32  1  0.91221812  0.47827305  0.97996885  1
  S  S33  1  0.08120820  0.45299763  0.00317539  1
  S  S34  1  0.66913248  0.52129042  0.89783273  1
  S  S35  1  0.33794089  0.51756418  0.11192430  1
  S  S36  1  0.59921503  0.95950100  0.66942017  1
  S  S37  1  0.40674144  0.04215910  0.35669322  1
  S  S38  1  0.24231114  0.53057786  0.28789785  1
  S  S39  1  0.76212239  0.48867917  0.70948665  1
  S  S40  1  0.66226891  0.00555284  0.43171437  1
  S  S41  1  0.33157939  0.04836805  0.53886828  1
