# generated using pymatgen
data_Pr2Mn3(SbS3)4
_symmetry_space_group_name_H-M   'P 1'
_cell_length_a   20.02960800
_cell_length_b   3.90410600
_cell_length_c   14.95364829
_cell_angle_alpha   90.00000000
_cell_angle_beta   126.33350609
_cell_angle_gamma   90.00000000
_symmetry_Int_Tables_number   1
_chemical_formula_structural   Pr2Mn3(SbS3)4
_chemical_formula_sum   'Pr4 Mn6 Sb8 S24'
_cell_volume   942.00006694
_cell_formula_units_Z   2
loop_
 _symmetry_equiv_pos_site_id
 _symmetry_equiv_pos_as_xyz
  1  'x, y, z'
loop_
 _atom_site_type_symbol
 _atom_site_label
 _atom_site_symmetry_multiplicity
 _atom_site_fract_x
 _atom_site_fract_y
 _atom_site_fract_z
 _atom_site_occupancy
  Pr  Pr0  1  0.26047625  0.52304131  0.86501718  1
  Pr  Pr1  1  0.73465167  0.48425133  0.13772131  1
  Pr  Pr2  1  0.76304501  0.97666927  0.86897205  1
  Pr  Pr3  1  0.24762329  0.98169898  0.15157341  1
  Mn  Mn4  1  0.28839780  0.53562176  0.60569893  1
  Mn  Mn5  1  0.68771655  0.49915033  0.37611345  1
  Mn  Mn6  1  0.99992043  0.97825715  0.99502191  1
  Mn  Mn7  1  0.80405297  0.98055352  0.60015078  1
  Mn  Mn8  1  0.19435349  0.93774892  0.39021356  1
  Mn  Mn9  1  0.50250612  0.50530000  0.00336178  1
  Sb  Sb10  1  0.89833123  0.00605812  0.45064425  1
  Sb  Sb11  1  0.10636868  0.02297134  0.54583786  1
  Sb  Sb12  1  0.03539588  0.48134405  0.81275349  1
  Sb  Sb13  1  0.96251468  0.50539377  0.18567735  1
  Sb  Sb14  1  0.38945678  0.50550504  0.45194810  1
  Sb  Sb15  1  0.61429817  0.47822912  0.56562791  1
  Sb  Sb16  1  0.53630784  0.03297162  0.81879774  1
  Sb  Sb17  1  0.46218189  0.00369811  0.19630452  1
  S  S18  1  0.93399578  0.00437702  0.79778986  1
  S  S19  1  0.05899017  0.02801626  0.21551368  1
  S  S20  1  0.40633003  0.00036924  0.98236383  1
  S  S21  1  0.57869393  0.00873176  0.01406258  1
  S  S22  1  0.17113492  0.00584410  0.90408644  1
  S  S23  1  0.82963153  0.01289229  0.11341222  1
  S  S24  1  0.09116362  0.54132128  0.65056428  1
  S  S25  1  0.90964652  0.52400319  0.35111454  1
  S  S26  1  0.74432657  0.01680462  0.30831565  1
  S  S27  1  0.26388613  0.97918800  0.68948941  1
  S  S28  1  0.15727372  0.45337600  0.45011871  1
  S  S29  1  0.81963740  0.48619689  0.53852716  1
  S  S30  1  0.43022459  0.56519768  0.79501408  1
  S  S31  1  0.55817270  0.49203806  0.18992416  1
  S  S32  1  0.91191132  0.47988530  0.97950013  1
  S  S33  1  0.08106455  0.45414047  0.00300047  1
  S  S34  1  0.66865773  0.52100429  0.89750173  1
  S  S35  1  0.33753719  0.51688933  0.11158140  1
  S  S36  1  0.59920089  0.95815579  0.66952286  1
  S  S37  1  0.40647667  0.04320547  0.35628097  1
  S  S38  1  0.24178741  0.53165427  0.28703384  1
  S  S39  1  0.76220217  0.48795575  0.70986091  1
  S  S40  1  0.66263242  0.00581460  0.43215457  1
  S  S41  1  0.33182352  0.04793011  0.53907446  1
