# generated using pymatgen
data_Pr2Mn3(SbS3)4
_symmetry_space_group_name_H-M   'P 1'
_cell_length_a   20.02960800
_cell_length_b   3.90410600
_cell_length_c   14.95364829
_cell_angle_alpha   90.00000000
_cell_angle_beta   126.33350609
_cell_angle_gamma   90.00000000
_symmetry_Int_Tables_number   1
_chemical_formula_structural   Pr2Mn3(SbS3)4
_chemical_formula_sum   'Pr4 Mn6 Sb8 S24'
_cell_volume   942.00006694
_cell_formula_units_Z   2
loop_
 _symmetry_equiv_pos_site_id
 _symmetry_equiv_pos_as_xyz
  1  'x, y, z'
loop_
 _atom_site_type_symbol
 _atom_site_label
 _atom_site_symmetry_multiplicity
 _atom_site_fract_x
 _atom_site_fract_y
 _atom_site_fract_z
 _atom_site_occupancy
  Pr  Pr0  1  0.26042072  0.52294290  0.86497302  1
  Pr  Pr1  1  0.73464628  0.48393564  0.13776833  1
  Pr  Pr2  1  0.76293262  0.97701741  0.86893096  1
  Pr  Pr3  1  0.24773752  0.98133785  0.15155067  1
  Mn  Mn4  1  0.28829939  0.53459297  0.60576603  1
  Mn  Mn5  1  0.68770318  0.49743724  0.37579669  1
  Mn  Mn6  1  0.00024364  0.97863227  0.99552341  1
  Mn  Mn7  1  0.80413783  0.98042862  0.60001503  1
  Mn  Mn8  1  0.19392516  0.93739532  0.39030801  1
  Mn  Mn9  1  0.50213250  0.50571742  0.00298200  1
  Sb  Sb10  1  0.89833363  0.00567874  0.45044471  1
  Sb  Sb11  1  0.10635787  0.02337581  0.54582167  1
  Sb  Sb12  1  0.03538097  0.48179595  0.81270191  1
  Sb  Sb13  1  0.96247390  0.50543465  0.18562202  1
  Sb  Sb14  1  0.38954647  0.50536183  0.45189698  1
  Sb  Sb15  1  0.61430868  0.47762043  0.56548340  1
  Sb  Sb16  1  0.53627095  0.03322222  0.81866512  1
  Sb  Sb17  1  0.46214537  0.00338960  0.19629760  1
  S  S18  1  0.93376449  0.00359527  0.79771530  1
  S  S19  1  0.05903689  0.02837519  0.21541573  1
  S  S20  1  0.40667018  0.00185531  0.98283009  1
  S  S21  1  0.57861359  0.00865676  0.01413085  1
  S  S22  1  0.17106770  0.00436659  0.90374683  1
  S  S23  1  0.82941751  0.01385601  0.11328590  1
  S  S24  1  0.09098249  0.54105351  0.65076354  1
  S  S25  1  0.90977196  0.52487083  0.35140378  1
  S  S26  1  0.74418230  0.01777403  0.30828490  1
  S  S27  1  0.26383414  0.97890168  0.68915557  1
  S  S28  1  0.15696910  0.45406460  0.44984857  1
  S  S29  1  0.81964944  0.48529452  0.53857656  1
  S  S30  1  0.43028326  0.56552105  0.79477571  1
  S  S31  1  0.55828634  0.49246998  0.18960108  1
  S  S32  1  0.91163852  0.48222615  0.97902244  1
  S  S33  1  0.08099096  0.45520482  0.00292613  1
  S  S34  1  0.66815895  0.52077572  0.89706413  1
  S  S35  1  0.33709557  0.51612060  0.11113199  1
  S  S36  1  0.59918940  0.95689493  0.66960580  1
  S  S37  1  0.40600864  0.04356586  0.35572951  1
  S  S38  1  0.24112305  0.53258294  0.28614672  1
  S  S39  1  0.76225685  0.48720041  0.71011702  1
  S  S40  1  0.66314814  0.00628072  0.43255464  1
  S  S41  1  0.33204811  0.04768445  0.53928799  1
