# generated using pymatgen
data_Pr2Mn3(SbS3)4
_symmetry_space_group_name_H-M   'P 1'
_cell_length_a   20.02960800
_cell_length_b   3.90410600
_cell_length_c   14.95364829
_cell_angle_alpha   90.00000000
_cell_angle_beta   126.33350609
_cell_angle_gamma   90.00000000
_symmetry_Int_Tables_number   1
_chemical_formula_structural   Pr2Mn3(SbS3)4
_chemical_formula_sum   'Pr4 Mn6 Sb8 S24'
_cell_volume   942.00006694
_cell_formula_units_Z   2
loop_
 _symmetry_equiv_pos_site_id
 _symmetry_equiv_pos_as_xyz
  1  'x, y, z'
loop_
 _atom_site_type_symbol
 _atom_site_label
 _atom_site_symmetry_multiplicity
 _atom_site_fract_x
 _atom_site_fract_y
 _atom_site_fract_z
 _atom_site_occupancy
  Pr  Pr0  1  0.26693924  0.49587643  0.86438683  1
  Pr  Pr1  1  0.73637417  0.51134230  0.13699788  1
  Pr  Pr2  1  0.76296993  0.01082833  0.86102088  1
  Pr  Pr3  1  0.23490063  0.00011764  0.13488666  1
  Mn  Mn4  1  0.28766610  0.48150256  0.58989771  1
  Mn  Mn5  1  0.68639481  0.47699047  0.36773993  1
  Mn  Mn6  1  0.00852349  0.98624120  0.02039936  1
  Mn  Mn7  1  0.80545073  0.00746846  0.61931247  1
  Mn  Mn8  1  0.19802832  0.97816365  0.37331871  1
  Mn  Mn9  1  0.49196331  0.47995103  0.99077820  1
  Sb  Sb10  1  0.88974329  0.98884096  0.45104764  1
  Sb  Sb11  1  0.11163063  0.97996037  0.54568138  1
  Sb  Sb12  1  0.03909201  0.52084464  0.82114652  1
  Sb  Sb13  1  0.96192984  0.49943781  0.18319200  1
  Sb  Sb14  1  0.39488724  0.50494883  0.45056334  1
  Sb  Sb15  1  0.60666394  0.47058680  0.54938362  1
  Sb  Sb16  1  0.53388775  0.99730202  0.80842537  1
  Sb  Sb17  1  0.46529082  0.01741156  0.19031611  1
  S  S18  1  0.93744041  0.00478398  0.80539292  1
  S  S19  1  0.06517923  0.97665135  0.20130118  1
  S  S20  1  0.41462460  0.96213511  0.98097785  1
  S  S21  1  0.57816589  0.02924592  0.00998254  1
  S  S22  1  0.17187078  0.04417404  0.90346659  1
  S  S23  1  0.82633439  0.04916513  0.09602484  1
  S  S24  1  0.09522892  0.48096705  0.64680749  1
  S  S25  1  0.91234293  0.49008530  0.35473052  1
  S  S26  1  0.73762567  0.94755197  0.30098197  1
  S  S27  1  0.26146857  0.00610272  0.70619720  1
  S  S28  1  0.16026464  0.49815091  0.42247474  1
  S  S29  1  0.82403266  0.48971368  0.55057920  1
  S  S30  1  0.43080476  0.49805933  0.79881421  1
  S  S31  1  0.55465002  0.52692846  0.18237807  1
  S  S32  1  0.91077540  0.48792714  0.98679188  1
  S  S33  1  0.09318755  0.48950565  0.03251045  1
  S  S34  1  0.66169706  0.51198274  0.88396807  1
  S  S35  1  0.33156712  0.50338989  0.10161893  1
  S  S36  1  0.59854186  0.98876262  0.65732948  1
  S  S37  1  0.40162097  0.99221241  0.34319607  1
  S  S38  1  0.23828733  0.46071636  0.30949768  1
  S  S39  1  0.76019091  0.50313944  0.69343067  1
  S  S40  1  0.66776653  0.03474892  0.44992676  1
  S  S41  1  0.32891425  0.98590846  0.55553786  1
