# generated using pymatgen
data_Pr2Mn3(SbS3)4
_symmetry_space_group_name_H-M   'P 1'
_cell_length_a   20.02960800
_cell_length_b   3.90410600
_cell_length_c   14.95364829
_cell_angle_alpha   90.00000000
_cell_angle_beta   126.33350609
_cell_angle_gamma   90.00000000
_symmetry_Int_Tables_number   1
_chemical_formula_structural   Pr2Mn3(SbS3)4
_chemical_formula_sum   'Pr4 Mn6 Sb8 S24'
_cell_volume   942.00006694
_cell_formula_units_Z   2
loop_
 _symmetry_equiv_pos_site_id
 _symmetry_equiv_pos_as_xyz
  1  'x, y, z'
loop_
 _atom_site_type_symbol
 _atom_site_label
 _atom_site_symmetry_multiplicity
 _atom_site_fract_x
 _atom_site_fract_y
 _atom_site_fract_z
 _atom_site_occupancy
  Pr  Pr0  1  0.26040527  0.52251192  0.86497407  1
  Pr  Pr1  1  0.73476836  0.48372036  0.13794288  1
  Pr  Pr2  1  0.76283229  0.97725981  0.86890871  1
  Pr  Pr3  1  0.24785003  0.98116765  0.15154707  1
  Mn  Mn4  1  0.28829455  0.53383859  0.60584092  1
  Mn  Mn5  1  0.68767735  0.49620723  0.37563843  1
  Mn  Mn6  1  0.00060901  0.97885923  0.99613726  1
  Mn  Mn7  1  0.80418939  0.98065960  0.59988136  1
  Mn  Mn8  1  0.19346045  0.93734277  0.39030556  1
  Mn  Mn9  1  0.50177538  0.50657242  0.00250854  1
  Sb  Sb10  1  0.89836019  0.00540125  0.45024480  1
  Sb  Sb11  1  0.10632899  0.02385341  0.54587995  1
  Sb  Sb12  1  0.03553939  0.48207885  0.81278634  1
  Sb  Sb13  1  0.96246852  0.50524639  0.18548741  1
  Sb  Sb14  1  0.38960771  0.50523584  0.45181594  1
  Sb  Sb15  1  0.61439070  0.47708758  0.56531793  1
  Sb  Sb16  1  0.53620148  0.03333605  0.81856303  1
  Sb  Sb17  1  0.46212773  0.00311161  0.19625870  1
  S  S18  1  0.93364576  0.00212552  0.79769470  1
  S  S19  1  0.05912738  0.02900967  0.21543525  1
  S  S20  1  0.40727625  0.00337445  0.98348148  1
  S  S21  1  0.57864037  0.00883703  0.01414506  1
  S  S22  1  0.17109127  0.00325224  0.90345981  1
  S  S23  1  0.82932789  0.01431776  0.11318478  1
  S  S24  1  0.09083875  0.54040412  0.65087954  1
  S  S25  1  0.90975391  0.52540489  0.35166812  1
  S  S26  1  0.74406168  0.01798223  0.30828783  1
  S  S27  1  0.26391266  0.97821303  0.68910951  1
  S  S28  1  0.15671170  0.45476355  0.44956313  1
  S  S29  1  0.81968396  0.48434542  0.53852400  1
  S  S30  1  0.43037395  0.56615644  0.79474055  1
  S  S31  1  0.55846195  0.49279984  0.18937901  1
  S  S32  1  0.91129807  0.48445836  0.97861936  1
  S  S33  1  0.08096971  0.45620330  0.00287068  1
  S  S34  1  0.66764431  0.52097679  0.89670886  1
  S  S35  1  0.33664269  0.51588034  0.11055104  1
  S  S36  1  0.59914155  0.95540398  0.66979069  1
  S  S37  1  0.40549741  0.04385384  0.35540246  1
  S  S38  1  0.24041892  0.53339217  0.28518833  1
  S  S39  1  0.76209954  0.48616088  0.71018093  1
  S  S40  1  0.66364134  0.00618641  0.43277305  1
  S  S41  1  0.33224128  0.04711395  0.53946113  1
