# generated using pymatgen
data_Pr2Mn3(SbS3)4
_symmetry_space_group_name_H-M   'P 1'
_cell_length_a   20.02960800
_cell_length_b   3.90410600
_cell_length_c   14.95364829
_cell_angle_alpha   90.00000000
_cell_angle_beta   126.33350609
_cell_angle_gamma   90.00000000
_symmetry_Int_Tables_number   1
_chemical_formula_structural   Pr2Mn3(SbS3)4
_chemical_formula_sum   'Pr4 Mn6 Sb8 S24'
_cell_volume   942.00006694
_cell_formula_units_Z   2
loop_
 _symmetry_equiv_pos_site_id
 _symmetry_equiv_pos_as_xyz
  1  'x, y, z'
loop_
 _atom_site_type_symbol
 _atom_site_label
 _atom_site_symmetry_multiplicity
 _atom_site_fract_x
 _atom_site_fract_y
 _atom_site_fract_z
 _atom_site_occupancy
  Pr  Pr0  1  0.26042863  0.52198605  0.86493684  1
  Pr  Pr1  1  0.73490375  0.48356398  0.13809608  1
  Pr  Pr2  1  0.76278358  0.97775812  0.86894026  1
  Pr  Pr3  1  0.24798801  0.98141117  0.15153868  1
  Mn  Mn4  1  0.28813959  0.53304589  0.60573287  1
  Mn  Mn5  1  0.68759030  0.49465231  0.37519822  1
  Mn  Mn6  1  0.00100864  0.97905205  0.99676491  1
  Mn  Mn7  1  0.80431779  0.98072008  0.59983535  1
  Mn  Mn8  1  0.19289275  0.93783480  0.39025492  1
  Mn  Mn9  1  0.50141867  0.50731661  0.00209088  1
  Sb  Sb10  1  0.89850590  0.00486645  0.45014870  1
  Sb  Sb11  1  0.10628298  0.02434771  0.54590563  1
  Sb  Sb12  1  0.03569451  0.48222630  0.81285262  1
  Sb  Sb13  1  0.96245835  0.50478730  0.18541563  1
  Sb  Sb14  1  0.38970129  0.50502841  0.45175626  1
  Sb  Sb15  1  0.61450917  0.47678831  0.56526352  1
  Sb  Sb16  1  0.53627182  0.03344004  0.81848256  1
  Sb  Sb17  1  0.46213902  0.00295372  0.19628843  1
  S  S18  1  0.93341755  0.00013709  0.79758156  1
  S  S19  1  0.05915213  0.03027721  0.21537182  1
  S  S20  1  0.40787165  0.00520439  0.98432982  1
  S  S21  1  0.57857119  0.00927584  0.01422679  1
  S  S22  1  0.17109353  0.00170587  0.90322973  1
  S  S23  1  0.82919450  0.01428795  0.11311016  1
  S  S24  1  0.09074643  0.53976532  0.65097278  1
  S  S25  1  0.90979863  0.52560768  0.35190388  1
  S  S26  1  0.74389302  0.01809897  0.30823642  1
  S  S27  1  0.26384504  0.97744310  0.68886032  1
  S  S28  1  0.15658109  0.45571571  0.44943336  1
  S  S29  1  0.81992210  0.48361197  0.53866502  1
  S  S30  1  0.43035230  0.56666210  0.79463775  1
  S  S31  1  0.55844885  0.49272555  0.18900454  1
  S  S32  1  0.91101144  0.48655022  0.97832875  1
  S  S33  1  0.08096202  0.45743829  0.00267565  1
  S  S34  1  0.66717198  0.52132413  0.89624641  1
  S  S35  1  0.33616903  0.51560397  0.10993519  1
  S  S36  1  0.59913179  0.95451991  0.66976838  1
  S  S37  1  0.40512533  0.04412229  0.35509190  1
  S  S38  1  0.23976432  0.53416743  0.28431948  1
  S  S39  1  0.76194061  0.48539879  0.71013002  1
  S  S40  1  0.66401093  0.00663888  0.43289405  1
  S  S41  1  0.33253316  0.04682321  0.54002524  1
