# generated using pymatgen
data_Pr2Mn3(SbS3)4
_symmetry_space_group_name_H-M   'P 1'
_cell_length_a   20.02960800
_cell_length_b   3.90410600
_cell_length_c   14.95364829
_cell_angle_alpha   90.00000000
_cell_angle_beta   126.33350609
_cell_angle_gamma   90.00000000
_symmetry_Int_Tables_number   1
_chemical_formula_structural   Pr2Mn3(SbS3)4
_chemical_formula_sum   'Pr4 Mn6 Sb8 S24'
_cell_volume   942.00006694
_cell_formula_units_Z   2
loop_
 _symmetry_equiv_pos_site_id
 _symmetry_equiv_pos_as_xyz
  1  'x, y, z'
loop_
 _atom_site_type_symbol
 _atom_site_label
 _atom_site_symmetry_multiplicity
 _atom_site_fract_x
 _atom_site_fract_y
 _atom_site_fract_z
 _atom_site_occupancy
  Pr  Pr0  1  0.26043401  0.52201943  0.86490005  1
  Pr  Pr1  1  0.73500618  0.48338303  0.13825482  1
  Pr  Pr2  1  0.76271256  0.97822359  0.86903768  1
  Pr  Pr3  1  0.24812419  0.98170500  0.15149356  1
  Mn  Mn4  1  0.28798416  0.53212229  0.60565936  1
  Mn  Mn5  1  0.68752009  0.49268400  0.37469556  1
  Mn  Mn6  1  0.00143074  0.98003938  0.99739872  1
  Mn  Mn7  1  0.80443859  0.98071823  0.59985434  1
  Mn  Mn8  1  0.19229976  0.93850440  0.39034621  1
  Mn  Mn9  1  0.50118236  0.50766099  0.00174404  1
  Sb  Sb10  1  0.89872011  0.00421700  0.45013155  1
  Sb  Sb11  1  0.10623804  0.02482559  0.54593061  1
  Sb  Sb12  1  0.03587453  0.48237343  0.81294565  1
  Sb  Sb13  1  0.96251558  0.50411369  0.18541829  1
  Sb  Sb14  1  0.38979169  0.50504162  0.45173609  1
  Sb  Sb15  1  0.61461099  0.47691155  0.56520283  1
  Sb  Sb16  1  0.53634211  0.03346707  0.81847935  1
  Sb  Sb17  1  0.46216060  0.00247860  0.19620646  1
  S  S18  1  0.93316347  0.99843597  0.79729406  1
  S  S19  1  0.05923581  0.03173325  0.21530066  1
  S  S20  1  0.40839242  0.00638101  0.98512164  1
  S  S21  1  0.57843743  0.00988131  0.01424008  1
  S  S22  1  0.17126151  0.00058600  0.90308475  1
  S  S23  1  0.82908536  0.01407509  0.11309365  1
  S  S24  1  0.09070792  0.53854670  0.65120960  1
  S  S25  1  0.90981097  0.52532373  0.35210443  1
  S  S26  1  0.74381357  0.01849990  0.30815931  1
  S  S27  1  0.26379469  0.97725484  0.68869735  1
  S  S28  1  0.15663753  0.45678959  0.44955706  1
  S  S29  1  0.82028349  0.48381687  0.53895385  1
  S  S30  1  0.43043137  0.56737816  0.79462657  1
  S  S31  1  0.55841189  0.49227384  0.18851994  1
  S  S32  1  0.91089916  0.48832546  0.97826263  1
  S  S33  1  0.08104133  0.45898782  0.00260464  1
  S  S34  1  0.66671497  0.52156401  0.89588929  1
  S  S35  1  0.33580407  0.51469227  0.10928351  1
  S  S36  1  0.59895612  0.95323795  0.66961688  1
  S  S37  1  0.40487666  0.04434083  0.35481446  1
  S  S38  1  0.23916598  0.53470692  0.28343614  1
  S  S39  1  0.76174050  0.48431184  0.70988762  1
  S  S40  1  0.66432413  0.00711305  0.43289370  1
  S  S41  1  0.33279119  0.04617334  0.54061483  1
