# generated using pymatgen
data_Pr2Mn3(SbS3)4
_symmetry_space_group_name_H-M   'P 1'
_cell_length_a   20.02960800
_cell_length_b   3.90410600
_cell_length_c   14.95364829
_cell_angle_alpha   90.00000000
_cell_angle_beta   126.33350609
_cell_angle_gamma   90.00000000
_symmetry_Int_Tables_number   1
_chemical_formula_structural   Pr2Mn3(SbS3)4
_chemical_formula_sum   'Pr4 Mn6 Sb8 S24'
_cell_volume   942.00006694
_cell_formula_units_Z   2
loop_
 _symmetry_equiv_pos_site_id
 _symmetry_equiv_pos_as_xyz
  1  'x, y, z'
loop_
 _atom_site_type_symbol
 _atom_site_label
 _atom_site_symmetry_multiplicity
 _atom_site_fract_x
 _atom_site_fract_y
 _atom_site_fract_z
 _atom_site_occupancy
  Pr  Pr0  1  0.26051674  0.52216481  0.86490831  1
  Pr  Pr1  1  0.73511061  0.48348033  0.13844358  1
  Pr  Pr2  1  0.76266428  0.97855034  0.86908644  1
  Pr  Pr3  1  0.24824919  0.98189261  0.15141268  1
  Mn  Mn4  1  0.28800444  0.53116049  0.60564866  1
  Mn  Mn5  1  0.68739586  0.49082693  0.37421527  1
  Mn  Mn6  1  0.00188590  0.98095011  0.99816857  1
  Mn  Mn7  1  0.80457021  0.98064532  0.59990968  1
  Mn  Mn8  1  0.19170719  0.93882103  0.39042974  1
  Mn  Mn9  1  0.50098475  0.50786131  0.00139766  1
  Sb  Sb10  1  0.89893032  0.00363788  0.45015621  1
  Sb  Sb11  1  0.10620975  0.02542678  0.54597914  1
  Sb  Sb12  1  0.03604320  0.48244285  0.81305366  1
  Sb  Sb13  1  0.96256544  0.50388659  0.18532765  1
  Sb  Sb14  1  0.38983642  0.50498846  0.45170106  1
  Sb  Sb15  1  0.61472547  0.47698086  0.56509688  1
  Sb  Sb16  1  0.53641327  0.03339844  0.81851588  1
  Sb  Sb17  1  0.46212760  0.00208747  0.19609169  1
  S  S18  1  0.93313912  0.99703211  0.79704556  1
  S  S19  1  0.05903339  0.03326780  0.21499086  1
  S  S20  1  0.40894877  0.00715455  0.98584773  1
  S  S21  1  0.57846865  0.01054173  0.01437933  1
  S  S22  1  0.17150611  0.00007147  0.90291941  1
  S  S23  1  0.82913168  0.01327929  0.11301723  1
  S  S24  1  0.09065883  0.53735521  0.65151625  1
  S  S25  1  0.90979280  0.52478962  0.35228664  1
  S  S26  1  0.74382743  0.01874158  0.30829159  1
  S  S27  1  0.26376793  0.97777804  0.68861895  1
  S  S28  1  0.15659225  0.45802141  0.44958404  1
  S  S29  1  0.82039410  0.48420023  0.53900350  1
  S  S30  1  0.43052873  0.56835884  0.79474738  1
  S  S31  1  0.55844306  0.49217890  0.18804854  1
  S  S32  1  0.91086446  0.49053666  0.97820936  1
  S  S33  1  0.08097262  0.46016307  0.00242157  1
  S  S34  1  0.66635193  0.52181613  0.89552986  1
  S  S35  1  0.33548134  0.51387650  0.10867940  1
  S  S36  1  0.59877834  0.95220547  0.66957384  1
  S  S37  1  0.40490883  0.04458829  0.35482320  1
  S  S38  1  0.23870493  0.53522426  0.28288843  1
  S  S39  1  0.76151030  0.48357464  0.70943854  1
  S  S40  1  0.66466610  0.00789232  0.43300133  1
  S  S41  1  0.33293990  0.04656129  0.54103199  1
