# generated using pymatgen
data_Pr2Mn3(SbS3)4
_symmetry_space_group_name_H-M   'P 1'
_cell_length_a   20.02960800
_cell_length_b   3.90410600
_cell_length_c   14.95364829
_cell_angle_alpha   90.00000000
_cell_angle_beta   126.33350609
_cell_angle_gamma   90.00000000
_symmetry_Int_Tables_number   1
_chemical_formula_structural   Pr2Mn3(SbS3)4
_chemical_formula_sum   'Pr4 Mn6 Sb8 S24'
_cell_volume   942.00006694
_cell_formula_units_Z   2
loop_
 _symmetry_equiv_pos_site_id
 _symmetry_equiv_pos_as_xyz
  1  'x, y, z'
loop_
 _atom_site_type_symbol
 _atom_site_label
 _atom_site_symmetry_multiplicity
 _atom_site_fract_x
 _atom_site_fract_y
 _atom_site_fract_z
 _atom_site_occupancy
  Pr  Pr0  1  0.26060752  0.52228334  0.86492096  1
  Pr  Pr1  1  0.73519460  0.48363286  0.13858596  1
  Pr  Pr2  1  0.76260178  0.97882606  0.86904238  1
  Pr  Pr3  1  0.24840926  0.98195178  0.15133002  1
  Mn  Mn4  1  0.28808055  0.53043148  0.60574029  1
  Mn  Mn5  1  0.68729989  0.48889282  0.37396638  1
  Mn  Mn6  1  0.00228961  0.98146461  0.99880957  1
  Mn  Mn7  1  0.80469335  0.98051199  0.59997625  1
  Mn  Mn8  1  0.19116760  0.93868063  0.39057754  1
  Mn  Mn9  1  0.50083398  0.50820820  0.00119948  1
  Sb  Sb10  1  0.89920967  0.00306950  0.45022405  1
  Sb  Sb11  1  0.10630929  0.02558968  0.54617246  1
  Sb  Sb12  1  0.03618357  0.48271830  0.81308599  1
  Sb  Sb13  1  0.96264834  0.50371615  0.18525697  1
  Sb  Sb14  1  0.38981758  0.50490375  0.45163812  1
  Sb  Sb15  1  0.61476269  0.47753008  0.56493491  1
  Sb  Sb16  1  0.53650635  0.03319914  0.81862041  1
  Sb  Sb17  1  0.46200008  0.00191926  0.19583895  1
  S  S18  1  0.93322748  0.99642264  0.79670815  1
  S  S19  1  0.05880616  0.03488130  0.21460665  1
  S  S20  1  0.40946093  0.00789239  0.98649415  1
  S  S21  1  0.57852911  0.01082605  0.01447555  1
  S  S22  1  0.17177169  0.99934066  0.90293705  1
  S  S23  1  0.82918552  0.01254353  0.11296979  1
  S  S24  1  0.09058059  0.53632376  0.65177866  1
  S  S25  1  0.90959954  0.52360645  0.35231466  1
  S  S26  1  0.74390689  0.01908135  0.30831603  1
  S  S27  1  0.26372582  0.97825286  0.68859895  1
  S  S28  1  0.15654754  0.45910916  0.44963611  1
  S  S29  1  0.82029626  0.48367711  0.53877540  1
  S  S30  1  0.43078360  0.56963072  0.79511059  1
  S  S31  1  0.55835903  0.49193076  0.18771600  1
  S  S32  1  0.91058886  0.49270990  0.97801254  1
  S  S33  1  0.08080630  0.46157597  0.00211588  1
  S  S34  1  0.66616704  0.52159170  0.89517374  1
  S  S35  1  0.33524638  0.51377459  0.10811659  1
  S  S36  1  0.59866109  0.95133855  0.66934741  1
  S  S37  1  0.40495045  0.04505391  0.35480768  1
  S  S38  1  0.23823639  0.53514769  0.28233489  1
  S  S39  1  0.76128115  0.48293362  0.70899595  1
  S  S40  1  0.66484292  0.00900435  0.43289716  1
  S  S41  1  0.33318363  0.04701966  0.54142850  1
