# generated using pymatgen
data_Pr2Mn3(SbS3)4
_symmetry_space_group_name_H-M   'P 1'
_cell_length_a   20.02960800
_cell_length_b   3.90410600
_cell_length_c   14.95364829
_cell_angle_alpha   90.00000000
_cell_angle_beta   126.33350609
_cell_angle_gamma   90.00000000
_symmetry_Int_Tables_number   1
_chemical_formula_structural   Pr2Mn3(SbS3)4
_chemical_formula_sum   'Pr4 Mn6 Sb8 S24'
_cell_volume   942.00006694
_cell_formula_units_Z   2
loop_
 _symmetry_equiv_pos_site_id
 _symmetry_equiv_pos_as_xyz
  1  'x, y, z'
loop_
 _atom_site_type_symbol
 _atom_site_label
 _atom_site_symmetry_multiplicity
 _atom_site_fract_x
 _atom_site_fract_y
 _atom_site_fract_z
 _atom_site_occupancy
  Pr  Pr0  1  0.26067436  0.52223023  0.86496408  1
  Pr  Pr1  1  0.73528661  0.48348050  0.13874158  1
  Pr  Pr2  1  0.76263205  0.97903035  0.86907540  1
  Pr  Pr3  1  0.24854182  0.98204377  0.15134284  1
  Mn  Mn4  1  0.28829653  0.53005177  0.60590687  1
  Mn  Mn5  1  0.68715994  0.48686279  0.37376325  1
  Mn  Mn6  1  0.00262413  0.98123742  0.99932476  1
  Mn  Mn7  1  0.80489457  0.98022673  0.60018437  1
  Mn  Mn8  1  0.19058531  0.93905875  0.39047419  1
  Mn  Mn9  1  0.50052485  0.50834307  0.00085737  1
  Sb  Sb10  1  0.89941521  0.00230120  0.45028750  1
  Sb  Sb11  1  0.10637978  0.02576025  0.54628741  1
  Sb  Sb12  1  0.03627347  0.48288096  0.81308776  1
  Sb  Sb13  1  0.96271575  0.50363959  0.18511108  1
  Sb  Sb14  1  0.38975763  0.50511605  0.45159579  1
  Sb  Sb15  1  0.61472963  0.47820546  0.56464075  1
  Sb  Sb16  1  0.53662569  0.03305564  0.81877419  1
  Sb  Sb17  1  0.46189663  0.00152813  0.19563947  1
  S  S18  1  0.93342512  0.99526140  0.79659114  1
  S  S19  1  0.05855211  0.03628780  0.21413044  1
  S  S20  1  0.40991793  0.00815762  0.98706061  1
  S  S21  1  0.57869525  0.01067416  0.01456896  1
  S  S22  1  0.17187386  0.99856239  0.90305222  1
  S  S23  1  0.82908484  0.01248173  0.11294026  1
  S  S24  1  0.09047648  0.53519346  0.65220611  1
  S  S25  1  0.90937329  0.52221309  0.35216546  1
  S  S26  1  0.74387610  0.01887257  0.30821609  1
  S  S27  1  0.26359787  0.97860372  0.68866444  1
  S  S28  1  0.15656323  0.46016113  0.44953239  1
  S  S29  1  0.82010797  0.48311699  0.53835326  1
  S  S30  1  0.43107756  0.57025052  0.79538322  1
  S  S31  1  0.55826069  0.49130356  0.18751563  1
  S  S32  1  0.91040217  0.49508104  0.97783283  1
  S  S33  1  0.08062680  0.46290184  0.00169989  1
  S  S34  1  0.66585099  0.52130131  0.89485685  1
  S  S35  1  0.33511295  0.51369314  0.10784367  1
  S  S36  1  0.59845843  0.95041069  0.66916464  1
  S  S37  1  0.40496794  0.04512807  0.35460859  1
  S  S38  1  0.23767149  0.53497126  0.28162732  1
  S  S39  1  0.76105652  0.48189264  0.70852278  1
  S  S40  1  0.66500251  0.00921759  0.43284105  1
  S  S41  1  0.33329535  0.04770121  0.54156869  1
