# generated using pymatgen
data_Pr2Mn3(SbS3)4
_symmetry_space_group_name_H-M   'P 1'
_cell_length_a   20.02960800
_cell_length_b   3.90410600
_cell_length_c   14.95364829
_cell_angle_alpha   90.00000000
_cell_angle_beta   126.33350609
_cell_angle_gamma   90.00000000
_symmetry_Int_Tables_number   1
_chemical_formula_structural   Pr2Mn3(SbS3)4
_chemical_formula_sum   'Pr4 Mn6 Sb8 S24'
_cell_volume   942.00006694
_cell_formula_units_Z   2
loop_
 _symmetry_equiv_pos_site_id
 _symmetry_equiv_pos_as_xyz
  1  'x, y, z'
loop_
 _atom_site_type_symbol
 _atom_site_label
 _atom_site_symmetry_multiplicity
 _atom_site_fract_x
 _atom_site_fract_y
 _atom_site_fract_z
 _atom_site_occupancy
  Pr  Pr0  1  0.26064661  0.52212992  0.86489726  1
  Pr  Pr1  1  0.73532283  0.48332206  0.13884929  1
  Pr  Pr2  1  0.76266185  0.97963474  0.86914186  1
  Pr  Pr3  1  0.24861152  0.98194404  0.15135396  1
  Mn  Mn4  1  0.28865758  0.52956590  0.60620948  1
  Mn  Mn5  1  0.68705820  0.48518584  0.37365298  1
  Mn  Mn6  1  0.00284461  0.98109563  0.99967877  1
  Mn  Mn7  1  0.80507649  0.98024088  0.60027070  1
  Mn  Mn8  1  0.19018469  0.93931898  0.39060076  1
  Mn  Mn9  1  0.50009554  0.50869342  0.00046125  1
  Sb  Sb10  1  0.89963643  0.00160983  0.45027658  1
  Sb  Sb11  1  0.10642273  0.02617697  0.54635740  1
  Sb  Sb12  1  0.03631711  0.48282016  0.81319164  1
  Sb  Sb13  1  0.96284538  0.50373892  0.18496029  1
  Sb  Sb14  1  0.38967525  0.50533480  0.45158487  1
  Sb  Sb15  1  0.61467672  0.47899345  0.56431116  1
  Sb  Sb16  1  0.53679511  0.03301603  0.81897444  1
  Sb  Sb17  1  0.46174801  0.00142052  0.19538734  1
  S  S18  1  0.93362391  0.99481552  0.79645348  1
  S  S19  1  0.05842123  0.03807208  0.21387807  1
  S  S20  1  0.41031110  0.00871704  0.98755853  1
  S  S21  1  0.57879660  0.01081073  0.01468932  1
  S  S22  1  0.17198519  0.99781565  0.90329950  1
  S  S23  1  0.82913476  0.01179818  0.11298371  1
  S  S24  1  0.09043691  0.53421152  0.65276593  1
  S  S25  1  0.90913527  0.52127529  0.35190529  1
  S  S26  1  0.74377074  0.01847549  0.30792261  1
  S  S27  1  0.26354803  0.97840695  0.68885152  1
  S  S28  1  0.15666553  0.46087492  0.44952663  1
  S  S29  1  0.82005935  0.48248183  0.53812598  1
  S  S30  1  0.43124245  0.57105774  0.79564422  1
  S  S31  1  0.55812051  0.49071735  0.18714748  1
  S  S32  1  0.91020163  0.49642822  0.97760262  1
  S  S33  1  0.08050632  0.46369524  0.00140779  1
  S  S34  1  0.66551624  0.52046677  0.89455395  1
  S  S35  1  0.33502262  0.51371529  0.10741176  1
  S  S36  1  0.59829444  0.94955644  0.66905067  1
  S  S37  1  0.40504751  0.04518713  0.35448677  1
  S  S38  1  0.23721188  0.53479637  0.28101367  1
  S  S39  1  0.76094262  0.48138230  0.70816936  1
  S  S40  1  0.66527534  0.00912898  0.43287516  1
  S  S41  1  0.33344362  0.04804914  0.54172003  1
