# generated using pymatgen
data_Pr2Mn3(SbS3)4
_symmetry_space_group_name_H-M   'P 1'
_cell_length_a   20.02960800
_cell_length_b   3.90410600
_cell_length_c   14.95364829
_cell_angle_alpha   90.00000000
_cell_angle_beta   126.33350609
_cell_angle_gamma   90.00000000
_symmetry_Int_Tables_number   1
_chemical_formula_structural   Pr2Mn3(SbS3)4
_chemical_formula_sum   'Pr4 Mn6 Sb8 S24'
_cell_volume   942.00006694
_cell_formula_units_Z   2
loop_
 _symmetry_equiv_pos_site_id
 _symmetry_equiv_pos_as_xyz
  1  'x, y, z'
loop_
 _atom_site_type_symbol
 _atom_site_label
 _atom_site_symmetry_multiplicity
 _atom_site_fract_x
 _atom_site_fract_y
 _atom_site_fract_z
 _atom_site_occupancy
  Pr  Pr0  1  0.26048781  0.52192957  0.86462680  1
  Pr  Pr1  1  0.73538717  0.48308332  0.13897044  1
  Pr  Pr2  1  0.76270337  0.98022046  0.86920068  1
  Pr  Pr3  1  0.24871575  0.98212781  0.15135284  1
  Mn  Mn4  1  0.28905203  0.52917214  0.60653186  1
  Mn  Mn5  1  0.68706349  0.48379690  0.37366866  1
  Mn  Mn6  1  0.00303702  0.98076193  0.00008392  1
  Mn  Mn7  1  0.80530695  0.98005273  0.60037147  1
  Mn  Mn8  1  0.18988470  0.93971771  0.39083555  1
  Mn  Mn9  1  0.49979908  0.50903835  0.00031947  1
  Sb  Sb10  1  0.89982097  0.00072704  0.45026718  1
  Sb  Sb11  1  0.10647553  0.02642032  0.54639189  1
  Sb  Sb12  1  0.03622438  0.48271729  0.81326464  1
  Sb  Sb13  1  0.96294968  0.50375198  0.18480797  1
  Sb  Sb14  1  0.38953361  0.50574086  0.45164358  1
  Sb  Sb15  1  0.61459189  0.47968227  0.56411112  1
  Sb  Sb16  1  0.53688531  0.03295392  0.81915453  1
  Sb  Sb17  1  0.46162785  0.00146246  0.19505023  1
  S  S18  1  0.93379287  0.99444662  0.79627507  1
  S  S19  1  0.05841652  0.04020847  0.21367937  1
  S  S20  1  0.41070098  0.00864260  0.98807297  1
  S  S21  1  0.57894328  0.01121127  0.01487033  1
  S  S22  1  0.17207953  0.99696673  0.90353801  1
  S  S23  1  0.82927678  0.01120934  0.11308146  1
  S  S24  1  0.09026821  0.53276861  0.65322009  1
  S  S25  1  0.90887186  0.52009083  0.35156338  1
  S  S26  1  0.74350493  0.01767081  0.30750155  1
  S  S27  1  0.26354248  0.97762929  0.68905964  1
  S  S28  1  0.15680553  0.46094701  0.44955267  1
  S  S29  1  0.81989750  0.48257709  0.53774882  1
  S  S30  1  0.43142070  0.57159807  0.79585302  1
  S  S31  1  0.55800038  0.49070270  0.18700089  1
  S  S32  1  0.91009236  0.49732404  0.97758856  1
  S  S33  1  0.08039978  0.46467818  0.00124027  1
  S  S34  1  0.66530695  0.52000912  0.89427861  1
  S  S35  1  0.33496646  0.51332365  0.10710233  1
  S  S36  1  0.59823075  0.94879978  0.66898856  1
  S  S37  1  0.40509478  0.04585260  0.35438377  1
  S  S38  1  0.23670984  0.53505942  0.28030842  1
  S  S39  1  0.76093466  0.48040733  0.70795647  1
  S  S40  1  0.66549566  0.00963134  0.43286713  1
  S  S41  1  0.33345519  0.04860675  0.54193703  1
