# generated using pymatgen
data_Pr2Mn3(SbS3)4
_symmetry_space_group_name_H-M   'P 1'
_cell_length_a   20.02960800
_cell_length_b   3.90410600
_cell_length_c   14.95364829
_cell_angle_alpha   90.00000000
_cell_angle_beta   126.33350609
_cell_angle_gamma   90.00000000
_symmetry_Int_Tables_number   1
_chemical_formula_structural   Pr2Mn3(SbS3)4
_chemical_formula_sum   'Pr4 Mn6 Sb8 S24'
_cell_volume   942.00006694
_cell_formula_units_Z   2
loop_
 _symmetry_equiv_pos_site_id
 _symmetry_equiv_pos_as_xyz
  1  'x, y, z'
loop_
 _atom_site_type_symbol
 _atom_site_label
 _atom_site_symmetry_multiplicity
 _atom_site_fract_x
 _atom_site_fract_y
 _atom_site_fract_z
 _atom_site_occupancy
  Pr  Pr0  1  0.26030308  0.52181490  0.86432168  1
  Pr  Pr1  1  0.73544241  0.48279672  0.13907871  1
  Pr  Pr2  1  0.76278068  0.98090499  0.86931064  1
  Pr  Pr3  1  0.24877300  0.98249946  0.15131710  1
  Mn  Mn4  1  0.28952147  0.52849398  0.60673024  1
  Mn  Mn5  1  0.68707531  0.48241602  0.37370610  1
  Mn  Mn6  1  0.00325004  0.98025908  0.00042868  1
  Mn  Mn7  1  0.80546340  0.97954193  0.60037095  1
  Mn  Mn8  1  0.18966440  0.93997795  0.39098514  1
  Mn  Mn9  1  0.49954453  0.50937429  0.00018326  1
  Sb  Sb10  1  0.89992485  0.00014727  0.45024903  1
  Sb  Sb11  1  0.10646780  0.02692406  0.54639902  1
  Sb  Sb12  1  0.03611504  0.48286595  0.81327470  1
  Sb  Sb13  1  0.96307971  0.50391507  0.18463247  1
  Sb  Sb14  1  0.38938753  0.50600547  0.45163853  1
  Sb  Sb15  1  0.61457985  0.48038731  0.56403689  1
  Sb  Sb16  1  0.53696092  0.03296364  0.81927189  1
  Sb  Sb17  1  0.46147813  0.00135683  0.19470631  1
  S  S18  1  0.93413799  0.99410648  0.79605607  1
  S  S19  1  0.05839790  0.04223169  0.21341532  1
  S  S20  1  0.41097526  0.00858527  0.98867307  1
  S  S21  1  0.57924795  0.01188159  0.01505124  1
  S  S22  1  0.17234347  0.99693065  0.90372498  1
  S  S23  1  0.82928427  0.00993433  0.11300187  1
  S  S24  1  0.09015145  0.53152260  0.65379199  1
  S  S25  1  0.90870864  0.51898256  0.35118458  1
  S  S26  1  0.74311409  0.01615438  0.30720328  1
  S  S27  1  0.26349165  0.97699337  0.68906976  1
  S  S28  1  0.15707052  0.46113535  0.44968625  1
  S  S29  1  0.81974306  0.48309048  0.53734519  1
  S  S30  1  0.43157809  0.57175934  0.79605370  1
  S  S31  1  0.55797511  0.49099517  0.18706957  1
  S  S32  1  0.91001949  0.49822198  0.97762142  1
  S  S33  1  0.08036547  0.46604002  0.00127543  1
  S  S34  1  0.66521850  0.51972941  0.89416419  1
  S  S35  1  0.33487460  0.51329813  0.10681870  1
  S  S36  1  0.59804455  0.94814444  0.66885964  1
  S  S37  1  0.40521165  0.04590852  0.35452757  1
  S  S38  1  0.23640154  0.53507703  0.27992881  1
  S  S39  1  0.76094366  0.47983003  0.70772064  1
  S  S40  1  0.66570822  0.00981753  0.43289060  1
  S  S41  1  0.33353105  0.04982827  0.54221707  1
