# generated using pymatgen
data_Pr2Mn3(SbS3)4
_symmetry_space_group_name_H-M   'P 1'
_cell_length_a   20.02960800
_cell_length_b   3.90410600
_cell_length_c   14.95364829
_cell_angle_alpha   90.00000000
_cell_angle_beta   126.33350609
_cell_angle_gamma   90.00000000
_symmetry_Int_Tables_number   1
_chemical_formula_structural   Pr2Mn3(SbS3)4
_chemical_formula_sum   'Pr4 Mn6 Sb8 S24'
_cell_volume   942.00006694
_cell_formula_units_Z   2
loop_
 _symmetry_equiv_pos_site_id
 _symmetry_equiv_pos_as_xyz
  1  'x, y, z'
loop_
 _atom_site_type_symbol
 _atom_site_label
 _atom_site_symmetry_multiplicity
 _atom_site_fract_x
 _atom_site_fract_y
 _atom_site_fract_z
 _atom_site_occupancy
  Pr  Pr0  1  0.26021073  0.52155640  0.86414560  1
  Pr  Pr1  1  0.73544021  0.48230489  0.13916073  1
  Pr  Pr2  1  0.76287278  0.98134353  0.86943808  1
  Pr  Pr3  1  0.24881318  0.98284815  0.15128424  1
  Mn  Mn4  1  0.28987699  0.52736040  0.60674325  1
  Mn  Mn5  1  0.68719560  0.48126809  0.37385761  1
  Mn  Mn6  1  0.00337379  0.97925223  0.00063340  1
  Mn  Mn7  1  0.80555727  0.97865215  0.60034306  1
  Mn  Mn8  1  0.18950936  0.94014152  0.39120395  1
  Mn  Mn9  1  0.49939591  0.50937752  0.00019371  1
  Sb  Sb10  1  0.90010172  0.99892235  0.45025739  1
  Sb  Sb11  1  0.10654902  0.02720433  0.54649411  1
  Sb  Sb12  1  0.03600471  0.48309665  0.81329082  1
  Sb  Sb13  1  0.96320690  0.50394789  0.18443056  1
  Sb  Sb14  1  0.38918278  0.50640919  0.45151642  1
  Sb  Sb15  1  0.61452802  0.48107902  0.56389007  1
  Sb  Sb16  1  0.53698866  0.03304552  0.81933899  1
  Sb  Sb17  1  0.46127233  0.00123989  0.19434296  1
  S  S18  1  0.93466587  0.99394741  0.79609907  1
  S  S19  1  0.05861991  0.04407976  0.21325496  1
  S  S20  1  0.41128083  0.00824300  0.98938985  1
  S  S21  1  0.57953504  0.01260479  0.01519892  1
  S  S22  1  0.17242854  0.99675114  0.90362836  1
  S  S23  1  0.82930248  0.00959670  0.11307220  1
  S  S24  1  0.08985488  0.53110243  0.65424736  1
  S  S25  1  0.90865467  0.51811329  0.35084743  1
  S  S26  1  0.74261789  0.01470217  0.30665697  1
  S  S27  1  0.26329550  0.97669501  0.68881913  1
  S  S28  1  0.15724289  0.46201881  0.44969435  1
  S  S29  1  0.81956403  0.48332582  0.53699402  1
  S  S30  1  0.43166077  0.57160475  0.79603644  1
  S  S31  1  0.55801621  0.49030944  0.18710636  1
  S  S32  1  0.90994905  0.49889804  0.97768380  1
  S  S33  1  0.08045071  0.46724145  0.00155117  1
  S  S34  1  0.66520677  0.51902642  0.89422724  1
  S  S35  1  0.33465048  0.51358202  0.10646029  1
  S  S36  1  0.59791686  0.94715429  0.66850148  1
  S  S37  1  0.40524464  0.04571722  0.35464241  1
  S  S38  1  0.23617830  0.53495034  0.27975116  1
  S  S39  1  0.76076218  0.47944616  0.70740636  1
  S  S40  1  0.66595162  0.01043386  0.43315437  1
  S  S41  1  0.33347838  0.05090467  0.54241541  1
