# generated using pymatgen
data_Pr2Mn3(SbS3)4
_symmetry_space_group_name_H-M   'P 1'
_cell_length_a   20.02960800
_cell_length_b   3.90410600
_cell_length_c   14.95364829
_cell_angle_alpha   90.00000000
_cell_angle_beta   126.33350609
_cell_angle_gamma   90.00000000
_symmetry_Int_Tables_number   1
_chemical_formula_structural   Pr2Mn3(SbS3)4
_chemical_formula_sum   'Pr4 Mn6 Sb8 S24'
_cell_volume   942.00006694
_cell_formula_units_Z   2
loop_
 _symmetry_equiv_pos_site_id
 _symmetry_equiv_pos_as_xyz
  1  'x, y, z'
loop_
 _atom_site_type_symbol
 _atom_site_label
 _atom_site_symmetry_multiplicity
 _atom_site_fract_x
 _atom_site_fract_y
 _atom_site_fract_z
 _atom_site_occupancy
  Pr  Pr0  1  0.26701705  0.49627211  0.86444811  1
  Pr  Pr1  1  0.73627846  0.51141600  0.13683727  1
  Pr  Pr2  1  0.76302600  0.01103360  0.86094325  1
  Pr  Pr3  1  0.23492722  0.99938708  0.13485804  1
  Mn  Mn4  1  0.28783621  0.48172464  0.58985244  1
  Mn  Mn5  1  0.68612493  0.47588361  0.36751999  1
  Mn  Mn6  1  0.00848115  0.98669150  0.02033403  1
  Mn  Mn7  1  0.80529411  0.00832972  0.61910745  1
  Mn  Mn8  1  0.19798958  0.97814250  0.37321445  1
  Mn  Mn9  1  0.49178224  0.48012721  0.99061038  1
  Sb  Sb10  1  0.88973844  0.98834876  0.45105429  1
  Sb  Sb11  1  0.11168862  0.98057666  0.54568650  1
  Sb  Sb12  1  0.03892070  0.52055642  0.82119632  1
  Sb  Sb13  1  0.96196608  0.49981866  0.18328504  1
  Sb  Sb14  1  0.39483635  0.50510131  0.45054571  1
  Sb  Sb15  1  0.60666494  0.47041839  0.54950940  1
  Sb  Sb16  1  0.53391708  0.99681026  0.80844265  1
  Sb  Sb17  1  0.46533889  0.01777884  0.19039064  1
  S  S18  1  0.93759929  0.00504672  0.80572487  1
  S  S19  1  0.06499421  0.97594835  0.20126225  1
  S  S20  1  0.41498119  0.96144272  0.98103040  1
  S  S21  1  0.57833659  0.03048256  0.01023104  1
  S  S22  1  0.17178109  0.04560580  0.90338716  1
  S  S23  1  0.82657845  0.04867119  0.09633943  1
  S  S24  1  0.09492867  0.48152261  0.64672464  1
  S  S25  1  0.91290122  0.49021274  0.35534539  1
  S  S26  1  0.73743920  0.94888110  0.30106510  1
  S  S27  1  0.26156374  0.00673669  0.70631023  1
  S  S28  1  0.16029807  0.49965637  0.42221273  1
  S  S29  1  0.82380552  0.48975317  0.55044745  1
  S  S30  1  0.43073507  0.49797618  0.79877608  1
  S  S31  1  0.55456642  0.52759058  0.18218772  1
  S  S32  1  0.91095078  0.48770956  0.98702780  1
  S  S33  1  0.09316852  0.48968313  0.03272463  1
  S  S34  1  0.66180124  0.51232452  0.88427561  1
  S  S35  1  0.33153577  0.50348521  0.10168091  1
  S  S36  1  0.59856766  0.99040609  0.65747875  1
  S  S37  1  0.40135387  0.99186174  0.34283335  1
  S  S38  1  0.23845931  0.46174385  0.30982913  1
  S  S39  1  0.76022519  0.50458160  0.69326274  1
  S  S40  1  0.66775491  0.03551747  0.44956395  1
  S  S41  1  0.32913751  0.98527416  0.55573554  1
