# generated using pymatgen
data_Pr2Mn3(SbS3)4
_symmetry_space_group_name_H-M   'P 1'
_cell_length_a   20.02960800
_cell_length_b   3.90410600
_cell_length_c   14.95364829
_cell_angle_alpha   90.00000000
_cell_angle_beta   126.33350609
_cell_angle_gamma   90.00000000
_symmetry_Int_Tables_number   1
_chemical_formula_structural   Pr2Mn3(SbS3)4
_chemical_formula_sum   'Pr4 Mn6 Sb8 S24'
_cell_volume   942.00006694
_cell_formula_units_Z   2
loop_
 _symmetry_equiv_pos_site_id
 _symmetry_equiv_pos_as_xyz
  1  'x, y, z'
loop_
 _atom_site_type_symbol
 _atom_site_label
 _atom_site_symmetry_multiplicity
 _atom_site_fract_x
 _atom_site_fract_y
 _atom_site_fract_z
 _atom_site_occupancy
  Pr  Pr0  1  0.26015477  0.52099348  0.86401641  1
  Pr  Pr1  1  0.73538934  0.48180042  0.13919541  1
  Pr  Pr2  1  0.76302546  0.98199116  0.86963084  1
  Pr  Pr3  1  0.24878870  0.98352802  0.15128599  1
  Mn  Mn4  1  0.29012518  0.52587920  0.60682205  1
  Mn  Mn5  1  0.68735539  0.48043784  0.37409566  1
  Mn  Mn6  1  0.00350113  0.97854420  0.00091515  1
  Mn  Mn7  1  0.80567710  0.97802514  0.60040835  1
  Mn  Mn8  1  0.18948191  0.94046466  0.39155527  1
  Mn  Mn9  1  0.49932527  0.50932324  0.00039396  1
  Sb  Sb10  1  0.90028518  0.99740875  0.45025907  1
  Sb  Sb11  1  0.10667762  0.02715751  0.54671291  1
  Sb  Sb12  1  0.03596684  0.48353047  0.81335901  1
  Sb  Sb13  1  0.96331026  0.50420205  0.18427065  1
  Sb  Sb14  1  0.38903565  0.50722938  0.45139193  1
  Sb  Sb15  1  0.61445452  0.48202015  0.56372534  1
  Sb  Sb16  1  0.53699579  0.03316845  0.81934852  1
  Sb  Sb17  1  0.46112984  0.00143620  0.19402869  1
  S  S18  1  0.93515266  0.99320980  0.79597355  1
  S  S19  1  0.05886203  0.04551841  0.21309783  1
  S  S20  1  0.41168557  0.00795506  0.99016143  1
  S  S21  1  0.57975460  0.01325512  0.01532205  1
  S  S22  1  0.17254532  0.99665334  0.90352671  1
  S  S23  1  0.82930739  0.00956784  0.11304380  1
  S  S24  1  0.08954617  0.53059731  0.65463909  1
  S  S25  1  0.90858233  0.51757455  0.35052017  1
  S  S26  1  0.74204714  0.01338269  0.30614036  1
  S  S27  1  0.26308820  0.97690101  0.68866577  1
  S  S28  1  0.15744869  0.46362903  0.44951562  1
  S  S29  1  0.81940742  0.48371583  0.53665089  1
  S  S30  1  0.43177244  0.57129245  0.79606042  1
  S  S31  1  0.55807226  0.48917630  0.18705299  1
  S  S32  1  0.90993219  0.49948011  0.97792992  1
  S  S33  1  0.08056912  0.46901649  0.00197745  1
  S  S34  1  0.66526439  0.51736694  0.89441818  1
  S  S35  1  0.33450863  0.51316519  0.10615528  1
  S  S36  1  0.59769715  0.94608667  0.66820270  1
  S  S37  1  0.40516687  0.04530485  0.35473272  1
  S  S38  1  0.23596711  0.53479065  0.27963938  1
  S  S39  1  0.76077399  0.47915239  0.70727886  1
  S  S40  1  0.66620094  0.01086491  0.43341189  1
  S  S41  1  0.33338175  0.05205101  0.54237077  1
