# generated using pymatgen
data_Pr2Mn3(SbS3)4
_symmetry_space_group_name_H-M   'P 1'
_cell_length_a   20.02960800
_cell_length_b   3.90410600
_cell_length_c   14.95364829
_cell_angle_alpha   90.00000000
_cell_angle_beta   126.33350609
_cell_angle_gamma   90.00000000
_symmetry_Int_Tables_number   1
_chemical_formula_structural   Pr2Mn3(SbS3)4
_chemical_formula_sum   'Pr4 Mn6 Sb8 S24'
_cell_volume   942.00006694
_cell_formula_units_Z   2
loop_
 _symmetry_equiv_pos_site_id
 _symmetry_equiv_pos_as_xyz
  1  'x, y, z'
loop_
 _atom_site_type_symbol
 _atom_site_label
 _atom_site_symmetry_multiplicity
 _atom_site_fract_x
 _atom_site_fract_y
 _atom_site_fract_z
 _atom_site_occupancy
  Pr  Pr0  1  0.26008101  0.52034596  0.86383587  1
  Pr  Pr1  1  0.73534677  0.48141797  0.13925593  1
  Pr  Pr2  1  0.76319358  0.98238493  0.86982747  1
  Pr  Pr3  1  0.24872430  0.98459804  0.15128073  1
  Mn  Mn4  1  0.29032918  0.52463249  0.60679137  1
  Mn  Mn5  1  0.68741827  0.47998076  0.37427367  1
  Mn  Mn6  1  0.00367160  0.97801085  0.00126450  1
  Mn  Mn7  1  0.80571876  0.97743371  0.60040314  1
  Mn  Mn8  1  0.18940560  0.94064676  0.39170001  1
  Mn  Mn9  1  0.49926891  0.50904119  0.00054784  1
  Sb  Sb10  1  0.90037184  0.99639074  0.45026658  1
  Sb  Sb11  1  0.10690540  0.02687012  0.54701922  1
  Sb  Sb12  1  0.03589573  0.48386288  0.81339641  1
  Sb  Sb13  1  0.96341030  0.50454182  0.18423232  1
  Sb  Sb14  1  0.38887216  0.50774273  0.45121388  1
  Sb  Sb15  1  0.61444405  0.48290871  0.56353131  1
  Sb  Sb16  1  0.53705376  0.03342244  0.81939688  1
  Sb  Sb17  1  0.46095415  0.00154114  0.19377783  1
  S  S18  1  0.93555697  0.99248321  0.79587007  1
  S  S19  1  0.05896243  0.04695377  0.21262946  1
  S  S20  1  0.41207073  0.00793748  0.99087113  1
  S  S21  1  0.58001708  0.01393614  0.01542434  1
  S  S22  1  0.17266354  0.99644909  0.90341157  1
  S  S23  1  0.82949787  0.00957062  0.11308054  1
  S  S24  1  0.08940543  0.53047913  0.65522760  1
  S  S25  1  0.90865134  0.51698311  0.35047664  1
  S  S26  1  0.74150316  0.01236595  0.30564973  1
  S  S27  1  0.26292222  0.97663849  0.68848284  1
  S  S28  1  0.15751453  0.46557294  0.44928259  1
  S  S29  1  0.81940244  0.48433461  0.53652368  1
  S  S30  1  0.43212789  0.57103178  0.79618062  1
  S  S31  1  0.55797395  0.48793644  0.18695919  1
  S  S32  1  0.90996733  0.50011500  0.97844148  1
  S  S33  1  0.08069183  0.47073096  0.00237153  1
  S  S34  1  0.66540543  0.51584506  0.89470650  1
  S  S35  1  0.33441389  0.51293771  0.10585036  1
  S  S36  1  0.59741496  0.94453153  0.66791853  1
  S  S37  1  0.40516211  0.04515222  0.35483954  1
  S  S38  1  0.23574700  0.53515523  0.27953096  1
  S  S39  1  0.76088004  0.47896238  0.70733329  1
  S  S40  1  0.66666554  0.01215232  0.43400190  1
  S  S41  1  0.33331992  0.05294387  0.54247431  1
