# generated using pymatgen
data_Pr2Mn3(SbS3)4
_symmetry_space_group_name_H-M   'P 1'
_cell_length_a   20.02960800
_cell_length_b   3.90410600
_cell_length_c   14.95364829
_cell_angle_alpha   90.00000000
_cell_angle_beta   126.33350609
_cell_angle_gamma   90.00000000
_symmetry_Int_Tables_number   1
_chemical_formula_structural   Pr2Mn3(SbS3)4
_chemical_formula_sum   'Pr4 Mn6 Sb8 S24'
_cell_volume   942.00006694
_cell_formula_units_Z   2
loop_
 _symmetry_equiv_pos_site_id
 _symmetry_equiv_pos_as_xyz
  1  'x, y, z'
loop_
 _atom_site_type_symbol
 _atom_site_label
 _atom_site_symmetry_multiplicity
 _atom_site_fract_x
 _atom_site_fract_y
 _atom_site_fract_z
 _atom_site_occupancy
  Pr  Pr0  1  0.26000048  0.51975478  0.86361557  1
  Pr  Pr1  1  0.73524668  0.48121727  0.13920441  1
  Pr  Pr2  1  0.76336094  0.98261192  0.87003844  1
  Pr  Pr3  1  0.24863652  0.98593612  0.15125114  1
  Mn  Mn4  1  0.29045062  0.52279151  0.60663957  1
  Mn  Mn5  1  0.68749283  0.47963401  0.37438934  1
  Mn  Mn6  1  0.00368378  0.97736267  0.00144307  1
  Mn  Mn7  1  0.80575663  0.97703464  0.60046196  1
  Mn  Mn8  1  0.18946623  0.94023789  0.39194798  1
  Mn  Mn9  1  0.49921706  0.50877413  0.00060873  1
  Sb  Sb10  1  0.90058457  0.99518086  0.45036475  1
  Sb  Sb11  1  0.10709391  0.02689428  0.54739062  1
  Sb  Sb12  1  0.03584533  0.48409054  0.81351217  1
  Sb  Sb13  1  0.96345039  0.50503712  0.18411838  1
  Sb  Sb14  1  0.38873002  0.50801758  0.45109903  1
  Sb  Sb15  1  0.61452199  0.48331611  0.56338836  1
  Sb  Sb16  1  0.53706070  0.03390980  0.81937002  1
  Sb  Sb17  1  0.46077443  0.00139018  0.19352089  1
  S  S18  1  0.93608746  0.99124451  0.79587253  1
  S  S19  1  0.05894576  0.04774601  0.21210699  1
  S  S20  1  0.41241540  0.00809321  0.99148660  1
  S  S21  1  0.58040304  0.01451060  0.01583667  1
  S  S22  1  0.17277771  0.99631576  0.90336869  1
  S  S23  1  0.82959788  0.00923390  0.11311219  1
  S  S24  1  0.08911714  0.53063976  0.65569188  1
  S  S25  1  0.90869054  0.51570606  0.35049878  1
  S  S26  1  0.74104900  0.01210936  0.30523521  1
  S  S27  1  0.26285064  0.97617235  0.68837406  1
  S  S28  1  0.15774875  0.46748620  0.44917983  1
  S  S29  1  0.81945309  0.48448559  0.53619424  1
  S  S30  1  0.43230434  0.57064170  0.79608520  1
  S  S31  1  0.55818747  0.48723341  0.18702081  1
  S  S32  1  0.91000595  0.50034551  0.97890018  1
  S  S33  1  0.08078904  0.47255468  0.00270655  1
  S  S34  1  0.66552724  0.51424647  0.89508303  1
  S  S35  1  0.33443898  0.51253887  0.10544466  1
  S  S36  1  0.59716197  0.94252233  0.66773023  1
  S  S37  1  0.40499125  0.04503270  0.35485784  1
  S  S38  1  0.23560189  0.53596883  0.27933199  1
  S  S39  1  0.76095450  0.47886031  0.70733268  1
  S  S40  1  0.66720667  0.01300014  0.43467254  1
  S  S41  1  0.33329781  0.05432691  0.54268606  1
