# generated using pymatgen
data_Pr2Mn3(SbS3)4
_symmetry_space_group_name_H-M   'P 1'
_cell_length_a   20.02960800
_cell_length_b   3.90410600
_cell_length_c   14.95364829
_cell_angle_alpha   90.00000000
_cell_angle_beta   126.33350609
_cell_angle_gamma   90.00000000
_symmetry_Int_Tables_number   1
_chemical_formula_structural   Pr2Mn3(SbS3)4
_chemical_formula_sum   'Pr4 Mn6 Sb8 S24'
_cell_volume   942.00006694
_cell_formula_units_Z   2
loop_
 _symmetry_equiv_pos_site_id
 _symmetry_equiv_pos_as_xyz
  1  'x, y, z'
loop_
 _atom_site_type_symbol
 _atom_site_label
 _atom_site_symmetry_multiplicity
 _atom_site_fract_x
 _atom_site_fract_y
 _atom_site_fract_z
 _atom_site_occupancy
  Pr  Pr0  1  0.25988018  0.51937288  0.86343110  1
  Pr  Pr1  1  0.73516348  0.48126208  0.13922196  1
  Pr  Pr2  1  0.76351387  0.98298561  0.87028230  1
  Pr  Pr3  1  0.24863622  0.98717326  0.15132332  1
  Mn  Mn4  1  0.29052137  0.52160167  0.60634315  1
  Mn  Mn5  1  0.68751227  0.47971685  0.37449402  1
  Mn  Mn6  1  0.00376582  0.97680981  0.00174039  1
  Mn  Mn7  1  0.80576500  0.97730613  0.60045355  1
  Mn  Mn8  1  0.18954457  0.93938248  0.39227839  1
  Mn  Mn9  1  0.49922500  0.50925534  0.00069743  1
  Sb  Sb10  1  0.90079525  0.99458759  0.45045856  1
  Sb  Sb11  1  0.10725738  0.02678291  0.54765259  1
  Sb  Sb12  1  0.03577045  0.48418148  0.81356547  1
  Sb  Sb13  1  0.96332562  0.50523676  0.18389915  1
  Sb  Sb14  1  0.38864816  0.50852333  0.45102606  1
  Sb  Sb15  1  0.61461220  0.48372912  0.56329939  1
  Sb  Sb16  1  0.53700931  0.03438638  0.81921989  1
  Sb  Sb17  1  0.46063622  0.00123290  0.19336178  1
  S  S18  1  0.93662223  0.98999324  0.79586691  1
  S  S19  1  0.05895184  0.04836883  0.21163476  1
  S  S20  1  0.41269381  0.00833025  0.99197487  1
  S  S21  1  0.58091631  0.01458003  0.01652602  1
  S  S22  1  0.17287948  0.99624948  0.90327793  1
  S  S23  1  0.82951599  0.00857109  0.11285838  1
  S  S24  1  0.08877340  0.53010716  0.65582717  1
  S  S25  1  0.90871003  0.51484494  0.35046855  1
  S  S26  1  0.74065460  0.01232734  0.30486176  1
  S  S27  1  0.26277990  0.97598886  0.68845329  1
  S  S28  1  0.15791709  0.46895454  0.44901652  1
  S  S29  1  0.81941831  0.48532161  0.53578739  1
  S  S30  1  0.43236014  0.57061608  0.79581072  1
  S  S31  1  0.55825419  0.48689197  0.18694757  1
  S  S32  1  0.90993057  0.50073222  0.97912019  1
  S  S33  1  0.08087275  0.47428783  0.00302651  1
  S  S34  1  0.66537509  0.51284543  0.89516015  1
  S  S35  1  0.33439584  0.51175163  0.10503724  1
  S  S36  1  0.59699961  0.94044230  0.66765112  1
  S  S37  1  0.40471639  0.04482945  0.35469302  1
  S  S38  1  0.23544880  0.53581583  0.27918571  1
  S  S39  1  0.76086749  0.47893921  0.70732153  1
  S  S40  1  0.66754912  0.01384112  0.43512791  1
  S  S41  1  0.33321331  0.05509098  0.54286099  1
