# generated using pymatgen
data_Pr2Mn3(SbS3)4
_symmetry_space_group_name_H-M   'P 1'
_cell_length_a   20.02960800
_cell_length_b   3.90410600
_cell_length_c   14.95364829
_cell_angle_alpha   90.00000000
_cell_angle_beta   126.33350609
_cell_angle_gamma   90.00000000
_symmetry_Int_Tables_number   1
_chemical_formula_structural   Pr2Mn3(SbS3)4
_chemical_formula_sum   'Pr4 Mn6 Sb8 S24'
_cell_volume   942.00006694
_cell_formula_units_Z   2
loop_
 _symmetry_equiv_pos_site_id
 _symmetry_equiv_pos_as_xyz
  1  'x, y, z'
loop_
 _atom_site_type_symbol
 _atom_site_label
 _atom_site_symmetry_multiplicity
 _atom_site_fract_x
 _atom_site_fract_y
 _atom_site_fract_z
 _atom_site_occupancy
  Pr  Pr0  1  0.25976003  0.51889980  0.86327866  1
  Pr  Pr1  1  0.73506293  0.48126147  0.13923294  1
  Pr  Pr2  1  0.76367579  0.98330333  0.87052188  1
  Pr  Pr3  1  0.24863064  0.98834038  0.15140857  1
  Mn  Mn4  1  0.29052248  0.51999257  0.60598105  1
  Mn  Mn5  1  0.68746018  0.47975736  0.37450769  1
  Mn  Mn6  1  0.00386680  0.97587309  0.00202939  1
  Mn  Mn7  1  0.80578321  0.97723534  0.60041790  1
  Mn  Mn8  1  0.18954689  0.93853652  0.39244375  1
  Mn  Mn9  1  0.49933458  0.50976315  0.00090393  1
  Sb  Sb10  1  0.90102315  0.99397366  0.45056310  1
  Sb  Sb11  1  0.10724911  0.02660322  0.54773440  1
  Sb  Sb12  1  0.03567151  0.48442571  0.81356053  1
  Sb  Sb13  1  0.96323051  0.50554456  0.18373924  1
  Sb  Sb14  1  0.38863018  0.50904686  0.45106363  1
  Sb  Sb15  1  0.61474980  0.48393891  0.56329630  1
  Sb  Sb16  1  0.53696539  0.03482511  0.81906058  1
  Sb  Sb17  1  0.46054489  0.00114144  0.19321551  1
  S  S18  1  0.93715243  0.98906333  0.79612944  1
  S  S19  1  0.05899980  0.04964067  0.21128780  1
  S  S20  1  0.41290820  0.00785785  0.99236434  1
  S  S21  1  0.58121024  0.01468322  0.01703231  1
  S  S22  1  0.17295077  0.99607002  0.90325685  1
  S  S23  1  0.82942171  0.00797330  0.11266629  1
  S  S24  1  0.08858446  0.52942142  0.65615756  1
  S  S25  1  0.90865312  0.51443031  0.35050814  1
  S  S26  1  0.74048798  0.01246545  0.30466720  1
  S  S27  1  0.26276916  0.97587668  0.68855490  1
  S  S28  1  0.15821104  0.46994340  0.44888701  1
  S  S29  1  0.81936388  0.48590251  0.53530814  1
  S  S30  1  0.43236564  0.57066122  0.79569230  1
  S  S31  1  0.55832345  0.48613841  0.18676461  1
  S  S32  1  0.90980880  0.50115197  0.97922913  1
  S  S33  1  0.08091038  0.47663369  0.00350371  1
  S  S34  1  0.66538663  0.51118304  0.89527744  1
  S  S35  1  0.33441336  0.51102796  0.10464737  1
  S  S36  1  0.59679468  0.93846577  0.66748892  1
  S  S37  1  0.40436053  0.04429021  0.35442562  1
  S  S38  1  0.23540655  0.53534253  0.27913201  1
  S  S39  1  0.76084892  0.47911441  0.70718072  1
  S  S40  1  0.66783740  0.01448728  0.43551881  1
  S  S41  1  0.33303511  0.05510505  0.54303189  1
