# generated using pymatgen
data_Pr2Mn3(SbS3)4
_symmetry_space_group_name_H-M   'P 1'
_cell_length_a   20.02960800
_cell_length_b   3.90410600
_cell_length_c   14.95364829
_cell_angle_alpha   90.00000000
_cell_angle_beta   126.33350609
_cell_angle_gamma   90.00000000
_symmetry_Int_Tables_number   1
_chemical_formula_structural   Pr2Mn3(SbS3)4
_chemical_formula_sum   'Pr4 Mn6 Sb8 S24'
_cell_volume   942.00006694
_cell_formula_units_Z   2
loop_
 _symmetry_equiv_pos_site_id
 _symmetry_equiv_pos_as_xyz
  1  'x, y, z'
loop_
 _atom_site_type_symbol
 _atom_site_label
 _atom_site_symmetry_multiplicity
 _atom_site_fract_x
 _atom_site_fract_y
 _atom_site_fract_z
 _atom_site_occupancy
  Pr  Pr0  1  0.25965585  0.51855541  0.86312231  1
  Pr  Pr1  1  0.73499368  0.48135389  0.13924584  1
  Pr  Pr2  1  0.76387289  0.98332089  0.87079083  1
  Pr  Pr3  1  0.24857484  0.98900376  0.15133537  1
  Mn  Mn4  1  0.29046588  0.51854961  0.60566454  1
  Mn  Mn5  1  0.68743995  0.47995943  0.37447459  1
  Mn  Mn6  1  0.00385383  0.97475199  0.00221556  1
  Mn  Mn7  1  0.80571590  0.97746295  0.60035918  1
  Mn  Mn8  1  0.18960809  0.93806787  0.39266236  1
  Mn  Mn9  1  0.49947316  0.51000266  0.00119600  1
  Sb  Sb10  1  0.90119981  0.99321217  0.45058540  1
  Sb  Sb11  1  0.10721227  0.02623172  0.54784278  1
  Sb  Sb12  1  0.03556211  0.48471536  0.81369259  1
  Sb  Sb13  1  0.96309366  0.50577154  0.18356067  1
  Sb  Sb14  1  0.38860846  0.50973387  0.45112178  1
  Sb  Sb15  1  0.61488028  0.48374722  0.56340663  1
  Sb  Sb16  1  0.53697721  0.03475146  0.81894491  1
  Sb  Sb17  1  0.46046654  0.00149962  0.19305218  1
  S  S18  1  0.93765139  0.98805110  0.79641562  1
  S  S19  1  0.05915521  0.05065868  0.21110737  1
  S  S20  1  0.41325497  0.00720266  0.99292732  1
  S  S21  1  0.58142769  0.01488048  0.01744469  1
  S  S22  1  0.17300533  0.99620727  0.90319142  1
  S  S23  1  0.82925596  0.00754741  0.11250702  1
  S  S24  1  0.08855233  0.52907302  0.65665511  1
  S  S25  1  0.90851539  0.51437487  0.35057084  1
  S  S26  1  0.74024717  0.01262066  0.30421717  1
  S  S27  1  0.26269731  0.97575678  0.68870236  1
  S  S28  1  0.15849049  0.47060126  0.44878214  1
  S  S29  1  0.81930718  0.48644518  0.53491026  1
  S  S30  1  0.43247419  0.57073748  0.79551178  1
  S  S31  1  0.55827190  0.48557879  0.18648660  1
  S  S32  1  0.90969561  0.50163488  0.97928218  1
  S  S33  1  0.08092636  0.47962594  0.00393616  1
  S  S34  1  0.66532431  0.50974965  0.89523057  1
  S  S35  1  0.33434630  0.51078538  0.10413251  1
  S  S36  1  0.59661897  0.93593805  0.66716381  1
  S  S37  1  0.40409611  0.04328354  0.35421418  1
  S  S38  1  0.23550319  0.53444384  0.27942219  1
  S  S39  1  0.76097133  0.47895958  0.70721467  1
  S  S40  1  0.66807134  0.01515250  0.43579500  1
  S  S41  1  0.33282540  0.05498828  0.54305354  1
