# generated using pymatgen
data_Pr2Mn3(SbS3)4
_symmetry_space_group_name_H-M   'P 1'
_cell_length_a   20.02960800
_cell_length_b   3.90410600
_cell_length_c   14.95364829
_cell_angle_alpha   90.00000000
_cell_angle_beta   126.33350609
_cell_angle_gamma   90.00000000
_symmetry_Int_Tables_number   1
_chemical_formula_structural   Pr2Mn3(SbS3)4
_chemical_formula_sum   'Pr4 Mn6 Sb8 S24'
_cell_volume   942.00006694
_cell_formula_units_Z   2
loop_
 _symmetry_equiv_pos_site_id
 _symmetry_equiv_pos_as_xyz
  1  'x, y, z'
loop_
 _atom_site_type_symbol
 _atom_site_label
 _atom_site_symmetry_multiplicity
 _atom_site_fract_x
 _atom_site_fract_y
 _atom_site_fract_z
 _atom_site_occupancy
  Pr  Pr0  1  0.25953222  0.51822223  0.86290227  1
  Pr  Pr1  1  0.73492798  0.48143165  0.13927442  1
  Pr  Pr2  1  0.76403468  0.98354324  0.87101839  1
  Pr  Pr3  1  0.24852198  0.98947962  0.15125508  1
  Mn  Mn4  1  0.29043473  0.51733854  0.60535633  1
  Mn  Mn5  1  0.68741682  0.48010539  0.37428811  1
  Mn  Mn6  1  0.00362184  0.97401306  0.00214577  1
  Mn  Mn7  1  0.80573933  0.97772668  0.60036512  1
  Mn  Mn8  1  0.18979736  0.93726925  0.39294894  1
  Mn  Mn9  1  0.49948612  0.51077342  0.00147975  1
  Sb  Sb10  1  0.90146364  0.99215537  0.45071418  1
  Sb  Sb11  1  0.10723659  0.02591514  0.54801423  1
  Sb  Sb12  1  0.03555911  0.48478595  0.81390193  1
  Sb  Sb13  1  0.96300360  0.50608066  0.18328003  1
  Sb  Sb14  1  0.38858514  0.51051686  0.45116300  1
  Sb  Sb15  1  0.61496607  0.48360852  0.56348352  1
  Sb  Sb16  1  0.53693495  0.03455317  0.81872513  1
  Sb  Sb17  1  0.46042506  0.00222547  0.19291679  1
  S  S18  1  0.93811732  0.98623443  0.79653467  1
  S  S19  1  0.05915372  0.05133338  0.21082359  1
  S  S20  1  0.41368966  0.00622751  0.99358760  1
  S  S21  1  0.58173675  0.01453655  0.01791646  1
  S  S22  1  0.17302138  0.99592494  0.90299702  1
  S  S23  1  0.82896047  0.00740524  0.11217662  1
  S  S24  1  0.08839910  0.52916939  0.65713390  1
  S  S25  1  0.90834174  0.51417469  0.35066471  1
  S  S26  1  0.73995154  0.01307482  0.30384154  1
  S  S27  1  0.26256389  0.97474236  0.68897498  1
  S  S28  1  0.15865877  0.47144388  0.44854271  1
  S  S29  1  0.81917352  0.48746077  0.53452011  1
  S  S30  1  0.43267954  0.57080252  0.79553084  1
  S  S31  1  0.55820951  0.48507124  0.18625276  1
  S  S32  1  0.90979115  0.50169773  0.97961447  1
  S  S33  1  0.08085197  0.48258567  0.00430907  1
  S  S34  1  0.66529478  0.50846043  0.89525129  1
  S  S35  1  0.33420990  0.51032667  0.10368654  1
  S  S36  1  0.59650844  0.93402784  0.66684680  1
  S  S37  1  0.40396214  0.04178543  0.35417705  1
  S  S38  1  0.23578648  0.53298929  0.27975618  1
  S  S39  1  0.76094666  0.47868073  0.70712390  1
  S  S40  1  0.66824025  0.01590401  0.43613588  1
  S  S41  1  0.33262156  0.05488225  0.54303862  1
