# generated using pymatgen
data_Pr2Mn3(SbS3)4
_symmetry_space_group_name_H-M   'P 1'
_cell_length_a   20.02960800
_cell_length_b   3.90410600
_cell_length_c   14.95364829
_cell_angle_alpha   90.00000000
_cell_angle_beta   126.33350609
_cell_angle_gamma   90.00000000
_symmetry_Int_Tables_number   1
_chemical_formula_structural   Pr2Mn3(SbS3)4
_chemical_formula_sum   'Pr4 Mn6 Sb8 S24'
_cell_volume   942.00006694
_cell_formula_units_Z   2
loop_
 _symmetry_equiv_pos_site_id
 _symmetry_equiv_pos_as_xyz
  1  'x, y, z'
loop_
 _atom_site_type_symbol
 _atom_site_label
 _atom_site_symmetry_multiplicity
 _atom_site_fract_x
 _atom_site_fract_y
 _atom_site_fract_z
 _atom_site_occupancy
  Pr  Pr0  1  0.25937510  0.51791188  0.86275378  1
  Pr  Pr1  1  0.73488425  0.48146123  0.13929562  1
  Pr  Pr2  1  0.76426384  0.98361091  0.87130940  1
  Pr  Pr3  1  0.24845487  0.99002221  0.15120663  1
  Mn  Mn4  1  0.29037620  0.51650764  0.60501531  1
  Mn  Mn5  1  0.68746161  0.48045824  0.37406983  1
  Mn  Mn6  1  0.00351297  0.97359080  0.00227267  1
  Mn  Mn7  1  0.80582477  0.97843910  0.60050263  1
  Mn  Mn8  1  0.18999618  0.93669537  0.39330600  1
  Mn  Mn9  1  0.49939812  0.51141533  0.00169391  1
  Sb  Sb10  1  0.90171604  0.99132294  0.45079323  1
  Sb  Sb11  1  0.10731482  0.02568141  0.54820049  1
  Sb  Sb12  1  0.03556639  0.48527416  0.81414024  1
  Sb  Sb13  1  0.96298835  0.50632823  0.18305520  1
  Sb  Sb14  1  0.38851838  0.51090669  0.45109483  1
  Sb  Sb15  1  0.61496927  0.48357152  0.56357254  1
  Sb  Sb16  1  0.53689379  0.03422302  0.81856086  1
  Sb  Sb17  1  0.46035484  0.00281693  0.19273801  1
  S  S18  1  0.93854571  0.98430000  0.79683617  1
  S  S19  1  0.05910991  0.05160660  0.21052626  1
  S  S20  1  0.41401383  0.00540058  0.99395438  1
  S  S21  1  0.58218209  0.01422501  0.01831806  1
  S  S22  1  0.17289779  0.99536834  0.90280223  1
  S  S23  1  0.82860937  0.00725205  0.11180778  1
  S  S24  1  0.08841717  0.52870311  0.65766697  1
  S  S25  1  0.90820439  0.51367588  0.35079633  1
  S  S26  1  0.73970238  0.01347726  0.30368302  1
  S  S27  1  0.26232402  0.97412441  0.68915139  1
  S  S28  1  0.15876669  0.47186078  0.44850289  1
  S  S29  1  0.81907045  0.48843771  0.53413430  1
  S  S30  1  0.43282903  0.57069939  0.79572017  1
  S  S31  1  0.55824851  0.48443433  0.18591970  1
  S  S32  1  0.90974307  0.50171732  0.97987539  1
  S  S33  1  0.08072786  0.48498514  0.00471698  1
  S  S34  1  0.66528254  0.50724912  0.89516888  1
  S  S35  1  0.33413400  0.50983397  0.10329931  1
  S  S36  1  0.59655672  0.93289397  0.66668780  1
  S  S37  1  0.40382674  0.04125044  0.35405753  1
  S  S38  1  0.23602551  0.53153904  0.28005400  1
  S  S39  1  0.76108659  0.47864422  0.70728284  1
  S  S40  1  0.66852101  0.01573099  0.43667680  1
  S  S41  1  0.33247541  0.05452472  0.54293896  1
