# generated using pymatgen
data_Pr2Mn3(SbS3)4
_symmetry_space_group_name_H-M   'P 1'
_cell_length_a   20.02960800
_cell_length_b   3.90410600
_cell_length_c   14.95364829
_cell_angle_alpha   90.00000000
_cell_angle_beta   126.33350609
_cell_angle_gamma   90.00000000
_symmetry_Int_Tables_number   1
_chemical_formula_structural   Pr2Mn3(SbS3)4
_chemical_formula_sum   'Pr4 Mn6 Sb8 S24'
_cell_volume   942.00006694
_cell_formula_units_Z   2
loop_
 _symmetry_equiv_pos_site_id
 _symmetry_equiv_pos_as_xyz
  1  'x, y, z'
loop_
 _atom_site_type_symbol
 _atom_site_label
 _atom_site_symmetry_multiplicity
 _atom_site_fract_x
 _atom_site_fract_y
 _atom_site_fract_z
 _atom_site_occupancy
  Pr  Pr0  1  0.25916176  0.51751633  0.86255983  1
  Pr  Pr1  1  0.73481695  0.48168703  0.13926563  1
  Pr  Pr2  1  0.76454698  0.98366505  0.87159363  1
  Pr  Pr3  1  0.24842458  0.99032896  0.15131794  1
  Mn  Mn4  1  0.29024563  0.51601855  0.60453067  1
  Mn  Mn5  1  0.68752058  0.48035607  0.37400030  1
  Mn  Mn6  1  0.00330900  0.97357210  0.00236070  1
  Mn  Mn7  1  0.80597248  0.97931326  0.60065668  1
  Mn  Mn8  1  0.19029923  0.93646163  0.39371386  1
  Mn  Mn9  1  0.49930789  0.51166747  0.00181211  1
  Sb  Sb10  1  0.90199077  0.99039378  0.45092588  1
  Sb  Sb11  1  0.10731427  0.02559023  0.54835967  1
  Sb  Sb12  1  0.03555436  0.48592386  0.81437764  1
  Sb  Sb13  1  0.96303045  0.50622810  0.18289965  1
  Sb  Sb14  1  0.38831607  0.51119756  0.45104632  1
  Sb  Sb15  1  0.61500931  0.48358083  0.56375932  1
  Sb  Sb16  1  0.53679496  0.03381363  0.81835498  1
  Sb  Sb17  1  0.46032691  0.00334672  0.19258155  1
  S  S18  1  0.93892776  0.98284548  0.79712177  1
  S  S19  1  0.05913612  0.05269490  0.21026052  1
  S  S20  1  0.41427070  0.00365356  0.99422617  1
  S  S21  1  0.58260041  0.01362059  0.01884176  1
  S  S22  1  0.17282885  0.99539910  0.90274319  1
  S  S23  1  0.82825281  0.00668983  0.11160986  1
  S  S24  1  0.08846208  0.52817359  0.65831429  1
  S  S25  1  0.90812753  0.51363743  0.35082613  1
  S  S26  1  0.73949521  0.01346154  0.30353584  1
  S  S27  1  0.26215767  0.97373441  0.68918088  1
  S  S28  1  0.15899456  0.47304813  0.44865589  1
  S  S29  1  0.81888914  0.48965569  0.53370581  1
  S  S30  1  0.43301346  0.57049613  0.79601893  1
  S  S31  1  0.55830460  0.48372050  0.18559431  1
  S  S32  1  0.90968063  0.50156839  0.98017804  1
  S  S33  1  0.08065595  0.48787686  0.00507737  1
  S  S34  1  0.66519355  0.50604595  0.89484625  1
  S  S35  1  0.33416738  0.50920978  0.10301342  1
  S  S36  1  0.59645211  0.93180475  0.66660530  1
  S  S37  1  0.40381627  0.03995257  0.35415496  1
  S  S38  1  0.23623594  0.52976030  0.28041296  1
  S  S39  1  0.76138117  0.47833255  0.70747273  1
  S  S40  1  0.66858832  0.01660821  0.43688445  1
  S  S41  1  0.33228311  0.05426929  0.54276060  1
