# generated using pymatgen
data_Pr2Mn3(SbS3)4
_symmetry_space_group_name_H-M   'P 1'
_cell_length_a   20.02960800
_cell_length_b   3.90410600
_cell_length_c   14.95364829
_cell_angle_alpha   90.00000000
_cell_angle_beta   126.33350609
_cell_angle_gamma   90.00000000
_symmetry_Int_Tables_number   1
_chemical_formula_structural   Pr2Mn3(SbS3)4
_chemical_formula_sum   'Pr4 Mn6 Sb8 S24'
_cell_volume   942.00006694
_cell_formula_units_Z   2
loop_
 _symmetry_equiv_pos_site_id
 _symmetry_equiv_pos_as_xyz
  1  'x, y, z'
loop_
 _atom_site_type_symbol
 _atom_site_label
 _atom_site_symmetry_multiplicity
 _atom_site_fract_x
 _atom_site_fract_y
 _atom_site_fract_z
 _atom_site_occupancy
  Pr  Pr0  1  0.25894300  0.51720405  0.86231638  1
  Pr  Pr1  1  0.73475666  0.48212307  0.13912127  1
  Pr  Pr2  1  0.76478736  0.98397214  0.87185924  1
  Pr  Pr3  1  0.24839962  0.99076301  0.15140461  1
  Mn  Mn4  1  0.29019692  0.51516795  0.60418812  1
  Mn  Mn5  1  0.68756006  0.48034080  0.37377354  1
  Mn  Mn6  1  0.00328590  0.97371222  0.00259817  1
  Mn  Mn7  1  0.80604099  0.98039574  0.60075910  1
  Mn  Mn8  1  0.19060389  0.93641046  0.39415053  1
  Mn  Mn9  1  0.49934616  0.51156120  0.00195194  1
  Sb  Sb10  1  0.90206732  0.98987267  0.45083135  1
  Sb  Sb11  1  0.10727839  0.02567965  0.54854053  1
  Sb  Sb12  1  0.03557416  0.48654076  0.81461796  1
  Sb  Sb13  1  0.96313509  0.50634176  0.18290669  1
  Sb  Sb14  1  0.38813220  0.51079923  0.45092610  1
  Sb  Sb15  1  0.61511809  0.48353703  0.56398426  1
  Sb  Sb16  1  0.53660637  0.03358946  0.81804709  1
  Sb  Sb17  1  0.46025984  0.00347415  0.19244760  1
  S  S18  1  0.93923923  0.98115962  0.79745731  1
  S  S19  1  0.05920054  0.05389419  0.21013491  1
  S  S20  1  0.41438304  0.00273043  0.99462653  1
  S  S21  1  0.58301554  0.01311335  0.01952261  1
  S  S22  1  0.17274173  0.99580740  0.90250557  1
  S  S23  1  0.82787121  0.00587795  0.11121372  1
  S  S24  1  0.08856714  0.52756640  0.65897684  1
  S  S25  1  0.90803258  0.51313891  0.35079193  1
  S  S26  1  0.73925515  0.01374472  0.30331139  1
  S  S27  1  0.26201599  0.97376946  0.68904627  1
  S  S28  1  0.15923448  0.47345845  0.44860107  1
  S  S29  1  0.81878430  0.49065087  0.53336969  1
  S  S30  1  0.43329131  0.57086993  0.79645182  1
  S  S31  1  0.55838004  0.48326075  0.18526088  1
  S  S32  1  0.90967677  0.50176170  0.98060318  1
  S  S33  1  0.08048422  0.48980528  0.00526985  1
  S  S34  1  0.66511363  0.50480407  0.89438433  1
  S  S35  1  0.33442550  0.50880547  0.10296611  1
  S  S36  1  0.59644318  0.93163978  0.66649177  1
  S  S37  1  0.40380964  0.03789857  0.35415967  1
  S  S38  1  0.23628708  0.52841165  0.28051922  1
  S  S39  1  0.76154418  0.47817170  0.70752411  1
  S  S40  1  0.66863224  0.01824370  0.43712740  1
  S  S41  1  0.33224311  0.05341767  0.54252873  1
