# generated using pymatgen
data_Pr2Mn3(SbS3)4
_symmetry_space_group_name_H-M   'P 1'
_cell_length_a   20.02960800
_cell_length_b   3.90410600
_cell_length_c   14.95364829
_cell_angle_alpha   90.00000000
_cell_angle_beta   126.33350609
_cell_angle_gamma   90.00000000
_symmetry_Int_Tables_number   1
_chemical_formula_structural   Pr2Mn3(SbS3)4
_chemical_formula_sum   'Pr4 Mn6 Sb8 S24'
_cell_volume   942.00006694
_cell_formula_units_Z   2
loop_
 _symmetry_equiv_pos_site_id
 _symmetry_equiv_pos_as_xyz
  1  'x, y, z'
loop_
 _atom_site_type_symbol
 _atom_site_label
 _atom_site_symmetry_multiplicity
 _atom_site_fract_x
 _atom_site_fract_y
 _atom_site_fract_z
 _atom_site_occupancy
  Pr  Pr0  1  0.26703826  0.49656275  0.86446130  1
  Pr  Pr1  1  0.73615764  0.51154295  0.13671722  1
  Pr  Pr2  1  0.76308301  0.01135801  0.86090235  1
  Pr  Pr3  1  0.23495975  0.99887946  0.13485169  1
  Mn  Mn4  1  0.28796471  0.48200368  0.58978716  1
  Mn  Mn5  1  0.68592994  0.47498823  0.36743283  1
  Mn  Mn6  1  0.00850468  0.98727803  0.02035533  1
  Mn  Mn7  1  0.80511029  0.00939500  0.61899740  1
  Mn  Mn8  1  0.19792754  0.97814382  0.37306323  1
  Mn  Mn9  1  0.49164910  0.48024449  0.99045385  1
  Sb  Sb10  1  0.88977319  0.98801913  0.45110227  1
  Sb  Sb11  1  0.11172434  0.98091109  0.54562331  1
  Sb  Sb12  1  0.03879275  0.52046334  0.82122269  1
  Sb  Sb13  1  0.96204979  0.50032386  0.18344596  1
  Sb  Sb14  1  0.39480068  0.50520399  0.45060794  1
  Sb  Sb15  1  0.60669957  0.47011303  0.54962939  1
  Sb  Sb16  1  0.53390575  0.99599785  0.80844755  1
  Sb  Sb17  1  0.46543988  0.01805823  0.19048820  1
  S  S18  1  0.93770799  0.00531743  0.80596348  1
  S  S19  1  0.06479476  0.97534954  0.20109177  1
  S  S20  1  0.41549766  0.96103011  0.98110400  1
  S  S21  1  0.57852406  0.03177206  0.01051585  1
  S  S22  1  0.17172286  0.04685133  0.90335273  1
  S  S23  1  0.82686033  0.04862557  0.09674945  1
  S  S24  1  0.09462800  0.48153583  0.64671178  1
  S  S25  1  0.91334359  0.49035700  0.35581882  1
  S  S26  1  0.73734574  0.95033621  0.30111401  1
  S  S27  1  0.26166657  0.00740591  0.70647234  1
  S  S28  1  0.16036915  0.50147510  0.42202372  1
  S  S29  1  0.82366903  0.48970611  0.55045790  1
  S  S30  1  0.43058660  0.49728767  0.79871498  1
  S  S31  1  0.55442374  0.52772783  0.18215975  1
  S  S32  1  0.91108437  0.48792200  0.98713127  1
  S  S33  1  0.09315390  0.48954146  0.03286745  1
  S  S34  1  0.66187355  0.51297377  0.88456530  1
  S  S35  1  0.33156189  0.50318882  0.10166455  1
  S  S36  1  0.59867127  0.99186148  0.65760105  1
  S  S37  1  0.40116229  0.99142407  0.34252882  1
  S  S38  1  0.23855395  0.46240683  0.31002998  1
  S  S39  1  0.76033564  0.50520770  0.69316665  1
  S  S40  1  0.66782863  0.03576848  0.44948375  1
  S  S41  1  0.32926676  0.98446442  0.55582135  1
