# generated using pymatgen
data_Pr2Mn3(SbS3)4
_symmetry_space_group_name_H-M   'P 1'
_cell_length_a   20.02960800
_cell_length_b   3.90410600
_cell_length_c   14.95364829
_cell_angle_alpha   90.00000000
_cell_angle_beta   126.33350609
_cell_angle_gamma   90.00000000
_symmetry_Int_Tables_number   1
_chemical_formula_structural   Pr2Mn3(SbS3)4
_chemical_formula_sum   'Pr4 Mn6 Sb8 S24'
_cell_volume   942.00006694
_cell_formula_units_Z   2
loop_
 _symmetry_equiv_pos_site_id
 _symmetry_equiv_pos_as_xyz
  1  'x, y, z'
loop_
 _atom_site_type_symbol
 _atom_site_label
 _atom_site_symmetry_multiplicity
 _atom_site_fract_x
 _atom_site_fract_y
 _atom_site_fract_z
 _atom_site_occupancy
  Pr  Pr0  1  0.25878319  0.51648456  0.86218662  1
  Pr  Pr1  1  0.73468219  0.48251023  0.13895533  1
  Pr  Pr2  1  0.76505576  0.98430444  0.87210171  1
  Pr  Pr3  1  0.24827573  0.99119437  0.15137989  1
  Mn  Mn4  1  0.29011846  0.51411570  0.60373520  1
  Mn  Mn5  1  0.68767015  0.48034777  0.37343509  1
  Mn  Mn6  1  0.00313420  0.97454976  0.00265162  1
  Mn  Mn7  1  0.80604496  0.98119915  0.60064708  1
  Mn  Mn8  1  0.19085173  0.93607926  0.39439993  1
  Mn  Mn9  1  0.49937728  0.51170570  0.00212519  1
  Sb  Sb10  1  0.90215289  0.98955502  0.45080166  1
  Sb  Sb11  1  0.10725084  0.02564895  0.54873480  1
  Sb  Sb12  1  0.03557922  0.48712658  0.81480011  1
  Sb  Sb13  1  0.96319876  0.50635928  0.18288347  1
  Sb  Sb14  1  0.38793718  0.51041603  0.45077390  1
  Sb  Sb15  1  0.61515566  0.48341752  0.56412317  1
  Sb  Sb16  1  0.53650185  0.03376157  0.81782156  1
  Sb  Sb17  1  0.46018457  0.00360228  0.19231077  1
  S  S18  1  0.93958810  0.97967526  0.79776876  1
  S  S19  1  0.05930451  0.05563314  0.21017338  1
  S  S20  1  0.41433455  0.00270401  0.99497735  1
  S  S21  1  0.58337990  0.01292641  0.02001806  1
  S  S22  1  0.17278152  0.99616466  0.90242012  1
  S  S23  1  0.82766312  0.00491034  0.11088126  1
  S  S24  1  0.08863787  0.52709953  0.65943421  1
  S  S25  1  0.90787152  0.51208933  0.35060507  1
  S  S26  1  0.73897871  0.01441503  0.30293870  1
  S  S27  1  0.26193883  0.97355529  0.68893614  1
  S  S28  1  0.15957877  0.47429350  0.44858707  1
  S  S29  1  0.81878674  0.49107608  0.53321418  1
  S  S30  1  0.43362311  0.57038066  0.79680179  1
  S  S31  1  0.55842936  0.48330997  0.18491918  1
  S  S32  1  0.90978873  0.50217563  0.98090065  1
  S  S33  1  0.08025086  0.49206369  0.00535762  1
  S  S34  1  0.66497393  0.50390222  0.89390751  1
  S  S35  1  0.33456699  0.50876056  0.10267729  1
  S  S36  1  0.59639588  0.93193924  0.66631218  1
  S  S37  1  0.40390769  0.03608877  0.35450550  1
  S  S38  1  0.23625891  0.52804216  0.28055062  1
  S  S39  1  0.76173829  0.47801447  0.70755827  1
  S  S40  1  0.66863564  0.01922880  0.43725176  1
  S  S41  1  0.33224818  0.05279888  0.54228063  1
