# generated using pymatgen
data_Pr2Mn3(SbS3)4
_symmetry_space_group_name_H-M   'P 1'
_cell_length_a   20.02960800
_cell_length_b   3.90410600
_cell_length_c   14.95364829
_cell_angle_alpha   90.00000000
_cell_angle_beta   126.33350609
_cell_angle_gamma   90.00000000
_symmetry_Int_Tables_number   1
_chemical_formula_structural   Pr2Mn3(SbS3)4
_chemical_formula_sum   'Pr4 Mn6 Sb8 S24'
_cell_volume   942.00006694
_cell_formula_units_Z   2
loop_
 _symmetry_equiv_pos_site_id
 _symmetry_equiv_pos_as_xyz
  1  'x, y, z'
loop_
 _atom_site_type_symbol
 _atom_site_label
 _atom_site_symmetry_multiplicity
 _atom_site_fract_x
 _atom_site_fract_y
 _atom_site_fract_z
 _atom_site_occupancy
  Pr  Pr0  1  0.25862695  0.51591525  0.86206156  1
  Pr  Pr1  1  0.73465481  0.48296254  0.13882122  1
  Pr  Pr2  1  0.76533912  0.98470078  0.87234632  1
  Pr  Pr3  1  0.24809858  0.99116815  0.15129870  1
  Mn  Mn4  1  0.28999044  0.51304236  0.60328416  1
  Mn  Mn5  1  0.68778129  0.48000884  0.37324389  1
  Mn  Mn6  1  0.00291854  0.97529003  0.00261988  1
  Mn  Mn7  1  0.80611769  0.98193850  0.60058904  1
  Mn  Mn8  1  0.19095880  0.93639931  0.39461872  1
  Mn  Mn9  1  0.49948471  0.51204138  0.00231471  1
  Sb  Sb10  1  0.90222537  0.98911787  0.45079539  1
  Sb  Sb11  1  0.10726928  0.02574528  0.54900586  1
  Sb  Sb12  1  0.03560347  0.48777792  0.81501271  1
  Sb  Sb13  1  0.96327347  0.50627099  0.18286906  1
  Sb  Sb14  1  0.38779723  0.50967267  0.45071729  1
  Sb  Sb15  1  0.61519154  0.48333125  0.56433170  1
  Sb  Sb16  1  0.53647993  0.03380308  0.81766523  1
  Sb  Sb17  1  0.46010332  0.00387781  0.19214612  1
  S  S18  1  0.94008174  0.97853109  0.79838388  1
  S  S19  1  0.05938170  0.05707163  0.21012101  1
  S  S20  1  0.41433933  0.00307995  0.99521241  1
  S  S21  1  0.58372639  0.01244882  0.02044686  1
  S  S22  1  0.17284989  0.99643834  0.90243949  1
  S  S23  1  0.82740413  0.00371470  0.11060343  1
  S  S24  1  0.08869804  0.52635521  0.65992058  1
  S  S25  1  0.90782306  0.51107047  0.35041359  1
  S  S26  1  0.73879341  0.01482056  0.30255998  1
  S  S27  1  0.26193036  0.97405382  0.68898702  1
  S  S28  1  0.15992151  0.47465539  0.44862521  1
  S  S29  1  0.81874052  0.49121476  0.53298957  1
  S  S30  1  0.43392417  0.56996031  0.79696823  1
  S  S31  1  0.55846195  0.48287399  0.18477423  1
  S  S32  1  0.90981809  0.50371197  0.98118503  1
  S  S33  1  0.08003887  0.49401899  0.00543811  1
  S  S34  1  0.66489708  0.50363568  0.89371441  1
  S  S35  1  0.33455277  0.50831883  0.10235651  1
  S  S36  1  0.59645392  0.93229274  0.66629667  1
  S  S37  1  0.40423517  0.03377223  0.35499430  1
  S  S38  1  0.23605027  0.52812440  0.28065675  1
  S  S39  1  0.76173627  0.47721472  0.70744592  1
  S  S40  1  0.66875068  0.01980853  0.43735451  1
  S  S41  1  0.33236166  0.05244258  0.54214240  1
