# generated using pymatgen
data_Pr2Mn3(SbS3)4
_symmetry_space_group_name_H-M   'P 1'
_cell_length_a   20.02960800
_cell_length_b   3.90410600
_cell_length_c   14.95364829
_cell_angle_alpha   90.00000000
_cell_angle_beta   126.33350609
_cell_angle_gamma   90.00000000
_symmetry_Int_Tables_number   1
_chemical_formula_structural   Pr2Mn3(SbS3)4
_chemical_formula_sum   'Pr4 Mn6 Sb8 S24'
_cell_volume   942.00006694
_cell_formula_units_Z   2
loop_
 _symmetry_equiv_pos_site_id
 _symmetry_equiv_pos_as_xyz
  1  'x, y, z'
loop_
 _atom_site_type_symbol
 _atom_site_label
 _atom_site_symmetry_multiplicity
 _atom_site_fract_x
 _atom_site_fract_y
 _atom_site_fract_z
 _atom_site_occupancy
  Pr  Pr0  1  0.25846835  0.51572213  0.86197418  1
  Pr  Pr1  1  0.73467164  0.48349607  0.13876861  1
  Pr  Pr2  1  0.76552251  0.98494400  0.87252760  1
  Pr  Pr3  1  0.24789844  0.99100716  0.15109000  1
  Mn  Mn4  1  0.28987886  0.51247861  0.60290997  1
  Mn  Mn5  1  0.68795492  0.47977176  0.37319038  1
  Mn  Mn6  1  0.00272298  0.97598673  0.00248470  1
  Mn  Mn7  1  0.80621607  0.98225783  0.60046874  1
  Mn  Mn8  1  0.19107339  0.93669239  0.39491019  1
  Mn  Mn9  1  0.49942403  0.51189780  0.00242992  1
  Sb  Sb10  1  0.90226251  0.98857144  0.45077537  1
  Sb  Sb11  1  0.10728427  0.02618095  0.54930937  1
  Sb  Sb12  1  0.03557905  0.48843995  0.81510650  1
  Sb  Sb13  1  0.96342841  0.50615584  0.18304731  1
  Sb  Sb14  1  0.38770445  0.50883377  0.45069128  1
  Sb  Sb15  1  0.61521324  0.48339383  0.56458197  1
  Sb  Sb16  1  0.53642657  0.03381989  0.81754402  1
  Sb  Sb17  1  0.46004995  0.00400471  0.19193341  1
  S  S18  1  0.94032066  0.97732799  0.79884258  1
  S  S19  1  0.05951066  0.05896008  0.21014518  1
  S  S20  1  0.41432167  0.00296985  0.99535833  1
  S  S21  1  0.58396913  0.01220394  0.02067530  1
  S  S22  1  0.17292571  0.99651887  0.90242787  1
  S  S23  1  0.82714590  0.00285226  0.11024573  1
  S  S24  1  0.08872567  0.52551560  0.66031677  1
  S  S25  1  0.90771486  0.50978159  0.35020516  1
  S  S26  1  0.73859282  0.01535806  0.30226630  1
  S  S27  1  0.26194963  0.97460786  0.68891781  1
  S  S28  1  0.16043345  0.47517160  0.44890196  1
  S  S29  1  0.81876343  0.49117223  0.53300290  1
  S  S30  1  0.43416012  0.56951599  0.79713638  1
  S  S31  1  0.55840284  0.48235839  0.18461245  1
  S  S32  1  0.90995947  0.50526388  0.98154736  1
  S  S33  1  0.07983653  0.49593548  0.00573597  1
  S  S34  1  0.66488708  0.50372716  0.89370255  1
  S  S35  1  0.33452269  0.50735939  0.10194178  1
  S  S36  1  0.59655366  0.93228799  0.66639958  1
  S  S37  1  0.40459871  0.03112182  0.35548136  1
  S  S38  1  0.23598011  0.52886432  0.28088693  1
  S  S39  1  0.76180775  0.47672033  0.70757868  1
  S  S40  1  0.66880155  0.02046497  0.43750801  1
  S  S41  1  0.33250478  0.05212172  0.54217325  1
