# generated using pymatgen
data_Pr2Mn3(SbS3)4
_symmetry_space_group_name_H-M   'P 1'
_cell_length_a   20.02960800
_cell_length_b   3.90410600
_cell_length_c   14.95364829
_cell_angle_alpha   90.00000000
_cell_angle_beta   126.33350609
_cell_angle_gamma   90.00000000
_symmetry_Int_Tables_number   1
_chemical_formula_structural   Pr2Mn3(SbS3)4
_chemical_formula_sum   'Pr4 Mn6 Sb8 S24'
_cell_volume   942.00006694
_cell_formula_units_Z   2
loop_
 _symmetry_equiv_pos_site_id
 _symmetry_equiv_pos_as_xyz
  1  'x, y, z'
loop_
 _atom_site_type_symbol
 _atom_site_label
 _atom_site_symmetry_multiplicity
 _atom_site_fract_x
 _atom_site_fract_y
 _atom_site_fract_z
 _atom_site_occupancy
  Pr  Pr0  1  0.25834475  0.51542671  0.86196549  1
  Pr  Pr1  1  0.73472140  0.48399877  0.13878879  1
  Pr  Pr2  1  0.76571550  0.98524552  0.87267178  1
  Pr  Pr3  1  0.24767210  0.99094778  0.15088872  1
  Mn  Mn4  1  0.28972776  0.51158799  0.60251637  1
  Mn  Mn5  1  0.68824826  0.47947590  0.37339307  1
  Mn  Mn6  1  0.00249498  0.97668981  0.00225808  1
  Mn  Mn7  1  0.80630865  0.98245979  0.60027869  1
  Mn  Mn8  1  0.19123767  0.93700846  0.39525969  1
  Mn  Mn9  1  0.49919162  0.51188100  0.00231772  1
  Sb  Sb10  1  0.90223376  0.98815850  0.45072044  1
  Sb  Sb11  1  0.10732888  0.02635510  0.54954899  1
  Sb  Sb12  1  0.03558611  0.48891989  0.81508614  1
  Sb  Sb13  1  0.96353848  0.50614063  0.18333863  1
  Sb  Sb14  1  0.38759577  0.50816204  0.45057024  1
  Sb  Sb15  1  0.61521548  0.48356808  0.56484102  1
  Sb  Sb16  1  0.53637931  0.03416490  0.81734361  1
  Sb  Sb17  1  0.45994385  0.00433795  0.19172567  1
  S  S18  1  0.94046259  0.97627923  0.79910311  1
  S  S19  1  0.05977927  0.06076985  0.21026970  1
  S  S20  1  0.41419933  0.00176334  0.99531473  1
  S  S21  1  0.58428585  0.01211149  0.02098693  1
  S  S22  1  0.17292653  0.99670208  0.90235283  1
  S  S23  1  0.82681658  0.00236600  0.10982720  1
  S  S24  1  0.08876521  0.52509046  0.66050571  1
  S  S25  1  0.90753739  0.50815198  0.34996737  1
  S  S26  1  0.73833877  0.01662347  0.30202585  1
  S  S27  1  0.26204967  0.97541414  0.68902545  1
  S  S28  1  0.16085330  0.47594223  0.44924869  1
  S  S29  1  0.81889002  0.49097520  0.53308359  1
  S  S30  1  0.43439059  0.56963639  0.79714961  1
  S  S31  1  0.55829883  0.48208575  0.18450257  1
  S  S32  1  0.91003392  0.50648256  0.98186481  1
  S  S33  1  0.07977612  0.49764844  0.00617929  1
  S  S34  1  0.66482730  0.50492355  0.89376142  1
  S  S35  1  0.33441694  0.50687987  0.10157828  1
  S  S36  1  0.59657805  0.93228309  0.66645746  1
  S  S37  1  0.40494806  0.02874227  0.35591901  1
  S  S38  1  0.23593939  0.52910849  0.28111541  1
  S  S39  1  0.76186973  0.47681625  0.70772237  1
  S  S40  1  0.66873644  0.02194052  0.43759994  1
  S  S41  1  0.33271264  0.05119748  0.54210285  1
