# generated using pymatgen
data_Pr2Mn3(SbS3)4
_symmetry_space_group_name_H-M   'P 1'
_cell_length_a   20.02960800
_cell_length_b   3.90410600
_cell_length_c   14.95364829
_cell_angle_alpha   90.00000000
_cell_angle_beta   126.33350609
_cell_angle_gamma   90.00000000
_symmetry_Int_Tables_number   1
_chemical_formula_structural   Pr2Mn3(SbS3)4
_chemical_formula_sum   'Pr4 Mn6 Sb8 S24'
_cell_volume   942.00006694
_cell_formula_units_Z   2
loop_
 _symmetry_equiv_pos_site_id
 _symmetry_equiv_pos_as_xyz
  1  'x, y, z'
loop_
 _atom_site_type_symbol
 _atom_site_label
 _atom_site_symmetry_multiplicity
 _atom_site_fract_x
 _atom_site_fract_y
 _atom_site_fract_z
 _atom_site_occupancy
  Pr  Pr0  1  0.25818786  0.51497397  0.86187037  1
  Pr  Pr1  1  0.73479135  0.48463013  0.13883795  1
  Pr  Pr2  1  0.76582812  0.98550760  0.87266851  1
  Pr  Pr3  1  0.24745127  0.99118020  0.15068397  1
  Mn  Mn4  1  0.28957049  0.51022948  0.60220346  1
  Mn  Mn5  1  0.68842461  0.47894523  0.37344993  1
  Mn  Mn6  1  0.00223639  0.97728344  0.00199193  1
  Mn  Mn7  1  0.80640894  0.98260102  0.60017385  1
  Mn  Mn8  1  0.19138653  0.93810616  0.39561245  1
  Mn  Mn9  1  0.49909768  0.51220259  0.00244856  1
  Sb  Sb10  1  0.90221413  0.98756376  0.45062904  1
  Sb  Sb11  1  0.10741136  0.02659187  0.54983223  1
  Sb  Sb12  1  0.03556140  0.48910711  0.81504667  1
  Sb  Sb13  1  0.96358162  0.50639363  0.18356610  1
  Sb  Sb14  1  0.38754990  0.50741765  0.45055308  1
  Sb  Sb15  1  0.61515388  0.48417547  0.56494643  1
  Sb  Sb16  1  0.53634102  0.03437128  0.81713994  1
  Sb  Sb17  1  0.45988820  0.00458900  0.19157481  1
  S  S18  1  0.94082036  0.97564837  0.79952262  1
  S  S19  1  0.06017820  0.06098938  0.21060285  1
  S  S20  1  0.41417109  0.00074123  0.99534148  1
  S  S21  1  0.58438939  0.01194289  0.02115185  1
  S  S22  1  0.17306558  0.99671889  0.90237269  1
  S  S23  1  0.82655251  0.00202757  0.10934828  1
  S  S24  1  0.08892612  0.52528433  0.66083787  1
  S  S25  1  0.90739305  0.50680458  0.34975623  1
  S  S26  1  0.73804285  0.01721738  0.30173245  1
  S  S27  1  0.26218875  0.97633786  0.68927046  1
  S  S28  1  0.16128376  0.47651343  0.44965441  1
  S  S29  1  0.81892392  0.49102549  0.53324634  1
  S  S30  1  0.43470748  0.57042133  0.79731050  1
  S  S31  1  0.55819223  0.48207860  0.18440758  1
  S  S32  1  0.91024990  0.50810478  0.98230346  1
  S  S33  1  0.07967942  0.49861591  0.00653784  1
  S  S34  1  0.66480236  0.50584890  0.89372273  1
  S  S35  1  0.33437994  0.50608767  0.10119309  1
  S  S36  1  0.59663088  0.93178111  0.66669093  1
  S  S37  1  0.40525851  0.02672086  0.35634354  1
  S  S38  1  0.23583162  0.52889285  0.28133562  1
  S  S39  1  0.76177538  0.47687295  0.70778574  1
  S  S40  1  0.66867463  0.02292918  0.43778055  1
  S  S41  1  0.33279947  0.04993354  0.54195121  1
