# generated using pymatgen
data_Pr2Mn3(SbS3)4
_symmetry_space_group_name_H-M   'P 1'
_cell_length_a   20.02960800
_cell_length_b   3.90410600
_cell_length_c   14.95364829
_cell_angle_alpha   90.00000000
_cell_angle_beta   126.33350609
_cell_angle_gamma   90.00000000
_symmetry_Int_Tables_number   1
_chemical_formula_structural   Pr2Mn3(SbS3)4
_chemical_formula_sum   'Pr4 Mn6 Sb8 S24'
_cell_volume   942.00006694
_cell_formula_units_Z   2
loop_
 _symmetry_equiv_pos_site_id
 _symmetry_equiv_pos_as_xyz
  1  'x, y, z'
loop_
 _atom_site_type_symbol
 _atom_site_label
 _atom_site_symmetry_multiplicity
 _atom_site_fract_x
 _atom_site_fract_y
 _atom_site_fract_z
 _atom_site_occupancy
  Pr  Pr0  1  0.25799510  0.51467003  0.86177248  1
  Pr  Pr1  1  0.73481790  0.48542546  0.13879124  1
  Pr  Pr2  1  0.76593397  0.98586873  0.87275527  1
  Pr  Pr3  1  0.24719289  0.99136776  0.15050949  1
  Mn  Mn4  1  0.28950180  0.50942219  0.60202657  1
  Mn  Mn5  1  0.68868033  0.47806045  0.37333686  1
  Mn  Mn6  1  0.00197492  0.97748400  0.00175164  1
  Mn  Mn7  1  0.80632190  0.98247985  0.59992362  1
  Mn  Mn8  1  0.19153078  0.93885093  0.39604529  1
  Mn  Mn9  1  0.49896355  0.51255838  0.00250756  1
  Sb  Sb10  1  0.90214347  0.98676421  0.45055057  1
  Sb  Sb11  1  0.10750487  0.02694373  0.55012327  1
  Sb  Sb12  1  0.03556908  0.48935861  0.81506033  1
  Sb  Sb13  1  0.96363681  0.50709298  0.18383944  1
  Sb  Sb14  1  0.38756372  0.50659834  0.45059517  1
  Sb  Sb15  1  0.61496198  0.48490825  0.56496473  1
  Sb  Sb16  1  0.53633549  0.03451993  0.81706433  1
  Sb  Sb17  1  0.45980929  0.00498520  0.19141386  1
  S  S18  1  0.94109414  0.97528483  0.79984168  1
  S  S19  1  0.06054518  0.06082683  0.21094157  1
  S  S20  1  0.41423858  0.00017492  0.99538641  1
  S  S21  1  0.58443892  0.01084720  0.02113107  1
  S  S22  1  0.17326799  0.99648022  0.90239007  1
  S  S23  1  0.82622334  0.00186632  0.10893025  1
  S  S24  1  0.08912814  0.52552614  0.66112582  1
  S  S25  1  0.90722330  0.50597849  0.34956041  1
  S  S26  1  0.73759514  0.01708844  0.30144968  1
  S  S27  1  0.26221371  0.97699796  0.68929364  1
  S  S28  1  0.16156360  0.47667182  0.45007776  1
  S  S29  1  0.81902422  0.49087215  0.53330122  1
  S  S30  1  0.43502396  0.57095821  0.79753115  1
  S  S31  1  0.55798434  0.48225975  0.18405015  1
  S  S32  1  0.91059334  0.50907677  0.98285664  1
  S  S33  1  0.07947466  0.49906182  0.00689140  1
  S  S34  1  0.66488978  0.50684076  0.89394908  1
  S  S35  1  0.33426165  0.50611958  0.10073046  1
  S  S36  1  0.59673332  0.93137374  0.66706074  1
  S  S37  1  0.40548207  0.02473676  0.35663719  1
  S  S38  1  0.23575671  0.52870722  0.28151981  1
  S  S39  1  0.76177525  0.47617646  0.70800329  1
  S  S40  1  0.66872495  0.02402300  0.43806734  1
  S  S41  1  0.33291162  0.04813032  0.54213698  1
