# generated using pymatgen
data_Pr2Mn3(SbS3)4
_symmetry_space_group_name_H-M   'P 1'
_cell_length_a   20.02960800
_cell_length_b   3.90410600
_cell_length_c   14.95364829
_cell_angle_alpha   90.00000000
_cell_angle_beta   126.33350609
_cell_angle_gamma   90.00000000
_symmetry_Int_Tables_number   1
_chemical_formula_structural   Pr2Mn3(SbS3)4
_chemical_formula_sum   'Pr4 Mn6 Sb8 S24'
_cell_volume   942.00006694
_cell_formula_units_Z   2
loop_
 _symmetry_equiv_pos_site_id
 _symmetry_equiv_pos_as_xyz
  1  'x, y, z'
loop_
 _atom_site_type_symbol
 _atom_site_label
 _atom_site_symmetry_multiplicity
 _atom_site_fract_x
 _atom_site_fract_y
 _atom_site_fract_z
 _atom_site_occupancy
  Pr  Pr0  1  0.25784161  0.51434116  0.86171854  1
  Pr  Pr1  1  0.73482668  0.48555793  0.13866798  1
  Pr  Pr2  1  0.76598304  0.98615036  0.87284539  1
  Pr  Pr3  1  0.24691418  0.99169784  0.15025405  1
  Mn  Mn4  1  0.28931164  0.50869972  0.60181292  1
  Mn  Mn5  1  0.68893286  0.47700110  0.37308497  1
  Mn  Mn6  1  0.00169199  0.97820179  0.00142925  1
  Mn  Mn7  1  0.80631034  0.98199110  0.59984893  1
  Mn  Mn8  1  0.19165124  0.93946341  0.39634314  1
  Mn  Mn9  1  0.49895644  0.51294697  0.00254053  1
  Sb  Sb10  1  0.90202640  0.98600887  0.45042399  1
  Sb  Sb11  1  0.10760860  0.02709605  0.55038059  1
  Sb  Sb12  1  0.03551475  0.48963314  0.81505584  1
  Sb  Sb13  1  0.96377104  0.50803583  0.18408790  1
  Sb  Sb14  1  0.38760482  0.50577432  0.45067559  1
  Sb  Sb15  1  0.61476829  0.48569589  0.56495353  1
  Sb  Sb16  1  0.53628168  0.03439506  0.81702121  1
  Sb  Sb17  1  0.45975322  0.00546598  0.19131678  1
  S  S18  1  0.94137406  0.97499798  0.80023285  1
  S  S19  1  0.06082532  0.06036725  0.21111733  1
  S  S20  1  0.41426462  0.99901213  0.99550854  1
  S  S21  1  0.58446287  0.00948077  0.02100518  1
  S  S22  1  0.17358375  0.99601800  0.90244670  1
  S  S23  1  0.82615148  0.00156844  0.10873829  1
  S  S24  1  0.08923705  0.52541286  0.66124816  1
  S  S25  1  0.90714456  0.50506740  0.34937989  1
  S  S26  1  0.73705981  0.01670718  0.30129964  1
  S  S27  1  0.26236971  0.97710198  0.68933469  1
  S  S28  1  0.16190416  0.47644409  0.45055496  1
  S  S29  1  0.81906862  0.49108777  0.53308009  1
  S  S30  1  0.43540237  0.57161471  0.79793263  1
  S  S31  1  0.55791061  0.48193790  0.18395252  1
  S  S32  1  0.91091520  0.50988200  0.98338482  1
  S  S33  1  0.07934632  0.49871314  0.00738173  1
  S  S34  1  0.66491448  0.50826430  0.89430110  1
  S  S35  1  0.33409832  0.50602752  0.10036239  1
  S  S36  1  0.59677074  0.93088847  0.66743803  1
  S  S37  1  0.40580422  0.02232109  0.35697638  1
  S  S38  1  0.23578584  0.52859355  0.28169732  1
  S  S39  1  0.76170826  0.47570280  0.70813768  1
  S  S40  1  0.66869888  0.02513763  0.43825219  1
  S  S41  1  0.33323581  0.04685161  0.54259497  1
