# generated using pymatgen
data_Pr2Mn3(SbS3)4
_symmetry_space_group_name_H-M   'P 1'
_cell_length_a   20.02960800
_cell_length_b   3.90410600
_cell_length_c   14.95364829
_cell_angle_alpha   90.00000000
_cell_angle_beta   126.33350609
_cell_angle_gamma   90.00000000
_symmetry_Int_Tables_number   1
_chemical_formula_structural   Pr2Mn3(SbS3)4
_chemical_formula_sum   'Pr4 Mn6 Sb8 S24'
_cell_volume   942.00006694
_cell_formula_units_Z   2
loop_
 _symmetry_equiv_pos_site_id
 _symmetry_equiv_pos_as_xyz
  1  'x, y, z'
loop_
 _atom_site_type_symbol
 _atom_site_label
 _atom_site_symmetry_multiplicity
 _atom_site_fract_x
 _atom_site_fract_y
 _atom_site_fract_z
 _atom_site_occupancy
  Pr  Pr0  1  0.25764463  0.51409938  0.86157699  1
  Pr  Pr1  1  0.73482659  0.48557900  0.13858761  1
  Pr  Pr2  1  0.76598752  0.98643523  0.87294815  1
  Pr  Pr3  1  0.24661448  0.99172641  0.15006632  1
  Mn  Mn4  1  0.28906817  0.50830263  0.60152622  1
  Mn  Mn5  1  0.68915917  0.47629997  0.37278095  1
  Mn  Mn6  1  0.00158419  0.97861365  0.00129466  1
  Mn  Mn7  1  0.80653153  0.98119507  0.59999466  1
  Mn  Mn8  1  0.19169743  0.93961812  0.39654523  1
  Mn  Mn9  1  0.49894548  0.51364418  0.00258307  1
  Sb  Sb10  1  0.90195674  0.98563559  0.45037613  1
  Sb  Sb11  1  0.10765083  0.02693527  0.55050730  1
  Sb  Sb12  1  0.03548766  0.49044890  0.81501485  1
  Sb  Sb13  1  0.96383886  0.50895382  0.18428787  1
  Sb  Sb14  1  0.38766171  0.50511849  0.45077820  1
  Sb  Sb15  1  0.61465978  0.48642765  0.56510576  1
  Sb  Sb16  1  0.53627349  0.03390769  0.81708493  1
  Sb  Sb17  1  0.45972729  0.00586328  0.19127432  1
  S  S18  1  0.94160375  0.97505473  0.80063111  1
  S  S19  1  0.06126009  0.05994240  0.21140412  1
  S  S20  1  0.41416872  0.99706010  0.99531445  1
  S  S21  1  0.58459780  0.00939399  0.02115918  1
  S  S22  1  0.17380542  0.99544376  0.90242676  1
  S  S23  1  0.82601523  0.00123061  0.10840358  1
  S  S24  1  0.08921154  0.52477039  0.66127070  1
  S  S25  1  0.90700716  0.50441599  0.34930728  1
  S  S26  1  0.73635770  0.01625050  0.30092615  1
  S  S27  1  0.26233746  0.97739864  0.68922929  1
  S  S28  1  0.16219660  0.47636750  0.45091140  1
  S  S29  1  0.81897512  0.49206324  0.53285470  1
  S  S30  1  0.43576261  0.57200171  0.79824245  1
  S  S31  1  0.55780568  0.48121496  0.18394330  1
  S  S32  1  0.91135736  0.51141730  0.98403752  1
  S  S33  1  0.07922293  0.49799750  0.00780735  1
  S  S34  1  0.66497811  0.50890712  0.89457474  1
  S  S35  1  0.33402396  0.50625218  0.10021934  1
  S  S36  1  0.59688580  0.93075527  0.66767317  1
  S  S37  1  0.40618702  0.02026917  0.35734647  1
  S  S38  1  0.23592855  0.52859557  0.28198149  1
  S  S39  1  0.76172084  0.47562432  0.70835511  1
  S  S40  1  0.66869139  0.02607927  0.43852117  1
  S  S41  1  0.33355526  0.04588954  0.54310160  1
