# generated using pymatgen
data_Pr2Mn3(SbS3)4
_symmetry_space_group_name_H-M   'P 1'
_cell_length_a   20.02960800
_cell_length_b   3.90410600
_cell_length_c   14.95364829
_cell_angle_alpha   90.00000000
_cell_angle_beta   126.33350609
_cell_angle_gamma   90.00000000
_symmetry_Int_Tables_number   1
_chemical_formula_structural   Pr2Mn3(SbS3)4
_chemical_formula_sum   'Pr4 Mn6 Sb8 S24'
_cell_volume   942.00006694
_cell_formula_units_Z   2
loop_
 _symmetry_equiv_pos_site_id
 _symmetry_equiv_pos_as_xyz
  1  'x, y, z'
loop_
 _atom_site_type_symbol
 _atom_site_label
 _atom_site_symmetry_multiplicity
 _atom_site_fract_x
 _atom_site_fract_y
 _atom_site_fract_z
 _atom_site_occupancy
  Pr  Pr0  1  0.25744289  0.51414315  0.86150480  1
  Pr  Pr1  1  0.73483175  0.48561317  0.13856244  1
  Pr  Pr2  1  0.76598528  0.98661889  0.87296558  1
  Pr  Pr3  1  0.24636082  0.99170152  0.14986925  1
  Mn  Mn4  1  0.28887930  0.50791284  0.60134725  1
  Mn  Mn5  1  0.68943670  0.47537975  0.37255621  1
  Mn  Mn6  1  0.00151956  0.97925741  0.00113130  1
  Mn  Mn7  1  0.80682124  0.98085497  0.60022459  1
  Mn  Mn8  1  0.19180336  0.94009901  0.39682889  1
  Mn  Mn9  1  0.49892607  0.51427067  0.00255817  1
  Sb  Sb10  1  0.90192872  0.98515651  0.45043127  1
  Sb  Sb11  1  0.10769913  0.02689309  0.55062000  1
  Sb  Sb12  1  0.03542168  0.49109641  0.81490004  1
  Sb  Sb13  1  0.96390762  0.50982958  0.18443082  1
  Sb  Sb14  1  0.38778029  0.50430887  0.45087631  1
  Sb  Sb15  1  0.61456409  0.48687611  0.56525892  1
  Sb  Sb16  1  0.53634145  0.03378234  0.81727054  1
  Sb  Sb17  1  0.45969054  0.00616104  0.19121403  1
  S  S18  1  0.94190403  0.97477155  0.80099030  1
  S  S19  1  0.06180900  0.05974409  0.21178169  1
  S  S20  1  0.41404194  0.99486154  0.99505037  1
  S  S21  1  0.58469445  0.00883066  0.02129759  1
  S  S22  1  0.17404647  0.99520710  0.90232269  1
  S  S23  1  0.82577086  0.00086031  0.10779484  1
  S  S24  1  0.08913016  0.52429336  0.66122772  1
  S  S25  1  0.90686726  0.50457236  0.34901336  1
  S  S26  1  0.73572392  0.01627870  0.30065015  1
  S  S27  1  0.26226830  0.97700451  0.68917065  1
  S  S28  1  0.16241303  0.47553572  0.45132221  1
  S  S29  1  0.81892565  0.49200333  0.53281069  1
  S  S30  1  0.43617940  0.57174600  0.79861270  1
  S  S31  1  0.55768214  0.48002920  0.18381129  1
  S  S32  1  0.91188070  0.51261750  0.98491729  1
  S  S33  1  0.07920250  0.49738500  0.00838013  1
  S  S34  1  0.66500381  0.50963103  0.89484971  1
  S  S35  1  0.33389786  0.50619605  0.10004095  1
  S  S36  1  0.59700947  0.93062649  0.66807425  1
  S  S37  1  0.40676135  0.01813049  0.35783623  1
  S  S38  1  0.23616714  0.52910982  0.28231444  1
  S  S39  1  0.76174477  0.47547154  0.70879503  1
  S  S40  1  0.66863163  0.02672181  0.43877352  1
  S  S41  1  0.33379820  0.04446737  0.54345078  1
