# generated using pymatgen
data_Pr2Mn3(SbS3)4
_symmetry_space_group_name_H-M   'P 1'
_cell_length_a   20.02960800
_cell_length_b   3.90410600
_cell_length_c   14.95364829
_cell_angle_alpha   90.00000000
_cell_angle_beta   126.33350609
_cell_angle_gamma   90.00000000
_symmetry_Int_Tables_number   1
_chemical_formula_structural   Pr2Mn3(SbS3)4
_chemical_formula_sum   'Pr4 Mn6 Sb8 S24'
_cell_volume   942.00006694
_cell_formula_units_Z   2
loop_
 _symmetry_equiv_pos_site_id
 _symmetry_equiv_pos_as_xyz
  1  'x, y, z'
loop_
 _atom_site_type_symbol
 _atom_site_label
 _atom_site_symmetry_multiplicity
 _atom_site_fract_x
 _atom_site_fract_y
 _atom_site_fract_z
 _atom_site_occupancy
  Pr  Pr0  1  0.25718666  0.51441163  0.86142712  1
  Pr  Pr1  1  0.73481367  0.48571037  0.13849910  1
  Pr  Pr2  1  0.76599984  0.98702822  0.87300747  1
  Pr  Pr3  1  0.24612808  0.99198232  0.14972805  1
  Mn  Mn4  1  0.28871739  0.50819335  0.60111868  1
  Mn  Mn5  1  0.68975418  0.47452860  0.37243073  1
  Mn  Mn6  1  0.00145860  0.97987667  0.00093856  1
  Mn  Mn7  1  0.80705083  0.97993196  0.60033257  1
  Mn  Mn8  1  0.19201171  0.94054895  0.39710178  1
  Mn  Mn9  1  0.49890674  0.51514520  0.00261072  1
  Sb  Sb10  1  0.90190147  0.98434131  0.45046838  1
  Sb  Sb11  1  0.10779515  0.02685098  0.55082423  1
  Sb  Sb12  1  0.03535006  0.49182505  0.81485482  1
  Sb  Sb13  1  0.96388352  0.51095231  0.18452742  1
  Sb  Sb14  1  0.38786860  0.50359706  0.45097203  1
  Sb  Sb15  1  0.61457256  0.48720695  0.56538086  1
  Sb  Sb16  1  0.53636050  0.03385874  0.81736607  1
  Sb  Sb17  1  0.45961847  0.00632455  0.19110607  1
  S  S18  1  0.94206361  0.97458851  0.80123052  1
  S  S19  1  0.06233142  0.05924572  0.21229060  1
  S  S20  1  0.41382919  0.99297877  0.99463968  1
  S  S21  1  0.58470259  0.00856900  0.02146011  1
  S  S22  1  0.17431965  0.99528821  0.90226894  1
  S  S23  1  0.82552518  0.00091899  0.10720232  1
  S  S24  1  0.08903238  0.52462443  0.66114790  1
  S  S25  1  0.90680821  0.50476787  0.34891047  1
  S  S26  1  0.73523637  0.01645914  0.30055451  1
  S  S27  1  0.26212815  0.97709751  0.68912341  1
  S  S28  1  0.16259138  0.47427448  0.45163221  1
  S  S29  1  0.81901808  0.49194685  0.53298940  1
  S  S30  1  0.43662478  0.57109742  0.79886927  1
  S  S31  1  0.55760882  0.47851721  0.18382952  1
  S  S32  1  0.91249102  0.51357857  0.98567646  1
  S  S33  1  0.07920233  0.49621584  0.00897582  1
  S  S34  1  0.66525895  0.51054395  0.89545326  1
  S  S35  1  0.33373586  0.50653817  0.09980843  1
  S  S36  1  0.59720999  0.93102935  0.66834028  1
  S  S37  1  0.40735629  0.01609760  0.35831554  1
  S  S38  1  0.23646438  0.52989087  0.28266104  1
  S  S39  1  0.76165958  0.47492368  0.70921121  1
  S  S40  1  0.66854770  0.02702718  0.43887431  1
  S  S41  1  0.33403547  0.04332679  0.54389704  1
