# generated using pymatgen
data_Pr2Mn3(SbS3)4
_symmetry_space_group_name_H-M   'P 1'
_cell_length_a   20.02960800
_cell_length_b   3.90410600
_cell_length_c   14.95364829
_cell_angle_alpha   90.00000000
_cell_angle_beta   126.33350609
_cell_angle_gamma   90.00000000
_symmetry_Int_Tables_number   1
_chemical_formula_structural   Pr2Mn3(SbS3)4
_chemical_formula_sum   'Pr4 Mn6 Sb8 S24'
_cell_volume   942.00006694
_cell_formula_units_Z   2
loop_
 _symmetry_equiv_pos_site_id
 _symmetry_equiv_pos_as_xyz
  1  'x, y, z'
loop_
 _atom_site_type_symbol
 _atom_site_label
 _atom_site_symmetry_multiplicity
 _atom_site_fract_x
 _atom_site_fract_y
 _atom_site_fract_z
 _atom_site_occupancy
  Pr  Pr0  1  0.26702459  0.49703099  0.86443570  1
  Pr  Pr1  1  0.73607447  0.51160378  0.13661539  1
  Pr  Pr2  1  0.76313801  0.01178733  0.86087514  1
  Pr  Pr3  1  0.23499274  0.99845119  0.13488842  1
  Mn  Mn4  1  0.28803016  0.48222546  0.58963445  1
  Mn  Mn5  1  0.68578012  0.47372564  0.36729949  1
  Mn  Mn6  1  0.00854009  0.98796936  0.02026317  1
  Mn  Mn7  1  0.80492058  0.01055017  0.61895523  1
  Mn  Mn8  1  0.19795229  0.97818797  0.37305787  1
  Mn  Mn9  1  0.49158906  0.48025807  0.99031533  1
  Sb  Sb10  1  0.88978804  0.98759852  0.45112897  1
  Sb  Sb11  1  0.11176427  0.98113232  0.54551469  1
  Sb  Sb12  1  0.03865217  0.52030440  0.82118443  1
  Sb  Sb13  1  0.96213372  0.50063647  0.18350406  1
  Sb  Sb14  1  0.39480841  0.50522078  0.45066217  1
  Sb  Sb15  1  0.60674225  0.46965373  0.54977576  1
  Sb  Sb16  1  0.53387041  0.99558012  0.80841621  1
  Sb  Sb17  1  0.46543069  0.01829521  0.19050410  1
  S  S18  1  0.93780124  0.00591523  0.80622758  1
  S  S19  1  0.06461699  0.97468716  0.20089664  1
  S  S20  1  0.41595793  0.96031227  0.98117961  1
  S  S21  1  0.57864645  0.03257259  0.01069041  1
  S  S22  1  0.17163233  0.04838580  0.90323850  1
  S  S23  1  0.82722088  0.04868639  0.09724892  1
  S  S24  1  0.09442661  0.48186147  0.64667467  1
  S  S25  1  0.91359738  0.48990133  0.35620650  1
  S  S26  1  0.73717017  0.95138693  0.30104095  1
  S  S27  1  0.26179160  0.00821528  0.70674721  1
  S  S28  1  0.16043516  0.50340886  0.42195763  1
  S  S29  1  0.82357905  0.48936440  0.55054599  1
  S  S30  1  0.43039950  0.49664493  0.79857538  1
  S  S31  1  0.55432687  0.52797305  0.18212824  1
  S  S32  1  0.91124304  0.48790300  0.98717804  1
  S  S33  1  0.09307848  0.48994477  0.03304353  1
  S  S34  1  0.66194422  0.51384367  0.88485704  1
  S  S35  1  0.33158802  0.50311990  0.10160597  1
  S  S36  1  0.59885470  0.99342073  0.65786851  1
  S  S37  1  0.40102128  0.99094375  0.34229961  1
  S  S38  1  0.23867224  0.46358312  0.31021357  1
  S  S39  1  0.76049380  0.50637209  0.69318107  1
  S  S40  1  0.66790246  0.03579322  0.44953808  1
  S  S41  1  0.32939913  0.98352331  0.55592555  1
