# generated using pymatgen
data_Pr2Mn3(SbS3)4
_symmetry_space_group_name_H-M   'P 1'
_cell_length_a   20.02960800
_cell_length_b   3.90410600
_cell_length_c   14.95364829
_cell_angle_alpha   90.00000000
_cell_angle_beta   126.33350609
_cell_angle_gamma   90.00000000
_symmetry_Int_Tables_number   1
_chemical_formula_structural   Pr2Mn3(SbS3)4
_chemical_formula_sum   'Pr4 Mn6 Sb8 S24'
_cell_volume   942.00006694
_cell_formula_units_Z   2
loop_
 _symmetry_equiv_pos_site_id
 _symmetry_equiv_pos_as_xyz
  1  'x, y, z'
loop_
 _atom_site_type_symbol
 _atom_site_label
 _atom_site_symmetry_multiplicity
 _atom_site_fract_x
 _atom_site_fract_y
 _atom_site_fract_z
 _atom_site_occupancy
  Pr  Pr0  1  0.25698221  0.51454868  0.86132333  1
  Pr  Pr1  1  0.73479957  0.48588290  0.13845109  1
  Pr  Pr2  1  0.76597433  0.98736188  0.87301533  1
  Pr  Pr3  1  0.24589942  0.99205869  0.14961199  1
  Mn  Mn4  1  0.28850537  0.50814199  0.60076919  1
  Mn  Mn5  1  0.69009974  0.47410271  0.37232526  1
  Mn  Mn6  1  0.00133524  0.98082734  0.00063281  1
  Mn  Mn7  1  0.80731765  0.97889737  0.60049815  1
  Mn  Mn8  1  0.19216592  0.94086463  0.39720651  1
  Mn  Mn9  1  0.49899139  0.51616574  0.00271159  1
  Sb  Sb10  1  0.90185771  0.98399757  0.45046458  1
  Sb  Sb11  1  0.10786300  0.02662810  0.55094125  1
  Sb  Sb12  1  0.03523816  0.49255688  0.81482009  1
  Sb  Sb13  1  0.96377516  0.51200790  0.18455472  1
  Sb  Sb14  1  0.38800096  0.50279795  0.45104967  1
  Sb  Sb15  1  0.61463524  0.48718119  0.56543577  1
  Sb  Sb16  1  0.53633863  0.03386603  0.81740190  1
  Sb  Sb17  1  0.45945189  0.00616586  0.19093196  1
  S  S18  1  0.94212517  0.97461383  0.80154769  1
  S  S19  1  0.06284059  0.05810087  0.21280619  1
  S  S20  1  0.41371928  0.99019539  0.99441574  1
  S  S21  1  0.58483830  0.00880344  0.02169958  1
  S  S22  1  0.17444436  0.99603011  0.90206085  1
  S  S23  1  0.82534210  0.00035186  0.10676797  1
  S  S24  1  0.08912642  0.52422114  0.66137998  1
  S  S25  1  0.90671559  0.50513527  0.34857531  1
  S  S26  1  0.73473515  0.01704148  0.30029351  1
  S  S27  1  0.26210353  0.97757517  0.68925837  1
  S  S28  1  0.16285188  0.47324146  0.45187464  1
  S  S29  1  0.81912316  0.49174617  0.53329857  1
  S  S30  1  0.43704246  0.57161232  0.79903746  1
  S  S31  1  0.55764429  0.47646512  0.18402567  1
  S  S32  1  0.91306831  0.51382980  0.98656356  1
  S  S33  1  0.07916025  0.49490778  0.00960082  1
  S  S34  1  0.66559981  0.51135199  0.89612878  1
  S  S35  1  0.33354648  0.50636995  0.09958854  1
  S  S36  1  0.59740778  0.93165352  0.66859432  1
  S  S37  1  0.40800578  0.01379549  0.35875690  1
  S  S38  1  0.23671131  0.53110891  0.28293308  1
  S  S39  1  0.76147239  0.47450913  0.70954436  1
  S  S40  1  0.66835554  0.02769681  0.43877592  1
  S  S41  1  0.33437244  0.04279381  0.54427737  1
