# generated using pymatgen
data_Pr2Mn3(SbS3)4
_symmetry_space_group_name_H-M   'P 1'
_cell_length_a   20.02960800
_cell_length_b   3.90410600
_cell_length_c   14.95364829
_cell_angle_alpha   90.00000000
_cell_angle_beta   126.33350609
_cell_angle_gamma   90.00000000
_symmetry_Int_Tables_number   1
_chemical_formula_structural   Pr2Mn3(SbS3)4
_chemical_formula_sum   'Pr4 Mn6 Sb8 S24'
_cell_volume   942.00006694
_cell_formula_units_Z   2
loop_
 _symmetry_equiv_pos_site_id
 _symmetry_equiv_pos_as_xyz
  1  'x, y, z'
loop_
 _atom_site_type_symbol
 _atom_site_label
 _atom_site_symmetry_multiplicity
 _atom_site_fract_x
 _atom_site_fract_y
 _atom_site_fract_z
 _atom_site_occupancy
  Pr  Pr0  1  0.25680153  0.51427713  0.86127439  1
  Pr  Pr1  1  0.73483301  0.48599232  0.13840775  1
  Pr  Pr2  1  0.76599743  0.98774458  0.87299320  1
  Pr  Pr3  1  0.24564577  0.99202803  0.14946996  1
  Mn  Mn4  1  0.28840812  0.50790513  0.60056336  1
  Mn  Mn5  1  0.69042156  0.47371032  0.37221491  1
  Mn  Mn6  1  0.00111280  0.98143071  0.00027123  1
  Mn  Mn7  1  0.80757081  0.97791709  0.60053197  1
  Mn  Mn8  1  0.19228090  0.94168259  0.39729760  1
  Mn  Mn9  1  0.49917649  0.51724041  0.00289482  1
  Sb  Sb10  1  0.90186023  0.98386125  0.45046315  1
  Sb  Sb11  1  0.10793184  0.02653807  0.55100540  1
  Sb  Sb12  1  0.03514517  0.49319930  0.81469077  1
  Sb  Sb13  1  0.96370893  0.51285085  0.18457249  1
  Sb  Sb14  1  0.38809084  0.50202107  0.45115972  1
  Sb  Sb15  1  0.61466353  0.48671189  0.56548216  1
  Sb  Sb16  1  0.53627084  0.03374750  0.81746081  1
  Sb  Sb17  1  0.45925378  0.00615807  0.19076011  1
  S  S18  1  0.94230204  0.97473813  0.80182879  1
  S  S19  1  0.06327620  0.05714687  0.21338476  1
  S  S20  1  0.41372766  0.98769195  0.99436415  1
  S  S21  1  0.58491404  0.00837566  0.02195302  1
  S  S22  1  0.17456617  0.99730772  0.90198061  1
  S  S23  1  0.82510722  0.99976659  0.10622155  1
  S  S24  1  0.08918472  0.52392021  0.66143425  1
  S  S25  1  0.90668008  0.50509975  0.34817744  1
  S  S26  1  0.73429262  0.01756880  0.30033083  1
  S  S27  1  0.26205781  0.97875498  0.68947333  1
  S  S28  1  0.16302537  0.47241152  0.45196461  1
  S  S29  1  0.81929657  0.49173010  0.53368195  1
  S  S30  1  0.43752191  0.57237721  0.79926239  1
  S  S31  1  0.55762954  0.47366213  0.18434325  1
  S  S32  1  0.91380138  0.51393514  0.98740911  1
  S  S33  1  0.07921529  0.49348479  0.01022541  1
  S  S34  1  0.66594487  0.51249322  0.89681110  1
  S  S35  1  0.33327483  0.50638324  0.09911031  1
  S  S36  1  0.59766971  0.93207990  0.66901107  1
  S  S37  1  0.40877797  0.01124530  0.35944627  1
  S  S38  1  0.23690765  0.53276291  0.28329731  1
  S  S39  1  0.76154933  0.47415185  0.71001674  1
  S  S40  1  0.66821616  0.02827007  0.43849155  1
  S  S41  1  0.33470298  0.04248471  0.54452992  1
