# generated using pymatgen
data_Pr2Mn3(SbS3)4
_symmetry_space_group_name_H-M   'P 1'
_cell_length_a   20.02960800
_cell_length_b   3.90410600
_cell_length_c   14.95364829
_cell_angle_alpha   90.00000000
_cell_angle_beta   126.33350609
_cell_angle_gamma   90.00000000
_symmetry_Int_Tables_number   1
_chemical_formula_structural   Pr2Mn3(SbS3)4
_chemical_formula_sum   'Pr4 Mn6 Sb8 S24'
_cell_volume   942.00006694
_cell_formula_units_Z   2
loop_
 _symmetry_equiv_pos_site_id
 _symmetry_equiv_pos_as_xyz
  1  'x, y, z'
loop_
 _atom_site_type_symbol
 _atom_site_label
 _atom_site_symmetry_multiplicity
 _atom_site_fract_x
 _atom_site_fract_y
 _atom_site_fract_z
 _atom_site_occupancy
  Pr  Pr0  1  0.25665398  0.51399746  0.86122180  1
  Pr  Pr1  1  0.73496112  0.48607192  0.13829517  1
  Pr  Pr2  1  0.76604426  0.98814813  0.87299395  1
  Pr  Pr3  1  0.24548599  0.99217422  0.14942526  1
  Mn  Mn4  1  0.28826626  0.50769675  0.60034783  1
  Mn  Mn5  1  0.69067364  0.47339900  0.37203227  1
  Mn  Mn6  1  0.00092289  0.98196565  0.00002262  1
  Mn  Mn7  1  0.80786604  0.97678063  0.60071305  1
  Mn  Mn8  1  0.19242613  0.94240647  0.39753579  1
  Mn  Mn9  1  0.49934638  0.51879982  0.00294410  1
  Sb  Sb10  1  0.90186090  0.98380292  0.45055973  1
  Sb  Sb11  1  0.10802032  0.02636764  0.55108155  1
  Sb  Sb12  1  0.03503195  0.49375745  0.81446762  1
  Sb  Sb13  1  0.96365653  0.51365552  0.18458582  1
  Sb  Sb14  1  0.38823803  0.50146821  0.45137659  1
  Sb  Sb15  1  0.61465493  0.48633620  0.56555952  1
  Sb  Sb16  1  0.53619944  0.03367649  0.81747681  1
  Sb  Sb17  1  0.45910778  0.00583276  0.19063675  1
  S  S18  1  0.94244868  0.97479425  0.80224934  1
  S  S19  1  0.06359543  0.05597936  0.21385904  1
  S  S20  1  0.41363587  0.98523398  0.99440270  1
  S  S21  1  0.58514563  0.00793023  0.02233857  1
  S  S22  1  0.17458771  0.99854806  0.90176227  1
  S  S23  1  0.82498042  0.99973638  0.10568348  1
  S  S24  1  0.08908504  0.52349699  0.66135695  1
  S  S25  1  0.90670416  0.50471745  0.34784254  1
  S  S26  1  0.73408346  0.01799671  0.30081373  1
  S  S27  1  0.26214148  0.97994464  0.68981154  1
  S  S28  1  0.16299325  0.47190750  0.45175636  1
  S  S29  1  0.81930009  0.49179391  0.53381539  1
  S  S30  1  0.43789454  0.57309747  0.79930856  1
  S  S31  1  0.55752088  0.47068478  0.18464122  1
  S  S32  1  0.91456323  0.51421171  0.98841543  1
  S  S33  1  0.07933640  0.49259556  0.01096717  1
  S  S34  1  0.66639971  0.51289763  0.89757583  1
  S  S35  1  0.33307662  0.50743477  0.09881610  1
  S  S36  1  0.59787614  0.93255074  0.66949186  1
  S  S37  1  0.40965922  0.00933513  0.36041063  1
  S  S38  1  0.23698353  0.53425437  0.28353618  1
  S  S39  1  0.76162656  0.47357261  0.71040940  1
  S  S40  1  0.66793754  0.02871732  0.43805220  1
  S  S41  1  0.33500911  0.04226585  0.54468598  1
