# generated using pymatgen
data_Pr2Mn3(SbS3)4
_symmetry_space_group_name_H-M   'P 1'
_cell_length_a   20.02960800
_cell_length_b   3.90410600
_cell_length_c   14.95364829
_cell_angle_alpha   90.00000000
_cell_angle_beta   126.33350609
_cell_angle_gamma   90.00000000
_symmetry_Int_Tables_number   1
_chemical_formula_structural   Pr2Mn3(SbS3)4
_chemical_formula_sum   'Pr4 Mn6 Sb8 S24'
_cell_volume   942.00006694
_cell_formula_units_Z   2
loop_
 _symmetry_equiv_pos_site_id
 _symmetry_equiv_pos_as_xyz
  1  'x, y, z'
loop_
 _atom_site_type_symbol
 _atom_site_label
 _atom_site_symmetry_multiplicity
 _atom_site_fract_x
 _atom_site_fract_y
 _atom_site_fract_z
 _atom_site_occupancy
  Pr  Pr0  1  0.25649388  0.51373586  0.86120881  1
  Pr  Pr1  1  0.73509128  0.48637128  0.13828433  1
  Pr  Pr2  1  0.76608332  0.98880731  0.87296406  1
  Pr  Pr3  1  0.24540160  0.99222768  0.14946161  1
  Mn  Mn4  1  0.28813780  0.50762116  0.60008004  1
  Mn  Mn5  1  0.69093177  0.47311134  0.37192222  1
  Mn  Mn6  1  0.00073021  0.98261852  0.99966627  1
  Mn  Mn7  1  0.80803379  0.97621345  0.60068808  1
  Mn  Mn8  1  0.19246059  0.94257408  0.39779292  1
  Mn  Mn9  1  0.49940892  0.52018577  0.00296080  1
  Sb  Sb10  1  0.90192502  0.98354897  0.45073169  1
  Sb  Sb11  1  0.10806650  0.02597000  0.55113459  1
  Sb  Sb12  1  0.03497924  0.49453658  0.81426313  1
  Sb  Sb13  1  0.96361119  0.51450785  0.18466244  1
  Sb  Sb14  1  0.38833695  0.50132135  0.45144779  1
  Sb  Sb15  1  0.61469155  0.48580065  0.56558184  1
  Sb  Sb16  1  0.53611860  0.03364823  0.81754070  1
  Sb  Sb17  1  0.45891651  0.00574165  0.19047174  1
  S  S18  1  0.94263369  0.97424478  0.80278112  1
  S  S19  1  0.06385436  0.05467652  0.21430810  1
  S  S20  1  0.41350372  0.98264036  0.99445817  1
  S  S21  1  0.58548750  0.00750029  0.02264384  1
  S  S22  1  0.17466217  0.99938336  0.90166355  1
  S  S23  1  0.82490948  0.99974849  0.10514320  1
  S  S24  1  0.08891508  0.52352820  0.66106166  1
  S  S25  1  0.90668607  0.50470272  0.34761663  1
  S  S26  1  0.73381476  0.01823715  0.30109222  1
  S  S27  1  0.26217684  0.98060035  0.69017556  1
  S  S28  1  0.16293152  0.47132963  0.45144774  1
  S  S29  1  0.81928896  0.49199736  0.53399016  1
  S  S30  1  0.43818808  0.57338478  0.79924173  1
  S  S31  1  0.55743091  0.46828684  0.18500661  1
  S  S32  1  0.91530574  0.51435621  0.98920475  1
  S  S33  1  0.07949748  0.49153997  0.01162945  1
  S  S34  1  0.66663094  0.51233936  0.89809078  1
  S  S35  1  0.33286119  0.50905922  0.09848925  1
  S  S36  1  0.59816415  0.93323942  0.67005524  1
  S  S37  1  0.41033222  0.00788188  0.36114452  1
  S  S38  1  0.23712434  0.53625770  0.28404598  1
  S  S39  1  0.76165435  0.47297376  0.71071820  1
  S  S40  1  0.66771658  0.02908076  0.43767346  1
  S  S41  1  0.33524367  0.04205454  0.54466307  1
