# generated using pymatgen
data_Pr2Mn3(SbS3)4
_symmetry_space_group_name_H-M   'P 1'
_cell_length_a   20.02960800
_cell_length_b   3.90410600
_cell_length_c   14.95364829
_cell_angle_alpha   90.00000000
_cell_angle_beta   126.33350609
_cell_angle_gamma   90.00000000
_symmetry_Int_Tables_number   1
_chemical_formula_structural   Pr2Mn3(SbS3)4
_chemical_formula_sum   'Pr4 Mn6 Sb8 S24'
_cell_volume   942.00006694
_cell_formula_units_Z   2
loop_
 _symmetry_equiv_pos_site_id
 _symmetry_equiv_pos_as_xyz
  1  'x, y, z'
loop_
 _atom_site_type_symbol
 _atom_site_label
 _atom_site_symmetry_multiplicity
 _atom_site_fract_x
 _atom_site_fract_y
 _atom_site_fract_z
 _atom_site_occupancy
  Pr  Pr0  1  0.25626691  0.51350854  0.86108855  1
  Pr  Pr1  1  0.73518497  0.48659440  0.13825298  1
  Pr  Pr2  1  0.76608703  0.98903845  0.87294941  1
  Pr  Pr3  1  0.24537324  0.99231641  0.14952149  1
  Mn  Mn4  1  0.28803499  0.50787837  0.59971399  1
  Mn  Mn5  1  0.69113253  0.47260290  0.37179215  1
  Mn  Mn6  1  0.00053098  0.98356363  0.99916570  1
  Mn  Mn7  1  0.80806310  0.97570883  0.60060400  1
  Mn  Mn8  1  0.19237759  0.94233111  0.39801833  1
  Mn  Mn9  1  0.49941506  0.52224306  0.00296776  1
  Sb  Sb10  1  0.90199393  0.98335929  0.45083906  1
  Sb  Sb11  1  0.10808287  0.02572243  0.55119964  1
  Sb  Sb12  1  0.03500884  0.49529002  0.81399921  1
  Sb  Sb13  1  0.96351234  0.51533126  0.18467446  1
  Sb  Sb14  1  0.38840787  0.50121346  0.45147223  1
  Sb  Sb15  1  0.61474733  0.48494168  0.56560160  1
  Sb  Sb16  1  0.53604505  0.03353515  0.81762809  1
  Sb  Sb17  1  0.45868419  0.00558338  0.19022822  1
  S  S18  1  0.94289272  0.97413584  0.80332850  1
  S  S19  1  0.06397638  0.05309343  0.21472985  1
  S  S20  1  0.41331520  0.98020546  0.99429583  1
  S  S21  1  0.58561974  0.00685507  0.02265261  1
  S  S22  1  0.17494648  0.00028276  0.90156739  1
  S  S23  1  0.82495584  0.99989199  0.10462338  1
  S  S24  1  0.08870004  0.52306017  0.66077318  1
  S  S25  1  0.90668015  0.50492888  0.34728243  1
  S  S26  1  0.73364198  0.01811472  0.30133478  1
  S  S27  1  0.26220467  0.98081969  0.69045317  1
  S  S28  1  0.16279736  0.47046543  0.45112439  1
  S  S29  1  0.81931038  0.49312108  0.53428999  1
  S  S30  1  0.43843506  0.57332112  0.79916194  1
  S  S31  1  0.55719201  0.46509682  0.18530770  1
  S  S32  1  0.91598721  0.51512566  0.98984246  1
  S  S33  1  0.07972734  0.49038446  0.01242030  1
  S  S34  1  0.66687595  0.51236171  0.89860710  1
  S  S35  1  0.33277166  0.51073834  0.09820584  1
  S  S36  1  0.59853201  0.93371458  0.67066525  1
  S  S37  1  0.41088202  0.00613498  0.36167830  1
  S  S38  1  0.23711970  0.53847526  0.28448514  1
  S  S39  1  0.76184858  0.47274050  0.71107924  1
  S  S40  1  0.66765906  0.02854830  0.43753996  1
  S  S41  1  0.33549388  0.04220124  0.54461795  1
