# generated using pymatgen
data_Pr2Mn3(SbS3)4
_symmetry_space_group_name_H-M   'P 1'
_cell_length_a   20.02960800
_cell_length_b   3.90410600
_cell_length_c   14.95364829
_cell_angle_alpha   90.00000000
_cell_angle_beta   126.33350609
_cell_angle_gamma   90.00000000
_symmetry_Int_Tables_number   1
_chemical_formula_structural   Pr2Mn3(SbS3)4
_chemical_formula_sum   'Pr4 Mn6 Sb8 S24'
_cell_volume   942.00006694
_cell_formula_units_Z   2
loop_
 _symmetry_equiv_pos_site_id
 _symmetry_equiv_pos_as_xyz
  1  'x, y, z'
loop_
 _atom_site_type_symbol
 _atom_site_label
 _atom_site_symmetry_multiplicity
 _atom_site_fract_x
 _atom_site_fract_y
 _atom_site_fract_z
 _atom_site_occupancy
  Pr  Pr0  1  0.25610045  0.51342909  0.86093684  1
  Pr  Pr1  1  0.73531942  0.48674607  0.13822235  1
  Pr  Pr2  1  0.76606438  0.98907447  0.87295566  1
  Pr  Pr3  1  0.24530147  0.99213015  0.14956371  1
  Mn  Mn4  1  0.28795349  0.50849196  0.59943032  1
  Mn  Mn5  1  0.69143039  0.47208414  0.37180696  1
  Mn  Mn6  1  0.00028789  0.98443320  0.99869376  1
  Mn  Mn7  1  0.80810248  0.97528743  0.60062166  1
  Mn  Mn8  1  0.19234609  0.94258787  0.39830357  1
  Mn  Mn9  1  0.49947706  0.52414771  0.00305708  1
  Sb  Sb10  1  0.90204979  0.98358606  0.45102160  1
  Sb  Sb11  1  0.10801825  0.02543184  0.55115972  1
  Sb  Sb12  1  0.03500516  0.49618294  0.81372496  1
  Sb  Sb13  1  0.96352960  0.51594096  0.18476168  1
  Sb  Sb14  1  0.38843495  0.50129669  0.45137296  1
  Sb  Sb15  1  0.61488209  0.48429469  0.56572104  1
  Sb  Sb16  1  0.53607367  0.03363157  0.81774208  1
  Sb  Sb17  1  0.45849361  0.00546349  0.19001020  1
  S  S18  1  0.94303397  0.97459991  0.80355127  1
  S  S19  1  0.06416752  0.05154374  0.21522799  1
  S  S20  1  0.41320017  0.97854355  0.99420023  1
  S  S21  1  0.58566726  0.00632835  0.02244144  1
  S  S22  1  0.17519051  0.00082842  0.90144632  1
  S  S23  1  0.82493271  0.99995026  0.10412879  1
  S  S24  1  0.08868304  0.52210774  0.66061558  1
  S  S25  1  0.90685550  0.50519948  0.34707490  1
  S  S26  1  0.73356363  0.01805453  0.30148290  1
  S  S27  1  0.26209252  0.98089615  0.69058359  1
  S  S28  1  0.16254685  0.46993525  0.45075365  1
  S  S29  1  0.81930888  0.49434188  0.53445195  1
  S  S30  1  0.43872621  0.57285936  0.79907669  1
  S  S31  1  0.55706211  0.46276476  0.18561672  1
  S  S32  1  0.91663902  0.51596510  0.99042222  1
  S  S33  1  0.07999917  0.48902153  0.01324737  1
  S  S34  1  0.66721535  0.51198874  0.89925922  1
  S  S35  1  0.33280840  0.51231534  0.09791651  1
  S  S36  1  0.59871141  0.93425052  0.67105071  1
  S  S37  1  0.41121572  0.00411869  0.36220095  1
  S  S38  1  0.23732973  0.54032809  0.28503498  1
  S  S39  1  0.76209646  0.47237928  0.71154132  1
  S  S40  1  0.66749433  0.02860796  0.43732349  1
  S  S41  1  0.33571882  0.04225375  0.54464869  1
