# generated using pymatgen
data_Pr2Mn3(SbS3)4
_symmetry_space_group_name_H-M   'P 1'
_cell_length_a   20.02960800
_cell_length_b   3.90410600
_cell_length_c   14.95364829
_cell_angle_alpha   90.00000000
_cell_angle_beta   126.33350609
_cell_angle_gamma   90.00000000
_symmetry_Int_Tables_number   1
_chemical_formula_structural   Pr2Mn3(SbS3)4
_chemical_formula_sum   'Pr4 Mn6 Sb8 S24'
_cell_volume   942.00006694
_cell_formula_units_Z   2
loop_
 _symmetry_equiv_pos_site_id
 _symmetry_equiv_pos_as_xyz
  1  'x, y, z'
loop_
 _atom_site_type_symbol
 _atom_site_label
 _atom_site_symmetry_multiplicity
 _atom_site_fract_x
 _atom_site_fract_y
 _atom_site_fract_z
 _atom_site_occupancy
  Pr  Pr0  1  0.25594474  0.51333563  0.86075824  1
  Pr  Pr1  1  0.73549434  0.48714934  0.13819514  1
  Pr  Pr2  1  0.76604796  0.98910051  0.87291104  1
  Pr  Pr3  1  0.24525197  0.99217002  0.14963040  1
  Mn  Mn4  1  0.28797133  0.50890175  0.59932217  1
  Mn  Mn5  1  0.69164628  0.47060436  0.37176652  1
  Mn  Mn6  1  0.00001603  0.98517856  0.99819218  1
  Mn  Mn7  1  0.80814753  0.97517395  0.60081336  1
  Mn  Mn8  1  0.19227871  0.94319296  0.39849532  1
  Mn  Mn9  1  0.49945757  0.52588611  0.00295644  1
  Sb  Sb10  1  0.90212927  0.98342059  0.45126672  1
  Sb  Sb11  1  0.10797709  0.02552414  0.55111705  1
  Sb  Sb12  1  0.03497032  0.49732306  0.81345614  1
  Sb  Sb13  1  0.96347019  0.51646723  0.18495057  1
  Sb  Sb14  1  0.38851101  0.50156283  0.45127204  1
  Sb  Sb15  1  0.61503304  0.48394603  0.56578744  1
  Sb  Sb16  1  0.53612720  0.03411623  0.81792145  1
  Sb  Sb17  1  0.45839771  0.00547271  0.18995421  1
  S  S18  1  0.94304037  0.97550944  0.80376253  1
  S  S19  1  0.06431147  0.04940067  0.21565183  1
  S  S20  1  0.41315272  0.97685686  0.99401047  1
  S  S21  1  0.58576702  0.00562295  0.02218933  1
  S  S22  1  0.17551401  0.00054602  0.90135284  1
  S  S23  1  0.82492282  0.00052346  0.10379188  1
  S  S24  1  0.08888289  0.52157934  0.66049873  1
  S  S25  1  0.90689259  0.50540700  0.34679597  1
  S  S26  1  0.73335343  0.01858513  0.30143621  1
  S  S27  1  0.26195084  0.98154820  0.69067722  1
  S  S28  1  0.16226279  0.46811534  0.45031481  1
  S  S29  1  0.81926250  0.49475419  0.53457973  1
  S  S30  1  0.43894295  0.57216492  0.79894115  1
  S  S31  1  0.55680856  0.46087047  0.18577229  1
  S  S32  1  0.91708708  0.51714662  0.99083617  1
  S  S33  1  0.08015787  0.48808046  0.01401727  1
  S  S34  1  0.66754262  0.51155392  0.89972607  1
  S  S35  1  0.33285455  0.51303666  0.09754596  1
  S  S36  1  0.59896028  0.93482104  0.67154020  1
  S  S37  1  0.41154751  0.00271973  0.36277934  1
  S  S38  1  0.23768164  0.54156907  0.28574844  1
  S  S39  1  0.76233107  0.47213481  0.71196540  1
  S  S40  1  0.66737598  0.02853630  0.43721616  1
  S  S41  1  0.33579835  0.04200169  0.54468592  1
