# generated using pymatgen
data_Pr2Mn3(SbS3)4
_symmetry_space_group_name_H-M   'P 1'
_cell_length_a   20.02960800
_cell_length_b   3.90410600
_cell_length_c   14.95364829
_cell_angle_alpha   90.00000000
_cell_angle_beta   126.33350609
_cell_angle_gamma   90.00000000
_symmetry_Int_Tables_number   1
_chemical_formula_structural   Pr2Mn3(SbS3)4
_chemical_formula_sum   'Pr4 Mn6 Sb8 S24'
_cell_volume   942.00006694
_cell_formula_units_Z   2
loop_
 _symmetry_equiv_pos_site_id
 _symmetry_equiv_pos_as_xyz
  1  'x, y, z'
loop_
 _atom_site_type_symbol
 _atom_site_label
 _atom_site_symmetry_multiplicity
 _atom_site_fract_x
 _atom_site_fract_y
 _atom_site_fract_z
 _atom_site_occupancy
  Pr  Pr0  1  0.25586173  0.51327869  0.86058657  1
  Pr  Pr1  1  0.73563826  0.48757687  0.13813379  1
  Pr  Pr2  1  0.76603394  0.98948154  0.87293465  1
  Pr  Pr3  1  0.24511816  0.99217514  0.14967043  1
  Mn  Mn4  1  0.28802952  0.50921766  0.59916830  1
  Mn  Mn5  1  0.69175666  0.46930183  0.37154876  1
  Mn  Mn6  1  0.99970698  0.98606539  0.99768369  1
  Mn  Mn7  1  0.80819041  0.97483281  0.60107378  1
  Mn  Mn8  1  0.19230279  0.94332396  0.39867990  1
  Mn  Mn9  1  0.49951021  0.52753301  0.00289026  1
  Sb  Sb10  1  0.90224121  0.98323026  0.45163138  1
  Sb  Sb11  1  0.10792684  0.02577565  0.55111395  1
  Sb  Sb12  1  0.03488726  0.49894723  0.81322872  1
  Sb  Sb13  1  0.96338897  0.51688652  0.18502083  1
  Sb  Sb14  1  0.38846144  0.50179207  0.45096474  1
  Sb  Sb15  1  0.61517172  0.48350926  0.56591595  1
  Sb  Sb16  1  0.53624257  0.03454324  0.81823333  1
  Sb  Sb17  1  0.45833808  0.00547948  0.18994709  1
  S  S18  1  0.94295731  0.97578673  0.80398822  1
  S  S19  1  0.06447675  0.04741982  0.21598046  1
  S  S20  1  0.41303054  0.97540447  0.99378007  1
  S  S21  1  0.58584409  0.00473452  0.02192894  1
  S  S22  1  0.17592458  0.00072985  0.90132778  1
  S  S23  1  0.82489141  0.00146480  0.10332861  1
  S  S24  1  0.08913555  0.52189463  0.66034917  1
  S  S25  1  0.90691399  0.50623634  0.34656677  1
  S  S26  1  0.73308897  0.01886464  0.30125241  1
  S  S27  1  0.26177632  0.98252511  0.69066780  1
  S  S28  1  0.16201053  0.46667397  0.44986359  1
  S  S29  1  0.81937704  0.49535589  0.53463707  1
  S  S30  1  0.43927371  0.57186366  0.79898306  1
  S  S31  1  0.55665307  0.45964560  0.18595870  1
  S  S32  1  0.91742340  0.51781950  0.99113982  1
  S  S33  1  0.08029787  0.48788332  0.01487465  1
  S  S34  1  0.66773317  0.51029304  0.90015270  1
  S  S35  1  0.33290774  0.51442351  0.09720426  1
  S  S36  1  0.59910593  0.93524568  0.67197454  1
  S  S37  1  0.41174645  0.00154526  0.36340789  1
  S  S38  1  0.23802209  0.54261850  0.28624543  1
  S  S39  1  0.76262051  0.47188594  0.71234556  1
  S  S40  1  0.66713003  0.02839684  0.43700283  1
  S  S41  1  0.33590167  0.04214926  0.54470566  1
