# generated using pymatgen
data_Pr2Mn3(SbS3)4
_symmetry_space_group_name_H-M   'P 1'
_cell_length_a   20.02960800
_cell_length_b   3.90410600
_cell_length_c   14.95364829
_cell_angle_alpha   90.00000000
_cell_angle_beta   126.33350609
_cell_angle_gamma   90.00000000
_symmetry_Int_Tables_number   1
_chemical_formula_structural   Pr2Mn3(SbS3)4
_chemical_formula_sum   'Pr4 Mn6 Sb8 S24'
_cell_volume   942.00006694
_cell_formula_units_Z   2
loop_
 _symmetry_equiv_pos_site_id
 _symmetry_equiv_pos_as_xyz
  1  'x, y, z'
loop_
 _atom_site_type_symbol
 _atom_site_label
 _atom_site_symmetry_multiplicity
 _atom_site_fract_x
 _atom_site_fract_y
 _atom_site_fract_z
 _atom_site_occupancy
  Pr  Pr0  1  0.25588279  0.51298621  0.86038574  1
  Pr  Pr1  1  0.73578115  0.48805793  0.13813430  1
  Pr  Pr2  1  0.76601305  0.99009835  0.87286177  1
  Pr  Pr3  1  0.24494432  0.99194915  0.14962114  1
  Mn  Mn4  1  0.28808397  0.50914893  0.59908866  1
  Mn  Mn5  1  0.69188565  0.46767385  0.37139327  1
  Mn  Mn6  1  0.99933652  0.98719799  0.99713500  1
  Mn  Mn7  1  0.80821585  0.97442618  0.60142280  1
  Mn  Mn8  1  0.19243198  0.94406403  0.39895625  1
  Mn  Mn9  1  0.49956114  0.52959972  0.00286376  1
  Sb  Sb10  1  0.90236255  0.98329699  0.45206716  1
  Sb  Sb11  1  0.10798476  0.02594221  0.55114423  1
  Sb  Sb12  1  0.03476693  0.50039422  0.81299567  1
  Sb  Sb13  1  0.96315618  0.51720622  0.18499109  1
  Sb  Sb14  1  0.38850700  0.50157810  0.45071478  1
  Sb  Sb15  1  0.61539039  0.48349372  0.56615505  1
  Sb  Sb16  1  0.53634847  0.03525284  0.81846590  1
  Sb  Sb17  1  0.45826866  0.00541230  0.18996526  1
  S  S18  1  0.94299642  0.97604863  0.80447776  1
  S  S19  1  0.06465554  0.04578350  0.21621163  1
  S  S20  1  0.41301926  0.97431139  0.99348331  1
  S  S21  1  0.58567835  0.00401101  0.02149828  1
  S  S22  1  0.17612075  0.00005203  0.90103447  1
  S  S23  1  0.82476560  0.00225847  0.10293079  1
  S  S24  1  0.08930698  0.52248519  0.66005441  1
  S  S25  1  0.90698653  0.50631352  0.34644417  1
  S  S26  1  0.73279162  0.01909932  0.30099315  1
  S  S27  1  0.26154341  0.98359480  0.69051727  1
  S  S28  1  0.16173125  0.46537311  0.44957554  1
  S  S29  1  0.81939215  0.49592328  0.53471750  1
  S  S30  1  0.43947231  0.57118935  0.79892176  1
  S  S31  1  0.55659350  0.45858018  0.18631398  1
  S  S32  1  0.91784012  0.51763023  0.99158480  1
  S  S33  1  0.08037442  0.48721783  0.01566177  1
  S  S34  1  0.66792888  0.50806282  0.90069690  1
  S  S35  1  0.33296677  0.51560476  0.09679946  1
  S  S36  1  0.59911080  0.93596400  0.67223038  1
  S  S37  1  0.41196674  0.00007102  0.36394216  1
  S  S38  1  0.23837618  0.54323336  0.28676215  1
  S  S39  1  0.76293864  0.47175393  0.71270681  1
  S  S40  1  0.66697717  0.02776901  0.43686471  1
  S  S41  1  0.33599604  0.04287945  0.54467482  1
