# generated using pymatgen
data_Pr2Mn3(SbS3)4
_symmetry_space_group_name_H-M   'P 1'
_cell_length_a   20.02960800
_cell_length_b   3.90410600
_cell_length_c   14.95364829
_cell_angle_alpha   90.00000000
_cell_angle_beta   126.33350609
_cell_angle_gamma   90.00000000
_symmetry_Int_Tables_number   1
_chemical_formula_structural   Pr2Mn3(SbS3)4
_chemical_formula_sum   'Pr4 Mn6 Sb8 S24'
_cell_volume   942.00006694
_cell_formula_units_Z   2
loop_
 _symmetry_equiv_pos_site_id
 _symmetry_equiv_pos_as_xyz
  1  'x, y, z'
loop_
 _atom_site_type_symbol
 _atom_site_label
 _atom_site_symmetry_multiplicity
 _atom_site_fract_x
 _atom_site_fract_y
 _atom_site_fract_z
 _atom_site_occupancy
  Pr  Pr0  1  0.25590366  0.51296340  0.86018921  1
  Pr  Pr1  1  0.73588067  0.48860336  0.13803194  1
  Pr  Pr2  1  0.76601830  0.99047813  0.87279491  1
  Pr  Pr3  1  0.24476360  0.99186245  0.14950879  1
  Mn  Mn4  1  0.28803785  0.50927619  0.59878720  1
  Mn  Mn5  1  0.69192694  0.46627579  0.37119084  1
  Mn  Mn6  1  0.99904305  0.98815545  0.99674807  1
  Mn  Mn7  1  0.80830995  0.97418234  0.60193792  1
  Mn  Mn8  1  0.19268179  0.94502716  0.39944354  1
  Mn  Mn9  1  0.49966948  0.53138159  0.00288306  1
  Sb  Sb10  1  0.90246941  0.98336534  0.45246371  1
  Sb  Sb11  1  0.10806360  0.02579389  0.55125306  1
  Sb  Sb12  1  0.03460106  0.50194216  0.81268904  1
  Sb  Sb13  1  0.96287268  0.51752644  0.18497821  1
  Sb  Sb14  1  0.38858990  0.50133986  0.45050602  1
  Sb  Sb15  1  0.61557305  0.48366801  0.56634380  1
  Sb  Sb16  1  0.53649999  0.03554776  0.81872085  1
  Sb  Sb17  1  0.45824834  0.00560369  0.19000469  1
  S  S18  1  0.94302555  0.97597433  0.80513168  1
  S  S19  1  0.06477612  0.04528139  0.21637050  1
  S  S20  1  0.41304365  0.97346881  0.99328642  1
  S  S21  1  0.58549013  0.00259094  0.02122280  1
  S  S22  1  0.17624173  0.99919468  0.90066894  1
  S  S23  1  0.82453193  0.00346096  0.10273923  1
  S  S24  1  0.08957920  0.52298115  0.66000487  1
  S  S25  1  0.90713592  0.50606049  0.34646199  1
  S  S26  1  0.73245794  0.01844595  0.30067243  1
  S  S27  1  0.26128363  0.98475872  0.69052855  1
  S  S28  1  0.16134975  0.46450641  0.44915292  1
  S  S29  1  0.81950279  0.49643131  0.53489632  1
  S  S30  1  0.43968509  0.57092779  0.79895115  1
  S  S31  1  0.55641891  0.45781322  0.18680129  1
  S  S32  1  0.91813756  0.51698845  0.99201614  1
  S  S33  1  0.08040667  0.48719982  0.01629875  1
  S  S34  1  0.66805634  0.50624201  0.90108235  1
  S  S35  1  0.33299035  0.51641148  0.09629763  1
  S  S36  1  0.59911248  0.93663782  0.67250881  1
  S  S37  1  0.41212135  0.99905634  0.36430375  1
  S  S38  1  0.23868651  0.54385514  0.28720684  1
  S  S39  1  0.76318441  0.47162613  0.71309994  1
  S  S40  1  0.66706249  0.02723174  0.43696396  1
  S  S41  1  0.33604456  0.04311191  0.54471948  1
