# generated using pymatgen
data_Pr2Mn3(SbS3)4
_symmetry_space_group_name_H-M   'P 1'
_cell_length_a   20.02960800
_cell_length_b   3.90410600
_cell_length_c   14.95364829
_cell_angle_alpha   90.00000000
_cell_angle_beta   126.33350609
_cell_angle_gamma   90.00000000
_symmetry_Int_Tables_number   1
_chemical_formula_structural   Pr2Mn3(SbS3)4
_chemical_formula_sum   'Pr4 Mn6 Sb8 S24'
_cell_volume   942.00006694
_cell_formula_units_Z   2
loop_
 _symmetry_equiv_pos_site_id
 _symmetry_equiv_pos_as_xyz
  1  'x, y, z'
loop_
 _atom_site_type_symbol
 _atom_site_label
 _atom_site_symmetry_multiplicity
 _atom_site_fract_x
 _atom_site_fract_y
 _atom_site_fract_z
 _atom_site_occupancy
  Pr  Pr0  1  0.26693039  0.49727227  0.86438361  1
  Pr  Pr1  1  0.73593592  0.51167318  0.13645253  1
  Pr  Pr2  1  0.76322842  0.01192312  0.86092671  1
  Pr  Pr3  1  0.23504538  0.99797541  0.13496874  1
  Mn  Mn4  1  0.28810844  0.48200699  0.58951830  1
  Mn  Mn5  1  0.68571375  0.47247989  0.36718746  1
  Mn  Mn6  1  0.00868302  0.98861405  0.02019916  1
  Mn  Mn7  1  0.80475096  0.01153052  0.61897311  1
  Mn  Mn8  1  0.19796083  0.97813313  0.37301699  1
  Mn  Mn9  1  0.49146397  0.47995157  0.99018273  1
  Sb  Sb10  1  0.88980734  0.98713784  0.45116966  1
  Sb  Sb11  1  0.11185395  0.98128636  0.54540896  1
  Sb  Sb12  1  0.03849312  0.52022534  0.82108867  1
  Sb  Sb13  1  0.96213501  0.50078408  0.18354187  1
  Sb  Sb14  1  0.39484762  0.50490377  0.45066796  1
  Sb  Sb15  1  0.60679557  0.46912234  0.54994384  1
  Sb  Sb16  1  0.53384967  0.99508409  0.80842452  1
  Sb  Sb17  1  0.46537820  0.01857051  0.19047321  1
  S  S18  1  0.93794963  0.00637156  0.80661469  1
  S  S19  1  0.06457130  0.97430405  0.20083693  1
  S  S20  1  0.41646311  0.95927655  0.98135742  1
  S  S21  1  0.57887772  0.03340551  0.01092700  1
  S  S22  1  0.17156163  0.04952158  0.90297675  1
  S  S23  1  0.82755650  0.04897120  0.09763931  1
  S  S24  1  0.09423722  0.48223629  0.64673416  1
  S  S25  1  0.91384416  0.48936308  0.35642621  1
  S  S26  1  0.73697879  0.95273136  0.30087648  1
  S  S27  1  0.26205599  0.00828301  0.70720551  1
  S  S28  1  0.16045949  0.50509312  0.42201087  1
  S  S29  1  0.82345624  0.48911624  0.55063391  1
  S  S30  1  0.43017187  0.49597375  0.79828068  1
  S  S31  1  0.55416278  0.52784195  0.18206116  1
  S  S32  1  0.91145308  0.48841728  0.98735129  1
  S  S33  1  0.09300301  0.49008858  0.03323046  1
  S  S34  1  0.66208589  0.51497419  0.88532282  1
  S  S35  1  0.33170255  0.50348101  0.10159423  1
  S  S36  1  0.59905049  0.99440008  0.65805814  1
  S  S37  1  0.40093710  0.99063884  0.34215989  1
  S  S38  1  0.23869628  0.46486235  0.31030922  1
  S  S39  1  0.76060282  0.50712022  0.69306338  1
  S  S40  1  0.66785320  0.03587828  0.44961877  1
  S  S41  1  0.32939512  0.98330389  0.55580418  1
