# generated using pymatgen
data_Pr2Mn3(SbS3)4
_symmetry_space_group_name_H-M   'P 1'
_cell_length_a   20.02960800
_cell_length_b   3.90410600
_cell_length_c   14.95364829
_cell_angle_alpha   90.00000000
_cell_angle_beta   126.33350609
_cell_angle_gamma   90.00000000
_symmetry_Int_Tables_number   1
_chemical_formula_structural   Pr2Mn3(SbS3)4
_chemical_formula_sum   'Pr4 Mn6 Sb8 S24'
_cell_volume   942.00006694
_cell_formula_units_Z   2
loop_
 _symmetry_equiv_pos_site_id
 _symmetry_equiv_pos_as_xyz
  1  'x, y, z'
loop_
 _atom_site_type_symbol
 _atom_site_label
 _atom_site_symmetry_multiplicity
 _atom_site_fract_x
 _atom_site_fract_y
 _atom_site_fract_z
 _atom_site_occupancy
  Pr  Pr0  1  0.25588844  0.51283912  0.85993979  1
  Pr  Pr1  1  0.73594308  0.48957751  0.13786961  1
  Pr  Pr2  1  0.76604912  0.99089745  0.87269686  1
  Pr  Pr3  1  0.24460669  0.99208962  0.14948940  1
  Mn  Mn4  1  0.28807764  0.50922780  0.59869060  1
  Mn  Mn5  1  0.69194733  0.46511397  0.37091321  1
  Mn  Mn6  1  0.99870892  0.98909753  0.99641580  1
  Mn  Mn7  1  0.80839195  0.97366216  0.60249033  1
  Mn  Mn8  1  0.19290736  0.94610434  0.39985037  1
  Mn  Mn9  1  0.49976437  0.53292977  0.00295830  1
  Sb  Sb10  1  0.90267809  0.98353762  0.45292499  1
  Sb  Sb11  1  0.10803662  0.02574150  0.55137213  1
  Sb  Sb12  1  0.03456863  0.50340037  0.81251877  1
  Sb  Sb13  1  0.96266613  0.51792144  0.18497609  1
  Sb  Sb14  1  0.38868223  0.50111798  0.45035262  1
  Sb  Sb15  1  0.61567607  0.48366028  0.56656312  1
  Sb  Sb16  1  0.53667321  0.03591011  0.81899726  1
  Sb  Sb17  1  0.45812516  0.00587762  0.19003401  1
  S  S18  1  0.94303365  0.97616144  0.80577532  1
  S  S19  1  0.06493158  0.04510134  0.21670060  1
  S  S20  1  0.41313761  0.97211402  0.99331279  1
  S  S21  1  0.58518092  0.00098694  0.02081926  1
  S  S22  1  0.17640309  0.99863016  0.90023394  1
  S  S23  1  0.82426537  0.00472531  0.10271738  1
  S  S24  1  0.08991687  0.52352044  0.65979279  1
  S  S25  1  0.90728088  0.50600273  0.34641325  1
  S  S26  1  0.73230026  0.01800084  0.30049155  1
  S  S27  1  0.26104205  0.98588679  0.69043690  1
  S  S28  1  0.16099996  0.46340530  0.44877573  1
  S  S29  1  0.81961383  0.49652092  0.53505609  1
  S  S30  1  0.43986300  0.57031754  0.79899486  1
  S  S31  1  0.55635672  0.45804379  0.18727799  1
  S  S32  1  0.91829609  0.51615913  0.99231225  1
  S  S33  1  0.08032644  0.48726240  0.01660156  1
  S  S34  1  0.66806019  0.50491644  0.90140224  1
  S  S35  1  0.33306965  0.51658762  0.09586408  1
  S  S36  1  0.59914327  0.93715038  0.67268598  1
  S  S37  1  0.41222809  0.99919073  0.36439552  1
  S  S38  1  0.23894391  0.54458226  0.28781632  1
  S  S39  1  0.76333303  0.47080999  0.71344467  1
  S  S40  1  0.66720653  0.02624464  0.43700316  1
  S  S41  1  0.33616077  0.04359629  0.54466821  1
