# generated using pymatgen
data_Pr2Mn3(SbS3)4
_symmetry_space_group_name_H-M   'P 1'
_cell_length_a   20.02960800
_cell_length_b   3.90410600
_cell_length_c   14.95364829
_cell_angle_alpha   90.00000000
_cell_angle_beta   126.33350609
_cell_angle_gamma   90.00000000
_symmetry_Int_Tables_number   1
_chemical_formula_structural   Pr2Mn3(SbS3)4
_chemical_formula_sum   'Pr4 Mn6 Sb8 S24'
_cell_volume   942.00006694
_cell_formula_units_Z   2
loop_
 _symmetry_equiv_pos_site_id
 _symmetry_equiv_pos_as_xyz
  1  'x, y, z'
loop_
 _atom_site_type_symbol
 _atom_site_label
 _atom_site_symmetry_multiplicity
 _atom_site_fract_x
 _atom_site_fract_y
 _atom_site_fract_z
 _atom_site_occupancy
  Pr  Pr0  1  0.25593463  0.51294785  0.85970658  1
  Pr  Pr1  1  0.73602901  0.49020641  0.13777441  1
  Pr  Pr2  1  0.76598610  0.99137864  0.87253076  1
  Pr  Pr3  1  0.24449246  0.99224985  0.14944978  1
  Mn  Mn4  1  0.28813019  0.50900932  0.59859155  1
  Mn  Mn5  1  0.69203198  0.46328804  0.37079770  1
  Mn  Mn6  1  0.99848082  0.99025347  0.99615032  1
  Mn  Mn7  1  0.80839210  0.97271577  0.60287266  1
  Mn  Mn8  1  0.19296885  0.94742870  0.40010552  1
  Mn  Mn9  1  0.49978247  0.53450271  0.00296322  1
  Sb  Sb10  1  0.90291665  0.98354876  0.45331679  1
  Sb  Sb11  1  0.10799799  0.02568508  0.55147119  1
  Sb  Sb12  1  0.03452754  0.50458544  0.81237395  1
  Sb  Sb13  1  0.96246381  0.51839246  0.18496475  1
  Sb  Sb14  1  0.38873285  0.50121974  0.45014640  1
  Sb  Sb15  1  0.61575565  0.48372999  0.56676477  1
  Sb  Sb16  1  0.53675400  0.03646877  0.81915145  1
  Sb  Sb17  1  0.45804553  0.00623791  0.19007481  1
  S  S18  1  0.94291891  0.97623696  0.80613170  1
  S  S19  1  0.06503843  0.04425923  0.21700216  1
  S  S20  1  0.41318182  0.97075937  0.99329728  1
  S  S21  1  0.58503459  0.99931575  0.02040901  1
  S  S22  1  0.17647244  0.99827292  0.89983555  1
  S  S23  1  0.82390458  0.00533661  0.10277549  1
  S  S24  1  0.09035573  0.52447625  0.65965914  1
  S  S25  1  0.90727023  0.50542754  0.34622350  1
  S  S26  1  0.73208426  0.01787986  0.30023766  1
  S  S27  1  0.26091967  0.98611767  0.69024297  1
  S  S28  1  0.16065777  0.46198873  0.44863373  1
  S  S29  1  0.81983199  0.49641280  0.53529465  1
  S  S30  1  0.43993119  0.56907869  0.79907861  1
  S  S31  1  0.55636686  0.45884506  0.18771334  1
  S  S32  1  0.91837280  0.51536754  0.99246415  1
  S  S33  1  0.08018802  0.48707555  0.01685461  1
  S  S34  1  0.66804326  0.50358702  0.90179442  1
  S  S35  1  0.33307383  0.51672469  0.09541443  1
  S  S36  1  0.59903744  0.93790416  0.67276124  1
  S  S37  1  0.41223259  0.99924573  0.36441619  1
  S  S38  1  0.23928870  0.54553518  0.28844738  1
  S  S39  1  0.76337661  0.46984540  0.71344763  1
  S  S40  1  0.66733200  0.02548942  0.43707202  1
  S  S41  1  0.33628008  0.04410836  0.54464183  1
