# generated using pymatgen
data_Pr2Mn3(SbS3)4
_symmetry_space_group_name_H-M   'P 1'
_cell_length_a   20.02960800
_cell_length_b   3.90410600
_cell_length_c   14.95364829
_cell_angle_alpha   90.00000000
_cell_angle_beta   126.33350609
_cell_angle_gamma   90.00000000
_symmetry_Int_Tables_number   1
_chemical_formula_structural   Pr2Mn3(SbS3)4
_chemical_formula_sum   'Pr4 Mn6 Sb8 S24'
_cell_volume   942.00006694
_cell_formula_units_Z   2
loop_
 _symmetry_equiv_pos_site_id
 _symmetry_equiv_pos_as_xyz
  1  'x, y, z'
loop_
 _atom_site_type_symbol
 _atom_site_label
 _atom_site_symmetry_multiplicity
 _atom_site_fract_x
 _atom_site_fract_y
 _atom_site_fract_z
 _atom_site_occupancy
  Pr  Pr0  1  0.25603728  0.51315777  0.85961209  1
  Pr  Pr1  1  0.73617251  0.49094270  0.13773370  1
  Pr  Pr2  1  0.76597536  0.99186179  0.87245581  1
  Pr  Pr3  1  0.24434335  0.99223563  0.14938547  1
  Mn  Mn4  1  0.28821905  0.50904885  0.59845346  1
  Mn  Mn5  1  0.69207900  0.46159741  0.37062585  1
  Mn  Mn6  1  0.99829769  0.99145489  0.99596342  1
  Mn  Mn7  1  0.80842177  0.97167135  0.60329554  1
  Mn  Mn8  1  0.19304629  0.94886200  0.40028308  1
  Mn  Mn9  1  0.49988531  0.53580383  0.00303990  1
  Sb  Sb10  1  0.90313833  0.98364882  0.45370765  1
  Sb  Sb11  1  0.10799564  0.02545227  0.55162012  1
  Sb  Sb12  1  0.03448264  0.50575408  0.81224805  1
  Sb  Sb13  1  0.96229876  0.51864657  0.18500321  1
  Sb  Sb14  1  0.38884297  0.50140846  0.45012495  1
  Sb  Sb15  1  0.61573191  0.48348444  0.56686511  1
  Sb  Sb16  1  0.53686112  0.03683018  0.81935268  1
  Sb  Sb17  1  0.45796189  0.00645033  0.19008099  1
  S  S18  1  0.94297389  0.97600497  0.80654701  1
  S  S19  1  0.06512495  0.04327468  0.21731295  1
  S  S20  1  0.41309298  0.96974789  0.99310081  1
  S  S21  1  0.58513217  0.99813884  0.02008991  1
  S  S22  1  0.17640824  0.99830909  0.89930412  1
  S  S23  1  0.82359032  0.00605941  0.10277780  1
  S  S24  1  0.09075895  0.52505530  0.65957966  1
  S  S25  1  0.90727727  0.50463891  0.34603733  1
  S  S26  1  0.73188594  0.01753327  0.30008546  1
  S  S27  1  0.26088768  0.98573145  0.69026216  1
  S  S28  1  0.16040985  0.46075062  0.44864163  1
  S  S29  1  0.82018243  0.49635078  0.53563451  1
  S  S30  1  0.43987832  0.56815725  0.79893359  1
  S  S31  1  0.55652334  0.46025430  0.18820437  1
  S  S32  1  0.91862207  0.51476672  0.99265030  1
  S  S33  1  0.08000962  0.48710649  0.01709857  1
  S  S34  1  0.66798274  0.50223895  0.90203906  1
  S  S35  1  0.33290666  0.51775069  0.09466863  1
  S  S36  1  0.59894333  0.93854038  0.67281533  1
  S  S37  1  0.41212182  0.99907552  0.36433546  1
  S  S38  1  0.23963890  0.54650809  0.28895046  1
  S  S39  1  0.76331934  0.46878695  0.71350680  1
  S  S40  1  0.66737312  0.02450858  0.43711282  1
  S  S41  1  0.33619611  0.04423559  0.54435313  1
