# generated using pymatgen
data_Pr2Mn3(SbS3)4
_symmetry_space_group_name_H-M   'P 1'
_cell_length_a   20.02960800
_cell_length_b   3.90410600
_cell_length_c   14.95364829
_cell_angle_alpha   90.00000000
_cell_angle_beta   126.33350609
_cell_angle_gamma   90.00000000
_symmetry_Int_Tables_number   1
_chemical_formula_structural   Pr2Mn3(SbS3)4
_chemical_formula_sum   'Pr4 Mn6 Sb8 S24'
_cell_volume   942.00006694
_cell_formula_units_Z   2
loop_
 _symmetry_equiv_pos_site_id
 _symmetry_equiv_pos_as_xyz
  1  'x, y, z'
loop_
 _atom_site_type_symbol
 _atom_site_label
 _atom_site_symmetry_multiplicity
 _atom_site_fract_x
 _atom_site_fract_y
 _atom_site_fract_z
 _atom_site_occupancy
  Pr  Pr0  1  0.25610667  0.51332717  0.85952128  1
  Pr  Pr1  1  0.73627396  0.49146045  0.13776161  1
  Pr  Pr2  1  0.76606148  0.99250688  0.87244053  1
  Pr  Pr3  1  0.24417840  0.99222147  0.14928022  1
  Mn  Mn4  1  0.28826708  0.50913143  0.59826085  1
  Mn  Mn5  1  0.69204562  0.46068512  0.37043223  1
  Mn  Mn6  1  0.99809938  0.99243960  0.99579835  1
  Mn  Mn7  1  0.80831485  0.97102194  0.60363995  1
  Mn  Mn8  1  0.19323086  0.95006934  0.40051809  1
  Mn  Mn9  1  0.50011007  0.53670608  0.00327181  1
  Sb  Sb10  1  0.90332786  0.98364509  0.45404346  1
  Sb  Sb11  1  0.10799050  0.02512390  0.55177544  1
  Sb  Sb12  1  0.03444729  0.50667228  0.81212362  1
  Sb  Sb13  1  0.96211785  0.51892947  0.18502682  1
  Sb  Sb14  1  0.38898505  0.50160696  0.45014455  1
  Sb  Sb15  1  0.61569421  0.48351093  0.56682943  1
  Sb  Sb16  1  0.53702595  0.03722365  0.81947607  1
  Sb  Sb17  1  0.45788080  0.00646775  0.19001875  1
  S  S18  1  0.94303847  0.97541821  0.80684790  1
  S  S19  1  0.06513959  0.04257495  0.21757314  1
  S  S20  1  0.41300699  0.96849710  0.99287523  1
  S  S21  1  0.58518365  0.99723941  0.01979614  1
  S  S22  1  0.17637242  0.99836637  0.89889188  1
  S  S23  1  0.82320016  0.00746708  0.10277325  1
  S  S24  1  0.09109671  0.52557863  0.65944573  1
  S  S25  1  0.90715510  0.50353629  0.34582977  1
  S  S26  1  0.73166399  0.01677477  0.29979442  1
  S  S27  1  0.26086213  0.98596551  0.69036593  1
  S  S28  1  0.16028245  0.45963544  0.44870712  1
  S  S29  1  0.82048625  0.49653985  0.53582842  1
  S  S30  1  0.43989338  0.56688524  0.79878642  1
  S  S31  1  0.55677491  0.46035820  0.18885640  1
  S  S32  1  0.91882305  0.51436717  0.99273071  1
  S  S33  1  0.07971977  0.48704473  0.01723309  1
  S  S34  1  0.66807651  0.50142708  0.90251460  1
  S  S35  1  0.33260432  0.51797068  0.09389851  1
  S  S36  1  0.59869796  0.93869355  0.67280349  1
  S  S37  1  0.41192721  0.99953419  0.36406220  1
  S  S38  1  0.24000612  0.54641043  0.28947847  1
  S  S39  1  0.76340121  0.46782489  0.71372507  1
  S  S40  1  0.66738940  0.02339801  0.43712061  1
  S  S41  1  0.33611404  0.04419696  0.54399970  1
