# generated using pymatgen
data_Pr2Mn3(SbS3)4
_symmetry_space_group_name_H-M   'P 1'
_cell_length_a   20.02960800
_cell_length_b   3.90410600
_cell_length_c   14.95364829
_cell_angle_alpha   90.00000000
_cell_angle_beta   126.33350609
_cell_angle_gamma   90.00000000
_symmetry_Int_Tables_number   1
_chemical_formula_structural   Pr2Mn3(SbS3)4
_chemical_formula_sum   'Pr4 Mn6 Sb8 S24'
_cell_volume   942.00006694
_cell_formula_units_Z   2
loop_
 _symmetry_equiv_pos_site_id
 _symmetry_equiv_pos_as_xyz
  1  'x, y, z'
loop_
 _atom_site_type_symbol
 _atom_site_label
 _atom_site_symmetry_multiplicity
 _atom_site_fract_x
 _atom_site_fract_y
 _atom_site_fract_z
 _atom_site_occupancy
  Pr  Pr0  1  0.25619309  0.51362314  0.85950100  1
  Pr  Pr1  1  0.73637190  0.49220781  0.13786058  1
  Pr  Pr2  1  0.76613765  0.99315644  0.87252516  1
  Pr  Pr3  1  0.24398077  0.99239066  0.14909547  1
  Mn  Mn4  1  0.28834466  0.50957851  0.59806831  1
  Mn  Mn5  1  0.69201858  0.45973473  0.37026774  1
  Mn  Mn6  1  0.99781980  0.99299114  0.99550761  1
  Mn  Mn7  1  0.80815046  0.97073664  0.60384859  1
  Mn  Mn8  1  0.19335698  0.95088558  0.40062967  1
  Mn  Mn9  1  0.50024545  0.53733500  0.00346902  1
  Sb  Sb10  1  0.90357750  0.98360095  0.45442281  1
  Sb  Sb11  1  0.10799263  0.02489616  0.55189077  1
  Sb  Sb12  1  0.03428852  0.50741741  0.81185229  1
  Sb  Sb13  1  0.96198544  0.51904079  0.18510761  1
  Sb  Sb14  1  0.38907881  0.50195853  0.45007699  1
  Sb  Sb15  1  0.61560389  0.48352419  0.56664699  1
  Sb  Sb16  1  0.53721489  0.03745287  0.81966193  1
  Sb  Sb17  1  0.45774909  0.00640638  0.18998592  1
  S  S18  1  0.94316323  0.97519301  0.80717891  1
  S  S19  1  0.06509782  0.04133216  0.21775491  1
  S  S20  1  0.41300378  0.96627822  0.99261804  1
  S  S21  1  0.58528642  0.99688322  0.01947270  1
  S  S22  1  0.17633196  0.99811990  0.89848974  1
  S  S23  1  0.82285846  0.00889555  0.10285237  1
  S  S24  1  0.09126671  0.52549114  0.65914632  1
  S  S25  1  0.90708477  0.50225359  0.34564391  1
  S  S26  1  0.73144384  0.01627013  0.29949713  1
  S  S27  1  0.26095648  0.98654442  0.69067591  1
  S  S28  1  0.16007230  0.45908898  0.44862488  1
  S  S29  1  0.82079719  0.49625807  0.53610531  1
  S  S30  1  0.43994322  0.56512361  0.79862313  1
  S  S31  1  0.55690304  0.46027289  0.18927665  1
  S  S32  1  0.91896265  0.51431026  0.99278682  1
  S  S33  1  0.07960028  0.48688243  0.01743904  1
  S  S34  1  0.66814017  0.50037309  0.90292684  1
  S  S35  1  0.33228989  0.51881841  0.09294842  1
  S  S36  1  0.59854145  0.93858772  0.67274846  1
  S  S37  1  0.41164633  0.99966260  0.36364348  1
  S  S38  1  0.24044676  0.54620958  0.29014062  1
  S  S39  1  0.76346423  0.46677780  0.71386111  1
  S  S40  1  0.66722886  0.02184510  0.43709659  1
  S  S41  1  0.33583601  0.04347859  0.54338818  1
