# generated using pymatgen
data_Pr2Mn3(SbS3)4
_symmetry_space_group_name_H-M   'P 1'
_cell_length_a   20.02960800
_cell_length_b   3.90410600
_cell_length_c   14.95364829
_cell_angle_alpha   90.00000000
_cell_angle_beta   126.33350609
_cell_angle_gamma   90.00000000
_symmetry_Int_Tables_number   1
_chemical_formula_structural   Pr2Mn3(SbS3)4
_chemical_formula_sum   'Pr4 Mn6 Sb8 S24'
_cell_volume   942.00006694
_cell_formula_units_Z   2
loop_
 _symmetry_equiv_pos_site_id
 _symmetry_equiv_pos_as_xyz
  1  'x, y, z'
loop_
 _atom_site_type_symbol
 _atom_site_label
 _atom_site_symmetry_multiplicity
 _atom_site_fract_x
 _atom_site_fract_y
 _atom_site_fract_z
 _atom_site_occupancy
  Pr  Pr0  1  0.25630805  0.51383389  0.85953220  1
  Pr  Pr1  1  0.73643480  0.49330176  0.13801694  1
  Pr  Pr2  1  0.76617002  0.99385511  0.87256762  1
  Pr  Pr3  1  0.24383262  0.99223100  0.14898501  1
  Mn  Mn4  1  0.28835032  0.50972742  0.59780642  1
  Mn  Mn5  1  0.69192860  0.45896278  0.37005727  1
  Mn  Mn6  1  0.99759015  0.99375582  0.99520339  1
  Mn  Mn7  1  0.80792968  0.97066351  0.60410926  1
  Mn  Mn8  1  0.19347878  0.95161573  0.40093438  1
  Mn  Mn9  1  0.50034697  0.53817695  0.00356140  1
  Sb  Sb10  1  0.90375435  0.98327854  0.45466788  1
  Sb  Sb11  1  0.10802999  0.02507961  0.55198782  1
  Sb  Sb12  1  0.03417525  0.50810005  0.81158707  1
  Sb  Sb13  1  0.96186814  0.51894981  0.18519323  1
  Sb  Sb14  1  0.38922317  0.50221977  0.45009029  1
  Sb  Sb15  1  0.61553373  0.48391328  0.56650536  1
  Sb  Sb16  1  0.53728857  0.03774486  0.81976255  1
  Sb  Sb17  1  0.45762987  0.00621879  0.19004351  1
  S  S18  1  0.94321143  0.97529863  0.80737337  1
  S  S19  1  0.06523441  0.03988509  0.21798811  1
  S  S20  1  0.41299363  0.96443357  0.99246955  1
  S  S21  1  0.58525042  0.99709120  0.01891185  1
  S  S22  1  0.17642570  0.99765940  0.89816031  1
  S  S23  1  0.82246289  0.01005059  0.10282570  1
  S  S24  1  0.09132817  0.52527998  0.65862290  1
  S  S25  1  0.90697024  0.50100697  0.34541947  1
  S  S26  1  0.73125688  0.01592465  0.29922619  1
  S  S27  1  0.26112816  0.98699575  0.69109718  1
  S  S28  1  0.15975688  0.45815346  0.44847363  1
  S  S29  1  0.82119489  0.49521464  0.53664192  1
  S  S30  1  0.44002284  0.56365045  0.79863067  1
  S  S31  1  0.55704920  0.45994783  0.18947778  1
  S  S32  1  0.91914950  0.51416732  0.99277438  1
  S  S33  1  0.07938038  0.48691515  0.01749484  1
  S  S34  1  0.66830279  0.49944047  0.90337827  1
  S  S35  1  0.33211506  0.51947515  0.09211715  1
  S  S36  1  0.59853517  0.93796693  0.67275654  1
  S  S37  1  0.41147827  0.99988875  0.36335677  1
  S  S38  1  0.24084820  0.54623424  0.29071391  1
  S  S39  1  0.76362023  0.46630379  0.71422030  1
  S  S40  1  0.66701218  0.02050405  0.43708823  1
  S  S41  1  0.33569651  0.04332156  0.54297112  1
