# generated using pymatgen
data_Pr2Mn3(SbS3)4
_symmetry_space_group_name_H-M   'P 1'
_cell_length_a   20.02960800
_cell_length_b   3.90410600
_cell_length_c   14.95364829
_cell_angle_alpha   90.00000000
_cell_angle_beta   126.33350609
_cell_angle_gamma   90.00000000
_symmetry_Int_Tables_number   1
_chemical_formula_structural   Pr2Mn3(SbS3)4
_chemical_formula_sum   'Pr4 Mn6 Sb8 S24'
_cell_volume   942.00006694
_cell_formula_units_Z   2
loop_
 _symmetry_equiv_pos_site_id
 _symmetry_equiv_pos_as_xyz
  1  'x, y, z'
loop_
 _atom_site_type_symbol
 _atom_site_label
 _atom_site_symmetry_multiplicity
 _atom_site_fract_x
 _atom_site_fract_y
 _atom_site_fract_z
 _atom_site_occupancy
  Pr  Pr0  1  0.25635153  0.51382584  0.85946313  1
  Pr  Pr1  1  0.73651357  0.49417089  0.13821664  1
  Pr  Pr2  1  0.76620267  0.99423863  0.87258683  1
  Pr  Pr3  1  0.24371933  0.99232874  0.14884113  1
  Mn  Mn4  1  0.28838644  0.50953856  0.59754023  1
  Mn  Mn5  1  0.69180315  0.45811004  0.36975917  1
  Mn  Mn6  1  0.99747929  0.99402990  0.99495985  1
  Mn  Mn7  1  0.80764499  0.97129332  0.60425171  1
  Mn  Mn8  1  0.19349006  0.95228087  0.40119213  1
  Mn  Mn9  1  0.50032288  0.53901201  0.00352854  1
  Sb  Sb10  1  0.90390502  0.98322639  0.45490146  1
  Sb  Sb11  1  0.10807917  0.02543433  0.55209956  1
  Sb  Sb12  1  0.03406451  0.50865490  0.81137984  1
  Sb  Sb13  1  0.96174280  0.51890949  0.18523488  1
  Sb  Sb14  1  0.38930578  0.50241363  0.45012293  1
  Sb  Sb15  1  0.61539937  0.48447935  0.56640689  1
  Sb  Sb16  1  0.53737129  0.03803434  0.81976970  1
  Sb  Sb17  1  0.45756392  0.00589560  0.19015106  1
  S  S18  1  0.94326920  0.97568133  0.80752490  1
  S  S19  1  0.06534474  0.03816697  0.21821852  1
  S  S20  1  0.41299211  0.96315844  0.99241742  1
  S  S21  1  0.58520680  0.99759755  0.01829716  1
  S  S22  1  0.17649160  0.99718976  0.89777062  1
  S  S23  1  0.82208262  0.01136477  0.10265521  1
  S  S24  1  0.09150806  0.52445586  0.65813921  1
  S  S25  1  0.90687662  0.50061017  0.34536889  1
  S  S26  1  0.73120440  0.01542664  0.29894061  1
  S  S27  1  0.26133283  0.98820007  0.69160374  1
  S  S28  1  0.15953871  0.45697586  0.44847935  1
  S  S29  1  0.82151814  0.49457109  0.53718563  1
  S  S30  1  0.44000291  0.56189108  0.79855290  1
  S  S31  1  0.55729701  0.45976529  0.18964910  1
  S  S32  1  0.91942612  0.51339937  0.99299651  1
  S  S33  1  0.07915719  0.48709975  0.01749585  1
  S  S34  1  0.66862800  0.49859561  0.90383944  1
  S  S35  1  0.33202867  0.52020784  0.09129787  1
  S  S36  1  0.59857080  0.93730600  0.67289844  1
  S  S37  1  0.41137964  0.00012250  0.36316509  1
  S  S38  1  0.24106842  0.54572590  0.29117273  1
  S  S39  1  0.76374242  0.46601357  0.71456815  1
  S  S40  1  0.66679764  0.01922958  0.43711685  1
  S  S41  1  0.33545111  0.04323016  0.54267120  1
