# generated using pymatgen
data_Pr2Mn3(SbS3)4
_symmetry_space_group_name_H-M   'P 1'
_cell_length_a   20.02960800
_cell_length_b   3.90410600
_cell_length_c   14.95364829
_cell_angle_alpha   90.00000000
_cell_angle_beta   126.33350609
_cell_angle_gamma   90.00000000
_symmetry_Int_Tables_number   1
_chemical_formula_structural   Pr2Mn3(SbS3)4
_chemical_formula_sum   'Pr4 Mn6 Sb8 S24'
_cell_volume   942.00006694
_cell_formula_units_Z   2
loop_
 _symmetry_equiv_pos_site_id
 _symmetry_equiv_pos_as_xyz
  1  'x, y, z'
loop_
 _atom_site_type_symbol
 _atom_site_label
 _atom_site_symmetry_multiplicity
 _atom_site_fract_x
 _atom_site_fract_y
 _atom_site_fract_z
 _atom_site_occupancy
  Pr  Pr0  1  0.25642992  0.51374839  0.85939646  1
  Pr  Pr1  1  0.73663131  0.49486999  0.13837369  1
  Pr  Pr2  1  0.76623996  0.99434662  0.87267056  1
  Pr  Pr3  1  0.24358715  0.99211751  0.14873516  1
  Mn  Mn4  1  0.28841596  0.50907917  0.59728260  1
  Mn  Mn5  1  0.69169931  0.45721797  0.36946834  1
  Mn  Mn6  1  0.99741285  0.99423785  0.99490468  1
  Mn  Mn7  1  0.80747618  0.97222938  0.60458196  1
  Mn  Mn8  1  0.19362129  0.95284384  0.40155249  1
  Mn  Mn9  1  0.50025882  0.54011205  0.00353521  1
  Sb  Sb10  1  0.90393473  0.98341228  0.45499766  1
  Sb  Sb11  1  0.10806744  0.02598917  0.55211470  1
  Sb  Sb12  1  0.03399754  0.50913721  0.81137525  1
  Sb  Sb13  1  0.96165587  0.51888194  0.18532143  1
  Sb  Sb14  1  0.38947263  0.50221942  0.45024351  1
  Sb  Sb15  1  0.61531579  0.48487065  0.56633826  1
  Sb  Sb16  1  0.53736655  0.03831841  0.81971503  1
  Sb  Sb17  1  0.45744452  0.00535778  0.19014176  1
  S  S18  1  0.94328096  0.97567073  0.80772521  1
  S  S19  1  0.06551918  0.03634165  0.21828527  1
  S  S20  1  0.41297810  0.96161166  0.99247044  1
  S  S21  1  0.58522331  0.99819804  0.01781436  1
  S  S22  1  0.17653865  0.99692797  0.89730785  1
  S  S23  1  0.82186956  0.01276762  0.10255186  1
  S  S24  1  0.09162883  0.52405721  0.65785175  1
  S  S25  1  0.90685080  0.50049828  0.34522812  1
  S  S26  1  0.73115924  0.01498702  0.29865116  1
  S  S27  1  0.26160487  0.98931144  0.69206492  1
  S  S28  1  0.15933213  0.45554296  0.44856386  1
  S  S29  1  0.82187392  0.49447071  0.53780464  1
  S  S30  1  0.43998617  0.56009671  0.79844927  1
  S  S31  1  0.55767353  0.45958891  0.18990380  1
  S  S32  1  0.91961841  0.51221217  0.99336621  1
  S  S33  1  0.07895254  0.48726585  0.01758236  1
  S  S34  1  0.66894696  0.49812637  0.90421035  1
  S  S35  1  0.33189269  0.52035183  0.09032298  1
  S  S36  1  0.59873012  0.93714761  0.67316342  1
  S  S37  1  0.41119590  0.99970128  0.36296286  1
  S  S38  1  0.24134855  0.54544054  0.29152591  1
  S  S39  1  0.76402400  0.46568778  0.71482154  1
  S  S40  1  0.66650177  0.01803205  0.43691766  1
  S  S41  1  0.33508881  0.04338182  0.54228089  1
