# generated using pymatgen
data_Pr2Mn3(SbS3)4
_symmetry_space_group_name_H-M   'P 1'
_cell_length_a   20.02960800
_cell_length_b   3.90410600
_cell_length_c   14.95364829
_cell_angle_alpha   90.00000000
_cell_angle_beta   126.33350609
_cell_angle_gamma   90.00000000
_symmetry_Int_Tables_number   1
_chemical_formula_structural   Pr2Mn3(SbS3)4
_chemical_formula_sum   'Pr4 Mn6 Sb8 S24'
_cell_volume   942.00006694
_cell_formula_units_Z   2
loop_
 _symmetry_equiv_pos_site_id
 _symmetry_equiv_pos_as_xyz
  1  'x, y, z'
loop_
 _atom_site_type_symbol
 _atom_site_label
 _atom_site_symmetry_multiplicity
 _atom_site_fract_x
 _atom_site_fract_y
 _atom_site_fract_z
 _atom_site_occupancy
  Pr  Pr0  1  0.25647029  0.51366766  0.85934978  1
  Pr  Pr1  1  0.73673623  0.49490669  0.13848978  1
  Pr  Pr2  1  0.76630561  0.99480736  0.87275808  1
  Pr  Pr3  1  0.24347647  0.99173476  0.14869375  1
  Mn  Mn4  1  0.28845175  0.50874328  0.59696822  1
  Mn  Mn5  1  0.69153360  0.45617593  0.36912389  1
  Mn  Mn6  1  0.99730932  0.99431167  0.99482579  1
  Mn  Mn7  1  0.80725093  0.97319379  0.60474359  1
  Mn  Mn8  1  0.19372013  0.95310975  0.40186045  1
  Mn  Mn9  1  0.50014687  0.54113366  0.00354480  1
  Sb  Sb10  1  0.90394981  0.98352874  0.45506970  1
  Sb  Sb11  1  0.10801643  0.02657594  0.55211026  1
  Sb  Sb12  1  0.03392190  0.50965446  0.81137724  1
  Sb  Sb13  1  0.96165310  0.51909724  0.18547108  1
  Sb  Sb14  1  0.38961088  0.50241377  0.45029900  1
  Sb  Sb15  1  0.61524030  0.48498097  0.56620660  1
  Sb  Sb16  1  0.53733134  0.03832590  0.81963954  1
  Sb  Sb17  1  0.45728468  0.00528511  0.19007731  1
  S  S18  1  0.94322447  0.97545591  0.80792025  1
  S  S19  1  0.06569307  0.03381007  0.21843944  1
  S  S20  1  0.41279248  0.96073628  0.99216505  1
  S  S21  1  0.58516638  0.99824429  0.01738883  1
  S  S22  1  0.17676210  0.99675977  0.89716628  1
  S  S23  1  0.82153868  0.01462592  0.10244809  1
  S  S24  1  0.09166534  0.52365694  0.65745955  1
  S  S25  1  0.90679448  0.50109081  0.34508775  1
  S  S26  1  0.73114740  0.01485579  0.29850863  1
  S  S27  1  0.26171270  0.99011939  0.69233718  1
  S  S28  1  0.15925679  0.45446176  0.44860798  1
  S  S29  1  0.82236240  0.49421922  0.53846247  1
  S  S30  1  0.43993768  0.55880172  0.79850853  1
  S  S31  1  0.55803657  0.45958773  0.19014987  1
  S  S32  1  0.91969330  0.51125380  0.99342362  1
  S  S33  1  0.07873387  0.48770804  0.01753501  1
  S  S34  1  0.66921150  0.49778735  0.90462994  1
  S  S35  1  0.33182731  0.52019550  0.08942692  1
  S  S36  1  0.59892854  0.93731146  0.67336279  1
  S  S37  1  0.41106340  0.99953857  0.36276767  1
  S  S38  1  0.24149479  0.54540114  0.29187577  1
  S  S39  1  0.76433865  0.46594981  0.71508007  1
  S  S40  1  0.66629315  0.01658862  0.43679068  1
  S  S41  1  0.33485354  0.04360359  0.54206716  1
