# generated using pymatgen
data_Pr2Mn3(SbS3)4
_symmetry_space_group_name_H-M   'P 1'
_cell_length_a   20.02960800
_cell_length_b   3.90410600
_cell_length_c   14.95364829
_cell_angle_alpha   90.00000000
_cell_angle_beta   126.33350609
_cell_angle_gamma   90.00000000
_symmetry_Int_Tables_number   1
_chemical_formula_structural   Pr2Mn3(SbS3)4
_chemical_formula_sum   'Pr4 Mn6 Sb8 S24'
_cell_volume   942.00006694
_cell_formula_units_Z   2
loop_
 _symmetry_equiv_pos_site_id
 _symmetry_equiv_pos_as_xyz
  1  'x, y, z'
loop_
 _atom_site_type_symbol
 _atom_site_label
 _atom_site_symmetry_multiplicity
 _atom_site_fract_x
 _atom_site_fract_y
 _atom_site_fract_z
 _atom_site_occupancy
  Pr  Pr0  1  0.25658542  0.51353716  0.85936859  1
  Pr  Pr1  1  0.73676821  0.49497191  0.13852420  1
  Pr  Pr2  1  0.76635821  0.99503953  0.87278652  1
  Pr  Pr3  1  0.24340817  0.99129360  0.14870130  1
  Mn  Mn4  1  0.28842204  0.50856700  0.59656849  1
  Mn  Mn5  1  0.69135211  0.45555738  0.36888231  1
  Mn  Mn6  1  0.99703369  0.99398717  0.99449293  1
  Mn  Mn7  1  0.80699181  0.97375490  0.60473980  1
  Mn  Mn8  1  0.19381665  0.95333180  0.40214945  1
  Mn  Mn9  1  0.50008954  0.54188921  0.00364844  1
  Sb  Sb10  1  0.90391227  0.98382378  0.45501770  1
  Sb  Sb11  1  0.10794078  0.02744115  0.55211026  1
  Sb  Sb12  1  0.03397371  0.51012467  0.81145195  1
  Sb  Sb13  1  0.96160936  0.51911710  0.18542772  1
  Sb  Sb14  1  0.38976946  0.50254285  0.45029000  1
  Sb  Sb15  1  0.61525648  0.48483898  0.56618533  1
  Sb  Sb16  1  0.53728626  0.03848585  0.81958759  1
  Sb  Sb17  1  0.45709239  0.00526501  0.18994756  1
  S  S18  1  0.94313231  0.97488915  0.80799507  1
  S  S19  1  0.06598236  0.03107855  0.21871988  1
  S  S20  1  0.41255407  0.96012331  0.99190789  1
  S  S21  1  0.58510425  0.99905119  0.01697312  1
  S  S22  1  0.17696607  0.99642275  0.89707740  1
  S  S23  1  0.82119929  0.01656893  0.10239429  1
  S  S24  1  0.09165973  0.52371300  0.65704792  1
  S  S25  1  0.90659660  0.50119005  0.34479244  1
  S  S26  1  0.73118640  0.01483471  0.29845649  1
  S  S27  1  0.26172888  0.99044531  0.69255772  1
  S  S28  1  0.15900364  0.45326488  0.44868852  1
  S  S29  1  0.82290004  0.49415919  0.53915122  1
  S  S30  1  0.43997037  0.55751648  0.79868469  1
  S  S31  1  0.55830957  0.45933718  0.19033663  1
  S  S32  1  0.91984916  0.51074477  0.99351731  1
  S  S33  1  0.07853306  0.48826622  0.01744000  1
  S  S34  1  0.66932290  0.49692243  0.90498184  1
  S  S35  1  0.33169017  0.51991686  0.08853122  1
  S  S36  1  0.59899263  0.93823886  0.67344110  1
  S  S37  1  0.41116459  0.99986395  0.36288094  1
  S  S38  1  0.24167087  0.54532705  0.29222263  1
  S  S39  1  0.76467384  0.46629292  0.71535961  1
  S  S40  1  0.66611448  0.01578592  0.43665822  1
  S  S41  1  0.33463642  0.04471676  0.54181435  1
