# generated using pymatgen
data_Pr2Mn3(SbS3)4
_symmetry_space_group_name_H-M   'P 1'
_cell_length_a   20.02960800
_cell_length_b   3.90410600
_cell_length_c   14.95364829
_cell_angle_alpha   90.00000000
_cell_angle_beta   126.33350609
_cell_angle_gamma   90.00000000
_symmetry_Int_Tables_number   1
_chemical_formula_structural   Pr2Mn3(SbS3)4
_chemical_formula_sum   'Pr4 Mn6 Sb8 S24'
_cell_volume   942.00006694
_cell_formula_units_Z   2
loop_
 _symmetry_equiv_pos_site_id
 _symmetry_equiv_pos_as_xyz
  1  'x, y, z'
loop_
 _atom_site_type_symbol
 _atom_site_label
 _atom_site_symmetry_multiplicity
 _atom_site_fract_x
 _atom_site_fract_y
 _atom_site_fract_z
 _atom_site_occupancy
  Pr  Pr0  1  0.26177599  0.49710826  0.86560871  1
  Pr  Pr1  1  0.73999301  0.50151821  0.13726749  1
  Pr  Pr2  1  0.76052107  0.00602137  0.86216990  1
  Pr  Pr3  1  0.24001586  0.99217764  0.13813159  1
  Mn  Mn4  1  0.29951368  0.50595617  0.62029283  1
  Mn  Mn5  1  0.69687500  0.49874597  0.37873913  1
  Mn  Mn6  1  0.00063020  0.99865920  0.00118049  1
  Mn  Mn7  1  0.80261281  0.99405844  0.61947207  1
  Mn  Mn8  1  0.19901001  0.99396394  0.37902263  1
  Mn  Mn9  1  0.49989263  0.48630778  0.00124680  1
  Sb  Sb10  1  0.89500000  0.00568912  0.45398031  1
  Sb  Sb11  1  0.10658179  0.99334161  0.54944070  1
  Sb  Sb12  1  0.03782499  0.49366306  0.81393630  1
  Sb  Sb13  1  0.96260121  0.49763279  0.18782681  1
  Sb  Sb14  1  0.39453047  0.49166103  0.45562718  1
  Sb  Sb15  1  0.60579958  0.49624522  0.54787911  1
  Sb  Sb16  1  0.53834347  0.99898521  0.81459289  1
  Sb  Sb17  1  0.46295158  0.99921601  0.18528917  1
  S  S18  1  0.93923794  0.99588253  0.79757339  1
  S  S19  1  0.05755677  0.99227746  0.19454965  1
  S  S20  1  0.40262457  0.98012514  0.98041459  1
  S  S21  1  0.59837963  0.99594857  0.01857397  1
  S  S22  1  0.16870591  0.98880027  0.89916552  1
  S  S23  1  0.82840205  0.00433960  0.10367289  1
  S  S24  1  0.08827374  0.49256294  0.64772989  1
  S  S25  1  0.91020875  0.48841839  0.34945529  1
  S  S26  1  0.74414748  0.98107584  0.29627025  1
  S  S27  1  0.25603473  0.00931879  0.70159145  1
  S  S28  1  0.15802543  0.49291878  0.44862524  1
  S  S29  1  0.83716403  0.49869704  0.54639774  1
  S  S30  1  0.44041833  0.49591596  0.79866442  1
  S  S31  1  0.56071260  0.49184939  0.19952803  1
  S  S32  1  0.90263015  0.48614404  0.97894777  1
  S  S33  1  0.09502636  0.48925724  0.01956828  1
  S  S34  1  0.66570076  0.51234401  0.89560859  1
  S  S35  1  0.33429267  0.50095831  0.10699187  1
  S  S36  1  0.58903291  0.01648917  0.64770670  1
  S  S37  1  0.41338797  0.99276870  0.35625326  1
  S  S38  1  0.24301607  0.48185284  0.29140271  1
  S  S39  1  0.76186502  0.50018077  0.70621377  1
  S  S40  1  0.65866310  0.99765534  0.45535348  1
  S  S41  1  0.34104912  0.99194639  0.54540512  1
