# generated using pymatgen
data_Pr2Mn3(SbS3)4
_symmetry_space_group_name_H-M   'P 1'
_cell_length_a   20.02960800
_cell_length_b   3.90410600
_cell_length_c   14.95364829
_cell_angle_alpha   90.00000000
_cell_angle_beta   126.33350609
_cell_angle_gamma   90.00000000
_symmetry_Int_Tables_number   1
_chemical_formula_structural   Pr2Mn3(SbS3)4
_chemical_formula_sum   'Pr4 Mn6 Sb8 S24'
_cell_volume   942.00006694
_cell_formula_units_Z   2
loop_
 _symmetry_equiv_pos_site_id
 _symmetry_equiv_pos_as_xyz
  1  'x, y, z'
loop_
 _atom_site_type_symbol
 _atom_site_label
 _atom_site_symmetry_multiplicity
 _atom_site_fract_x
 _atom_site_fract_y
 _atom_site_fract_z
 _atom_site_occupancy
  Pr  Pr0  1  0.26680866  0.49758575  0.86429940  1
  Pr  Pr1  1  0.73580581  0.51162518  0.13629560  1
  Pr  Pr2  1  0.76333445  0.01185811  0.86094253  1
  Pr  Pr3  1  0.23501312  0.99749697  0.13493205  1
  Mn  Mn4  1  0.28810821  0.48124327  0.58935638  1
  Mn  Mn5  1  0.68571768  0.47159097  0.36719616  1
  Mn  Mn6  1  0.00871972  0.98945090  0.02007710  1
  Mn  Mn7  1  0.80456841  0.01220193  0.61904662  1
  Mn  Mn8  1  0.19799018  0.97804512  0.37300965  1
  Mn  Mn9  1  0.49130411  0.47988141  0.99015733  1
  Sb  Sb10  1  0.88985041  0.98671569  0.45121598  1
  Sb  Sb11  1  0.11189458  0.98135747  0.54530737  1
  Sb  Sb12  1  0.03833313  0.52016350  0.82102741  1
  Sb  Sb13  1  0.96214988  0.50086094  0.18360774  1
  Sb  Sb14  1  0.39488037  0.50438973  0.45067029  1
  Sb  Sb15  1  0.60684397  0.46849119  0.55009617  1
  Sb  Sb16  1  0.53378002  0.99464799  0.80836065  1
  Sb  Sb17  1  0.46533129  0.01861508  0.19052484  1
  S  S18  1  0.93810018  0.00704700  0.80701013  1
  S  S19  1  0.06438488  0.97398343  0.20074172  1
  S  S20  1  0.41689305  0.95794118  0.98151190  1
  S  S21  1  0.57907062  0.03368177  0.01123019  1
  S  S22  1  0.17156972  0.05059189  0.90274551  1
  S  S23  1  0.82787298  0.04905060  0.09796715  1
  S  S24  1  0.09412090  0.48211985  0.64683969  1
  S  S25  1  0.91410051  0.48912053  0.35652317  1
  S  S26  1  0.73681605  0.95356614  0.30064502  1
  S  S27  1  0.26224447  0.00794940  0.70762838  1
  S  S28  1  0.16058015  0.50665564  0.42232098  1
  S  S29  1  0.82337688  0.48867533  0.55074670  1
  S  S30  1  0.43003787  0.49485149  0.79805140  1
  S  S31  1  0.55386085  0.52786884  0.18176104  1
  S  S32  1  0.91165141  0.48847371  0.98753793  1
  S  S33  1  0.09292688  0.49085815  0.03351304  1
  S  S34  1  0.66213713  0.51619441  0.88563733  1
  S  S35  1  0.33176536  0.50412567  0.10148074  1
  S  S36  1  0.59928050  0.99495550  0.65825039  1
  S  S37  1  0.40096107  0.99040762  0.34201385  1
  S  S38  1  0.23876284  0.46584741  0.31049191  1
  S  S39  1  0.76073308  0.50754541  0.69289091  1
  S  S40  1  0.66778539  0.03541085  0.44957985  1
  S  S41  1  0.32953147  0.98264709  0.55590313  1
