# generated using pymatgen
data_Pr2Mn3(SbS3)4
_symmetry_space_group_name_H-M   'P 1'
_cell_length_a   20.02960800
_cell_length_b   3.90410600
_cell_length_c   14.95364829
_cell_angle_alpha   90.00000000
_cell_angle_beta   126.33350609
_cell_angle_gamma   90.00000000
_symmetry_Int_Tables_number   1
_chemical_formula_structural   Pr2Mn3(SbS3)4
_chemical_formula_sum   'Pr4 Mn6 Sb8 S24'
_cell_volume   942.00006694
_cell_formula_units_Z   2
loop_
 _symmetry_equiv_pos_site_id
 _symmetry_equiv_pos_as_xyz
  1  'x, y, z'
loop_
 _atom_site_type_symbol
 _atom_site_label
 _atom_site_symmetry_multiplicity
 _atom_site_fract_x
 _atom_site_fract_y
 _atom_site_fract_z
 _atom_site_occupancy
  Pr  Pr0  1  0.25665265  0.51298972  0.85934155  1
  Pr  Pr1  1  0.73683941  0.49504171  0.13862631  1
  Pr  Pr2  1  0.76635950  0.99520165  0.87277500  1
  Pr  Pr3  1  0.24328763  0.99114589  0.14869004  1
  Mn  Mn4  1  0.28844122  0.50816069  0.59626712  1
  Mn  Mn5  1  0.69122956  0.45480399  0.36875562  1
  Mn  Mn6  1  0.99687693  0.99375611  0.99435059  1
  Mn  Mn7  1  0.80678405  0.97420512  0.60477437  1
  Mn  Mn8  1  0.19390591  0.95312951  0.40246443  1
  Mn  Mn9  1  0.50005054  0.54192755  0.00382316  1
  Sb  Sb10  1  0.90385217  0.98415530  0.45497760  1
  Sb  Sb11  1  0.10790448  0.02832626  0.55215769  1
  Sb  Sb12  1  0.03401836  0.51065064  0.81152020  1
  Sb  Sb13  1  0.96158079  0.51882488  0.18538754  1
  Sb  Sb14  1  0.38988883  0.50269403  0.45028710  1
  Sb  Sb15  1  0.61522873  0.48468996  0.56615280  1
  Sb  Sb16  1  0.53718996  0.03857476  0.81950860  1
  Sb  Sb17  1  0.45690790  0.00509295  0.18985518  1
  S  S18  1  0.94308086  0.97434180  0.80794703  1
  S  S19  1  0.06625061  0.02805883  0.21884211  1
  S  S20  1  0.41231574  0.95942837  0.99164003  1
  S  S21  1  0.58521006  0.99954393  0.01671339  1
  S  S22  1  0.17735306  0.99615013  0.89723213  1
  S  S23  1  0.82077568  0.01809762  0.10221728  1
  S  S24  1  0.09153182  0.52386178  0.65663713  1
  S  S25  1  0.90625056  0.50067611  0.34439626  1
  S  S26  1  0.73126940  0.01485737  0.29853096  1
  S  S27  1  0.26194996  0.99058633  0.69281931  1
  S  S28  1  0.15867119  0.45247168  0.44858747  1
  S  S29  1  0.82331969  0.49339633  0.53970419  1
  S  S30  1  0.43991054  0.55612898  0.79892891  1
  S  S31  1  0.55863063  0.45926173  0.19048323  1
  S  S32  1  0.92003765  0.51011881  0.99351694  1
  S  S33  1  0.07841816  0.48940089  0.01747780  1
  S  S34  1  0.66947395  0.49620711  0.90545869  1
  S  S35  1  0.33155053  0.51935540  0.08758319  1
  S  S36  1  0.59896136  0.93886350  0.67341045  1
  S  S37  1  0.41127452  0.99998106  0.36288095  1
  S  S38  1  0.24186485  0.54501663  0.29261897  1
  S  S39  1  0.76496225  0.46643162  0.71545735  1
  S  S40  1  0.66596522  0.01503398  0.43666788  1
  S  S41  1  0.33429807  0.04478347  0.54146843  1
