# generated using pymatgen
data_Pr2Mn3(SbS3)4
_symmetry_space_group_name_H-M   'P 1'
_cell_length_a   20.02960800
_cell_length_b   3.90410600
_cell_length_c   14.95364829
_cell_angle_alpha   90.00000000
_cell_angle_beta   126.33350609
_cell_angle_gamma   90.00000000
_symmetry_Int_Tables_number   1
_chemical_formula_structural   Pr2Mn3(SbS3)4
_chemical_formula_sum   'Pr4 Mn6 Sb8 S24'
_cell_volume   942.00006694
_cell_formula_units_Z   2
loop_
 _symmetry_equiv_pos_site_id
 _symmetry_equiv_pos_as_xyz
  1  'x, y, z'
loop_
 _atom_site_type_symbol
 _atom_site_label
 _atom_site_symmetry_multiplicity
 _atom_site_fract_x
 _atom_site_fract_y
 _atom_site_fract_z
 _atom_site_occupancy
  Pr  Pr0  1  0.25673602  0.51191006  0.85932396  1
  Pr  Pr1  1  0.73681343  0.49504846  0.13869668  1
  Pr  Pr2  1  0.76628661  0.99525329  0.87269035  1
  Pr  Pr3  1  0.24313018  0.99105052  0.14863277  1
  Mn  Mn4  1  0.28849016  0.50793519  0.59604673  1
  Mn  Mn5  1  0.69105377  0.45353985  0.36863577  1
  Mn  Mn6  1  0.99668514  0.99389068  0.99416383  1
  Mn  Mn7  1  0.80651609  0.97388753  0.60458754  1
  Mn  Mn8  1  0.19399295  0.95228638  0.40274377  1
  Mn  Mn9  1  0.50002190  0.54237676  0.00390556  1
  Sb  Sb10  1  0.90383781  0.98425443  0.45512843  1
  Sb  Sb11  1  0.10785770  0.02901922  0.55217406  1
  Sb  Sb12  1  0.03410056  0.51124158  0.81164681  1
  Sb  Sb13  1  0.96164646  0.51816420  0.18544215  1
  Sb  Sb14  1  0.38998995  0.50302471  0.45029296  1
  Sb  Sb15  1  0.61524979  0.48444350  0.56613366  1
  Sb  Sb16  1  0.53708287  0.03862802  0.81952786  1
  Sb  Sb17  1  0.45675147  0.00494906  0.18979127  1
  S  S18  1  0.94307844  0.97342598  0.80787618  1
  S  S19  1  0.06654095  0.02516198  0.21896755  1
  S  S20  1  0.41213973  0.95851675  0.99147714  1
  S  S21  1  0.58530426  0.99980343  0.01649361  1
  S  S22  1  0.17767792  0.99564863  0.89725155  1
  S  S23  1  0.82039373  0.01866731  0.10211379  1
  S  S24  1  0.09137263  0.52455894  0.65629378  1
  S  S25  1  0.90585140  0.49995047  0.34408123  1
  S  S26  1  0.73146926  0.01555665  0.29865103  1
  S  S27  1  0.26208416  0.99073269  0.69299383  1
  S  S28  1  0.15818365  0.45074548  0.44845366  1
  S  S29  1  0.82369428  0.49247128  0.54010542  1
  S  S30  1  0.43968731  0.55555314  0.79916385  1
  S  S31  1  0.55918235  0.45858490  0.19099173  1
  S  S32  1  0.92016021  0.50936649  0.99341436  1
  S  S33  1  0.07831978  0.48986664  0.01739722  1
  S  S34  1  0.66968071  0.49551558  0.90604415  1
  S  S35  1  0.33139783  0.51898671  0.08670807  1
  S  S36  1  0.59907620  0.93997710  0.67353649  1
  S  S37  1  0.41145623  0.00013722  0.36299924  1
  S  S38  1  0.24202966  0.54453093  0.29291293  1
  S  S39  1  0.76523098  0.46638003  0.71550105  1
  S  S40  1  0.66586284  0.01457189  0.43667897  1
  S  S41  1  0.33405431  0.04381225  0.54126571  1
