# generated using pymatgen
data_Pr2Mn3(SbS3)4
_symmetry_space_group_name_H-M   'P 1'
_cell_length_a   20.02960800
_cell_length_b   3.90410600
_cell_length_c   14.95364829
_cell_angle_alpha   90.00000000
_cell_angle_beta   126.33350609
_cell_angle_gamma   90.00000000
_symmetry_Int_Tables_number   1
_chemical_formula_structural   Pr2Mn3(SbS3)4
_chemical_formula_sum   'Pr4 Mn6 Sb8 S24'
_cell_volume   942.00006694
_cell_formula_units_Z   2
loop_
 _symmetry_equiv_pos_site_id
 _symmetry_equiv_pos_as_xyz
  1  'x, y, z'
loop_
 _atom_site_type_symbol
 _atom_site_label
 _atom_site_symmetry_multiplicity
 _atom_site_fract_x
 _atom_site_fract_y
 _atom_site_fract_z
 _atom_site_occupancy
  Pr  Pr0  1  0.25680701  0.51076932  0.85931264  1
  Pr  Pr1  1  0.73678986  0.49514963  0.13878962  1
  Pr  Pr2  1  0.76627620  0.99473731  0.87274112  1
  Pr  Pr3  1  0.24301918  0.99089283  0.14857393  1
  Mn  Mn4  1  0.28866148  0.50723296  0.59589087  1
  Mn  Mn5  1  0.69094214  0.45255105  0.36859265  1
  Mn  Mn6  1  0.99644460  0.99406004  0.99384520  1
  Mn  Mn7  1  0.80628426  0.97372905  0.60447115  1
  Mn  Mn8  1  0.19408188  0.95135729  0.40313950  1
  Mn  Mn9  1  0.49993870  0.54308144  0.00389256  1
  Sb  Sb10  1  0.90375251  0.98454492  0.45526877  1
  Sb  Sb11  1  0.10778965  0.02970605  0.55219625  1
  Sb  Sb12  1  0.03417006  0.51195715  0.81175785  1
  Sb  Sb13  1  0.96178976  0.51759440  0.18558316  1
  Sb  Sb14  1  0.39016291  0.50304192  0.45036927  1
  Sb  Sb15  1  0.61532020  0.48435716  0.56622692  1
  Sb  Sb16  1  0.53706860  0.03884517  0.81957392  1
  Sb  Sb17  1  0.45657807  0.00505825  0.18966327  1
  S  S18  1  0.94303753  0.97323031  0.80779019  1
  S  S19  1  0.06673298  0.02250301  0.21910526  1
  S  S20  1  0.41197044  0.95823105  0.99128844  1
  S  S21  1  0.58546345  0.00073385  0.01667829  1
  S  S22  1  0.17804228  0.99455939  0.89734916  1
  S  S23  1  0.82001979  0.01942274  0.10210313  1
  S  S24  1  0.09132439  0.52519920  0.65608085  1
  S  S25  1  0.90535070  0.50025007  0.34391828  1
  S  S26  1  0.73176280  0.01586202  0.29889105  1
  S  S27  1  0.26217894  0.99075959  0.69312152  1
  S  S28  1  0.15770730  0.44958135  0.44833905  1
  S  S29  1  0.82387124  0.49165007  0.54017003  1
  S  S30  1  0.43948650  0.55563373  0.79935216  1
  S  S31  1  0.55965439  0.45834715  0.19140415  1
  S  S32  1  0.92022986  0.50855156  0.99343084  1
  S  S33  1  0.07832060  0.49003913  0.01750968  1
  S  S34  1  0.67000350  0.49481833  0.90680333  1
  S  S35  1  0.33123787  0.51809805  0.08604645  1
  S  S36  1  0.59922900  0.94104379  0.67374792  1
  S  S37  1  0.41143133  0.00093989  0.36292245  1
  S  S38  1  0.24216511  0.54350844  0.29331384  1
  S  S39  1  0.76546504  0.46679533  0.71533429  1
  S  S40  1  0.66577515  0.01425108  0.43682942  1
  S  S41  1  0.33359669  0.04288942  0.54090409  1
