# generated using pymatgen
data_Pr2Mn3(SbS3)4
_symmetry_space_group_name_H-M   'P 1'
_cell_length_a   20.02960800
_cell_length_b   3.90410600
_cell_length_c   14.95364829
_cell_angle_alpha   90.00000000
_cell_angle_beta   126.33350609
_cell_angle_gamma   90.00000000
_symmetry_Int_Tables_number   1
_chemical_formula_structural   Pr2Mn3(SbS3)4
_chemical_formula_sum   'Pr4 Mn6 Sb8 S24'
_cell_volume   942.00006694
_cell_formula_units_Z   2
loop_
 _symmetry_equiv_pos_site_id
 _symmetry_equiv_pos_as_xyz
  1  'x, y, z'
loop_
 _atom_site_type_symbol
 _atom_site_label
 _atom_site_symmetry_multiplicity
 _atom_site_fract_x
 _atom_site_fract_y
 _atom_site_fract_z
 _atom_site_occupancy
  Pr  Pr0  1  0.25680728  0.50980498  0.85914077  1
  Pr  Pr1  1  0.73675712  0.49473547  0.13882076  1
  Pr  Pr2  1  0.76622773  0.99401376  0.87273859  1
  Pr  Pr3  1  0.24295054  0.99065070  0.14854652  1
  Mn  Mn4  1  0.28875923  0.50629868  0.59559923  1
  Mn  Mn5  1  0.69073254  0.45163641  0.36846981  1
  Mn  Mn6  1  0.99630717  0.99428348  0.99359800  1
  Mn  Mn7  1  0.80606934  0.97343561  0.60434822  1
  Mn  Mn8  1  0.19403532  0.95061922  0.40336714  1
  Mn  Mn9  1  0.49971902  0.54349339  0.00368771  1
  Sb  Sb10  1  0.90358079  0.98462081  0.45531360  1
  Sb  Sb11  1  0.10777407  0.03068306  0.55233266  1
  Sb  Sb12  1  0.03422090  0.51306963  0.81185682  1
  Sb  Sb13  1  0.96189618  0.51689476  0.18570089  1
  Sb  Sb14  1  0.39024497  0.50319378  0.45049799  1
  Sb  Sb15  1  0.61541182  0.48434930  0.56636450  1
  Sb  Sb16  1  0.53709533  0.03895515  0.81953604  1
  Sb  Sb17  1  0.45643781  0.00510943  0.18946754  1
  S  S18  1  0.94290338  0.97318089  0.80759182  1
  S  S19  1  0.06682147  0.01972199  0.21921542  1
  S  S20  1  0.41174220  0.95804330  0.99117857  1
  S  S21  1  0.58560722  0.00198148  0.01697309  1
  S  S22  1  0.17838619  0.99294980  0.89752294  1
  S  S23  1  0.81972401  0.02005147  0.10211656  1
  S  S24  1  0.09116034  0.52601734  0.65571415  1
  S  S25  1  0.90489379  0.50070353  0.34382639  1
  S  S26  1  0.73200530  0.01612185  0.29920141  1
  S  S27  1  0.26228205  0.99039797  0.69317894  1
  S  S28  1  0.15733539  0.44782854  0.44832795  1
  S  S29  1  0.82397518  0.49160010  0.54015985  1
  S  S30  1  0.43939213  0.55598887  0.79953501  1
  S  S31  1  0.56005808  0.45866701  0.19176902  1
  S  S32  1  0.92035108  0.50812230  0.99350252  1
  S  S33  1  0.07827276  0.48987109  0.01745206  1
  S  S34  1  0.67022285  0.49428650  0.90754217  1
  S  S35  1  0.33102951  0.51745893  0.08552550  1
  S  S36  1  0.59923369  0.94196091  0.67391938  1
  S  S37  1  0.41142695  0.00200594  0.36286768  1
  S  S38  1  0.24213731  0.54264732  0.29361126  1
  S  S39  1  0.76562042  0.46786041  0.71520005  1
  S  S40  1  0.66574734  0.01329466  0.43702716  1
  S  S41  1  0.33302125  0.04208409  0.54036066  1
