# generated using pymatgen
data_Pr2Mn3(SbS3)4
_symmetry_space_group_name_H-M   'P 1'
_cell_length_a   20.02960800
_cell_length_b   3.90410600
_cell_length_c   14.95364829
_cell_angle_alpha   90.00000000
_cell_angle_beta   126.33350609
_cell_angle_gamma   90.00000000
_symmetry_Int_Tables_number   1
_chemical_formula_structural   Pr2Mn3(SbS3)4
_chemical_formula_sum   'Pr4 Mn6 Sb8 S24'
_cell_volume   942.00006694
_cell_formula_units_Z   2
loop_
 _symmetry_equiv_pos_site_id
 _symmetry_equiv_pos_as_xyz
  1  'x, y, z'
loop_
 _atom_site_type_symbol
 _atom_site_label
 _atom_site_symmetry_multiplicity
 _atom_site_fract_x
 _atom_site_fract_y
 _atom_site_fract_z
 _atom_site_occupancy
  Pr  Pr0  1  0.25679603  0.50924480  0.85901867  1
  Pr  Pr1  1  0.73670724  0.49422927  0.13880183  1
  Pr  Pr2  1  0.76615110  0.99333733  0.87276293  1
  Pr  Pr3  1  0.24299334  0.99090562  0.14864029  1
  Mn  Mn4  1  0.28890716  0.50505603  0.59541281  1
  Mn  Mn5  1  0.69055693  0.45092011  0.36842949  1
  Mn  Mn6  1  0.99637006  0.99466013  0.99344544  1
  Mn  Mn7  1  0.80592821  0.97295577  0.60423957  1
  Mn  Mn8  1  0.19407625  0.95004194  0.40361404  1
  Mn  Mn9  1  0.49942579  0.54348472  0.00336358  1
  Sb  Sb10  1  0.90340789  0.98461273  0.45530810  1
  Sb  Sb11  1  0.10772257  0.03160308  0.55242130  1
  Sb  Sb12  1  0.03423851  0.51426440  0.81195899  1
  Sb  Sb13  1  0.96195310  0.51638716  0.18581567  1
  Sb  Sb14  1  0.39028411  0.50322730  0.45056406  1
  Sb  Sb15  1  0.61550295  0.48447365  0.56647530  1
  Sb  Sb16  1  0.53711834  0.03894066  0.81941687  1
  Sb  Sb17  1  0.45626053  0.00526401  0.18915332  1
  S  S18  1  0.94283878  0.97292840  0.80748248  1
  S  S19  1  0.06693587  0.01702435  0.21934775  1
  S  S20  1  0.41161340  0.95716681  0.99115146  1
  S  S21  1  0.58571205  0.00366337  0.01716797  1
  S  S22  1  0.17868118  0.99195391  0.89772638  1
  S  S23  1  0.81958450  0.02033811  0.10213413  1
  S  S24  1  0.09102573  0.52634004  0.65526795  1
  S  S25  1  0.90443934  0.50096011  0.34387111  1
  S  S26  1  0.73232043  0.01623762  0.29969758  1
  S  S27  1  0.26241533  0.98994651  0.69345706  1
  S  S28  1  0.15708281  0.44656760  0.44828171  1
  S  S29  1  0.82390031  0.49141277  0.53998261  1
  S  S30  1  0.43899868  0.55589995  0.79965384  1
  S  S31  1  0.56044080  0.45884879  0.19195783  1
  S  S32  1  0.92048300  0.50765698  0.99336695  1
  S  S33  1  0.07818567  0.49008400  0.01724779  1
  S  S34  1  0.67047932  0.49367215  0.90820169  1
  S  S35  1  0.33092334  0.51646137  0.08521587  1
  S  S36  1  0.59906841  0.94338311  0.67388828  1
  S  S37  1  0.41154972  0.00323729  0.36301809  1
  S  S38  1  0.24222467  0.54208426  0.29402913  1
  S  S39  1  0.76568503  0.46875080  0.71507219  1
  S  S40  1  0.66565242  0.01214827  0.43735619  1
  S  S41  1  0.33255463  0.04141008  0.53993248  1
