# generated using pymatgen
data_Pr2Mn3(SbS3)4
_symmetry_space_group_name_H-M   'P 1'
_cell_length_a   20.02960800
_cell_length_b   3.90410600
_cell_length_c   14.95364829
_cell_angle_alpha   90.00000000
_cell_angle_beta   126.33350609
_cell_angle_gamma   90.00000000
_symmetry_Int_Tables_number   1
_chemical_formula_structural   Pr2Mn3(SbS3)4
_chemical_formula_sum   'Pr4 Mn6 Sb8 S24'
_cell_volume   942.00006694
_cell_formula_units_Z   2
loop_
 _symmetry_equiv_pos_site_id
 _symmetry_equiv_pos_as_xyz
  1  'x, y, z'
loop_
 _atom_site_type_symbol
 _atom_site_label
 _atom_site_symmetry_multiplicity
 _atom_site_fract_x
 _atom_site_fract_y
 _atom_site_fract_z
 _atom_site_occupancy
  Pr  Pr0  1  0.25676988  0.50887734  0.85883096  1
  Pr  Pr1  1  0.73671279  0.49362461  0.13888660  1
  Pr  Pr2  1  0.76602649  0.99245566  0.87262986  1
  Pr  Pr3  1  0.24305015  0.99088256  0.14876503  1
  Mn  Mn4  1  0.28894224  0.50409071  0.59520667  1
  Mn  Mn5  1  0.69040374  0.45045049  0.36828027  1
  Mn  Mn6  1  0.99645737  0.99482056  0.99345688  1
  Mn  Mn7  1  0.80575237  0.97289346  0.60413640  1
  Mn  Mn8  1  0.19426017  0.94931020  0.40397790  1
  Mn  Mn9  1  0.49917073  0.54360539  0.00302589  1
  Sb  Sb10  1  0.90318345  0.98450983  0.45517833  1
  Sb  Sb11  1  0.10773506  0.03235059  0.55248338  1
  Sb  Sb12  1  0.03428308  0.51551198  0.81211706  1
  Sb  Sb13  1  0.96198681  0.51581718  0.18598725  1
  Sb  Sb14  1  0.39028725  0.50311704  0.45055451  1
  Sb  Sb15  1  0.61563857  0.48423534  0.56668569  1
  Sb  Sb16  1  0.53714103  0.03889627  0.81933840  1
  Sb  Sb17  1  0.45607484  0.00537230  0.18887788  1
  S  S18  1  0.94270671  0.97264313  0.80732109  1
  S  S19  1  0.06673547  0.01474947  0.21913708  1
  S  S20  1  0.41153195  0.95637066  0.99111635  1
  S  S21  1  0.58583380  0.00527114  0.01725074  1
  S  S22  1  0.17903411  0.99074465  0.89794321  1
  S  S23  1  0.81941450  0.02026748  0.10201794  1
  S  S24  1  0.09096619  0.52605999  0.65491671  1
  S  S25  1  0.90400525  0.50117057  0.34381040  1
  S  S26  1  0.73263153  0.01582937  0.30030601  1
  S  S27  1  0.26246202  0.98902221  0.69364948  1
  S  S28  1  0.15688362  0.44619146  0.44821455  1
  S  S29  1  0.82387788  0.49093256  0.53973680  1
  S  S30  1  0.43849295  0.55532214  0.79981575  1
  S  S31  1  0.56089378  0.45877046  0.19219448  1
  S  S32  1  0.92055993  0.50694947  0.99326015  1
  S  S33  1  0.07809970  0.49031974  0.01696350  1
  S  S34  1  0.67076368  0.49379466  0.90866837  1
  S  S35  1  0.33078064  0.51479608  0.08490455  1
  S  S36  1  0.59887621  0.94531363  0.67379967  1
  S  S37  1  0.41182579  0.00422797  0.36327617  1
  S  S38  1  0.24222175  0.54096164  0.29426740  1
  S  S39  1  0.76567877  0.46886966  0.71490595  1
  S  S40  1  0.66561123  0.01098148  0.43775101  1
  S  S41  1  0.33213430  0.04050621  0.53951262  1
