# generated using pymatgen
data_Pr2Mn3(SbS3)4
_symmetry_space_group_name_H-M   'P 1'
_cell_length_a   20.02960800
_cell_length_b   3.90410600
_cell_length_c   14.95364829
_cell_angle_alpha   90.00000000
_cell_angle_beta   126.33350609
_cell_angle_gamma   90.00000000
_symmetry_Int_Tables_number   1
_chemical_formula_structural   Pr2Mn3(SbS3)4
_chemical_formula_sum   'Pr4 Mn6 Sb8 S24'
_cell_volume   942.00006694
_cell_formula_units_Z   2
loop_
 _symmetry_equiv_pos_site_id
 _symmetry_equiv_pos_as_xyz
  1  'x, y, z'
loop_
 _atom_site_type_symbol
 _atom_site_label
 _atom_site_symmetry_multiplicity
 _atom_site_fract_x
 _atom_site_fract_y
 _atom_site_fract_z
 _atom_site_occupancy
  Pr  Pr0  1  0.25678630  0.50824664  0.85859364  1
  Pr  Pr1  1  0.73674091  0.49318434  0.13899004  1
  Pr  Pr2  1  0.76586344  0.99182026  0.87244100  1
  Pr  Pr3  1  0.24310926  0.99070979  0.14888848  1
  Mn  Mn4  1  0.28902733  0.50284708  0.59506020  1
  Mn  Mn5  1  0.69020403  0.44987991  0.36796464  1
  Mn  Mn6  1  0.99648450  0.99436607  0.99337237  1
  Mn  Mn7  1  0.80554231  0.97232490  0.60398156  1
  Mn  Mn8  1  0.19433895  0.94844621  0.40431131  1
  Mn  Mn9  1  0.49889940  0.54364783  0.00274243  1
  Sb  Sb10  1  0.90292735  0.98431492  0.45497494  1
  Sb  Sb11  1  0.10771575  0.03282325  0.55251440  1
  Sb  Sb12  1  0.03428632  0.51687874  0.81214968  1
  Sb  Sb13  1  0.96202018  0.51528034  0.18613357  1
  Sb  Sb14  1  0.39040907  0.50278224  0.45071628  1
  Sb  Sb15  1  0.61584528  0.48407131  0.56699277  1
  Sb  Sb16  1  0.53718026  0.03895313  0.81921214  1
  Sb  Sb17  1  0.45592211  0.00552316  0.18858512  1
  S  S18  1  0.94247554  0.97286749  0.80712260  1
  S  S19  1  0.06642886  0.01222162  0.21875317  1
  S  S20  1  0.41132144  0.95584594  0.99089781  1
  S  S21  1  0.58597316  0.00703800  0.01755329  1
  S  S22  1  0.17939130  0.98969862  0.89838024  1
  S  S23  1  0.81923966  0.01994973  0.10173184  1
  S  S24  1  0.09081352  0.52574170  0.65454658  1
  S  S25  1  0.90363406  0.50159618  0.34387416  1
  S  S26  1  0.73293924  0.01512247  0.30079565  1
  S  S27  1  0.26247667  0.98795248  0.69374933  1
  S  S28  1  0.15665142  0.44538872  0.44822872  1
  S  S29  1  0.82384924  0.48987920  0.53942192  1
  S  S30  1  0.43803244  0.55457983  0.79993034  1
  S  S31  1  0.56125243  0.45828351  0.19249114  1
  S  S32  1  0.92058123  0.50620481  0.99305023  1
  S  S33  1  0.07797017  0.49082630  0.01667290  1
  S  S34  1  0.67111509  0.49414791  0.90925353  1
  S  S35  1  0.33064210  0.51236864  0.08461787  1
  S  S36  1  0.59877766  0.94669853  0.67361557  1
  S  S37  1  0.41204324  0.00527111  0.36341616  1
  S  S38  1  0.24241477  0.54003279  0.29472185  1
  S  S39  1  0.76571070  0.46886445  0.71472312  1
  S  S40  1  0.66558148  0.00961547  0.43828025  1
  S  S41  1  0.33170220  0.04046336  0.53901867  1
