# generated using pymatgen
data_Pr2Mn3(SbS3)4
_symmetry_space_group_name_H-M   'P 1'
_cell_length_a   20.02960800
_cell_length_b   3.90410600
_cell_length_c   14.95364829
_cell_angle_alpha   90.00000000
_cell_angle_beta   126.33350609
_cell_angle_gamma   90.00000000
_symmetry_Int_Tables_number   1
_chemical_formula_structural   Pr2Mn3(SbS3)4
_chemical_formula_sum   'Pr4 Mn6 Sb8 S24'
_cell_volume   942.00006694
_cell_formula_units_Z   2
loop_
 _symmetry_equiv_pos_site_id
 _symmetry_equiv_pos_as_xyz
  1  'x, y, z'
loop_
 _atom_site_type_symbol
 _atom_site_label
 _atom_site_symmetry_multiplicity
 _atom_site_fract_x
 _atom_site_fract_y
 _atom_site_fract_z
 _atom_site_occupancy
  Pr  Pr0  1  0.25679107  0.50783562  0.85835886  1
  Pr  Pr1  1  0.73673702  0.49300762  0.13909944  1
  Pr  Pr2  1  0.76578463  0.99138825  0.87229598  1
  Pr  Pr3  1  0.24317044  0.99066909  0.14898836  1
  Mn  Mn4  1  0.28911418  0.50187064  0.59490250  1
  Mn  Mn5  1  0.69012473  0.44981260  0.36772797  1
  Mn  Mn6  1  0.99641268  0.99398295  0.99330490  1
  Mn  Mn7  1  0.80532803  0.97163597  0.60368810  1
  Mn  Mn8  1  0.19449573  0.94805898  0.40460441  1
  Mn  Mn9  1  0.49854550  0.54380771  0.00245232  1
  Sb  Sb10  1  0.90263855  0.98428607  0.45479717  1
  Sb  Sb11  1  0.10781239  0.03346288  0.55260211  1
  Sb  Sb12  1  0.03436123  0.51832832  0.81215607  1
  Sb  Sb13  1  0.96208800  0.51448234  0.18628450  1
  Sb  Sb14  1  0.39050541  0.50240416  0.45088157  1
  Sb  Sb15  1  0.61601075  0.48391719  0.56719891  1
  Sb  Sb16  1  0.53722397  0.03896541  0.81913227  1
  Sb  Sb17  1  0.45580996  0.00559864  0.18830923  1
  S  S18  1  0.94235349  0.97313793  0.80702309  1
  S  S19  1  0.06603984  0.01034457  0.21825055  1
  S  S20  1  0.41116646  0.95575451  0.99063549  1
  S  S21  1  0.58615377  0.00885066  0.01784930  1
  S  S22  1  0.17959520  0.98871127  0.89876276  1
  S  S23  1  0.81909949  0.01948129  0.10137190  1
  S  S24  1  0.09088836  0.52504866  0.65457514  1
  S  S25  1  0.90336763  0.50197050  0.34411959  1
  S  S26  1  0.73315218  0.01474680  0.30129884  1
  S  S27  1  0.26247044  0.98730209  0.69393085  1
  S  S28  1  0.15649334  0.44465831  0.44831596  1
  S  S29  1  0.82367433  0.48867896  0.53900424  1
  S  S30  1  0.43750096  0.55380857  0.80002438  1
  S  S31  1  0.56151993  0.45752238  0.19256672  1
  S  S32  1  0.92061101  0.50570378  0.99286269  1
  S  S33  1  0.07804374  0.49131335  0.01668097  1
  S  S34  1  0.67145697  0.49428473  0.90997220  1
  S  S35  1  0.33041337  0.50984339  0.08416775  1
  S  S36  1  0.59872105  0.94806295  0.67357422  1
  S  S37  1  0.41238395  0.00663003  0.36375531  1
  S  S38  1  0.24258906  0.53925243  0.29505447  1
  S  S39  1  0.76559049  0.46895051  0.71426374  1
  S  S40  1  0.66556643  0.00852854  0.43868132  1
  S  S41  1  0.33140831  0.04073234  0.53862785  1
