# generated using pymatgen
data_Pr2Mn3(SbS3)4
_symmetry_space_group_name_H-M   'P 1'
_cell_length_a   20.02960800
_cell_length_b   3.90410600
_cell_length_c   14.95364829
_cell_angle_alpha   90.00000000
_cell_angle_beta   126.33350609
_cell_angle_gamma   90.00000000
_symmetry_Int_Tables_number   1
_chemical_formula_structural   Pr2Mn3(SbS3)4
_chemical_formula_sum   'Pr4 Mn6 Sb8 S24'
_cell_volume   942.00006694
_cell_formula_units_Z   2
loop_
 _symmetry_equiv_pos_site_id
 _symmetry_equiv_pos_as_xyz
  1  'x, y, z'
loop_
 _atom_site_type_symbol
 _atom_site_label
 _atom_site_symmetry_multiplicity
 _atom_site_fract_x
 _atom_site_fract_y
 _atom_site_fract_z
 _atom_site_occupancy
  Pr  Pr0  1  0.25683602  0.50776640  0.85813539  1
  Pr  Pr1  1  0.73676494  0.49315375  0.13930884  1
  Pr  Pr2  1  0.76567630  0.99094202  0.87211481  1
  Pr  Pr3  1  0.24316065  0.99056685  0.14900839  1
  Mn  Mn4  1  0.28914244  0.50115345  0.59465429  1
  Mn  Mn5  1  0.69008638  0.44989760  0.36765699  1
  Mn  Mn6  1  0.99639553  0.99330396  0.99329296  1
  Mn  Mn7  1  0.80516908  0.97086359  0.60350714  1
  Mn  Mn8  1  0.19464847  0.94787020  0.40480839  1
  Mn  Mn9  1  0.49824807  0.54385508  0.00219048  1
  Sb  Sb10  1  0.90238489  0.98424504  0.45462533  1
  Sb  Sb11  1  0.10792422  0.03399800  0.55267777  1
  Sb  Sb12  1  0.03435096  0.51979727  0.81222298  1
  Sb  Sb13  1  0.96217122  0.51411600  0.18637570  1
  Sb  Sb14  1  0.39067512  0.50218759  0.45113875  1
  Sb  Sb15  1  0.61608875  0.48369132  0.56735396  1
  Sb  Sb16  1  0.53733364  0.03912237  0.81903686  1
  Sb  Sb17  1  0.45559820  0.00541663  0.18796552  1
  S  S18  1  0.94204891  0.97358856  0.80668618  1
  S  S19  1  0.06574966  0.00819771  0.21801136  1
  S  S20  1  0.41108734  0.95543522  0.99062344  1
  S  S21  1  0.58621135  0.01110638  0.01809425  1
  S  S22  1  0.17984396  0.98811590  0.89910071  1
  S  S23  1  0.81900637  0.01891479  0.10096701  1
  S  S24  1  0.09098114  0.52453573  0.65459958  1
  S  S25  1  0.90301883  0.50178927  0.34406590  1
  S  S26  1  0.73356390  0.01388882  0.30197575  1
  S  S27  1  0.26250558  0.98643585  0.69404895  1
  S  S28  1  0.15651347  0.44403607  0.44860509  1
  S  S29  1  0.82347114  0.48739535  0.53874976  1
  S  S30  1  0.43711781  0.55411611  0.80016442  1
  S  S31  1  0.56179278  0.45726190  0.19260731  1
  S  S32  1  0.92077836  0.50566278  0.99281138  1
  S  S33  1  0.07814119  0.49210192  0.01660902  1
  S  S34  1  0.67180149  0.49460080  0.91054521  1
  S  S35  1  0.33025533  0.50786563  0.08379912  1
  S  S36  1  0.59862193  0.94898370  0.67353723  1
  S  S37  1  0.41274493  0.00782729  0.36403085  1
  S  S38  1  0.24276681  0.53901500  0.29538416  1
  S  S39  1  0.76539721  0.46838420  0.71388875  1
  S  S40  1  0.66559850  0.00722597  0.43902668  1
  S  S41  1  0.33119812  0.04086586  0.53842893  1
