# generated using pymatgen
data_Pr2Mn3(SbS3)4
_symmetry_space_group_name_H-M   'P 1'
_cell_length_a   20.02960800
_cell_length_b   3.90410600
_cell_length_c   14.95364829
_cell_angle_alpha   90.00000000
_cell_angle_beta   126.33350609
_cell_angle_gamma   90.00000000
_symmetry_Int_Tables_number   1
_chemical_formula_structural   Pr2Mn3(SbS3)4
_chemical_formula_sum   'Pr4 Mn6 Sb8 S24'
_cell_volume   942.00006694
_cell_formula_units_Z   2
loop_
 _symmetry_equiv_pos_site_id
 _symmetry_equiv_pos_as_xyz
  1  'x, y, z'
loop_
 _atom_site_type_symbol
 _atom_site_label
 _atom_site_symmetry_multiplicity
 _atom_site_fract_x
 _atom_site_fract_y
 _atom_site_fract_z
 _atom_site_occupancy
  Pr  Pr0  1  0.25690685  0.50787271  0.85792502  1
  Pr  Pr1  1  0.73683055  0.49341527  0.13953140  1
  Pr  Pr2  1  0.76559299  0.99077635  0.87199865  1
  Pr  Pr3  1  0.24317851  0.99018990  0.14906369  1
  Mn  Mn4  1  0.28926378  0.50071247  0.59447489  1
  Mn  Mn5  1  0.69014526  0.44961849  0.36771605  1
  Mn  Mn6  1  0.99644828  0.99230176  0.99330831  1
  Mn  Mn7  1  0.80494720  0.96996652  0.60338649  1
  Mn  Mn8  1  0.19471473  0.94757042  0.40503049  1
  Mn  Mn9  1  0.49804624  0.54332413  0.00201199  1
  Sb  Sb10  1  0.90209728  0.98420547  0.45443522  1
  Sb  Sb11  1  0.10799611  0.03434814  0.55273517  1
  Sb  Sb12  1  0.03434578  0.52078043  0.81228446  1
  Sb  Sb13  1  0.96232310  0.51347365  0.18659053  1
  Sb  Sb14  1  0.39090378  0.50228238  0.45145802  1
  Sb  Sb15  1  0.61613784  0.48360668  0.56744508  1
  Sb  Sb16  1  0.53747615  0.03903740  0.81892115  1
  Sb  Sb17  1  0.45533025  0.00543126  0.18765173  1
  S  S18  1  0.94170696  0.97315336  0.80629216  1
  S  S19  1  0.06527279  0.00535361  0.21768888  1
  S  S20  1  0.41088647  0.95517676  0.99051201  1
  S  S21  1  0.58619727  0.01313014  0.01830176  1
  S  S22  1  0.17997014  0.98776759  0.89954950  1
  S  S23  1  0.81891336  0.01906223  0.10063486  1
  S  S24  1  0.09109835  0.52363683  0.65469351  1
  S  S25  1  0.90277123  0.50181584  0.34419580  1
  S  S26  1  0.73373416  0.01313229  0.30263920  1
  S  S27  1  0.26238856  0.98629184  0.69387996  1
  S  S28  1  0.15662741  0.44374117  0.44881957  1
  S  S29  1  0.82327634  0.48636081  0.53841974  1
  S  S30  1  0.43669752  0.55460974  0.80025679  1
  S  S31  1  0.56180058  0.45758124  0.19245496  1
  S  S32  1  0.92085457  0.50574526  0.99270327  1
  S  S33  1  0.07819267  0.49343899  0.01638608  1
  S  S34  1  0.67211344  0.49515533  0.91099492  1
  S  S35  1  0.33024005  0.50544404  0.08368663  1
  S  S36  1  0.59848612  0.94967327  0.67337125  1
  S  S37  1  0.41297536  0.00889870  0.36415670  1
  S  S38  1  0.24289152  0.53908954  0.29566790  1
  S  S39  1  0.76520882  0.46792424  0.71346445  1
  S  S40  1  0.66558330  0.00620321  0.43932571  1
  S  S41  1  0.33113377  0.04110714  0.53842921  1
