# generated using pymatgen
data_Pr2Mn3(SbS3)4
_symmetry_space_group_name_H-M   'P 1'
_cell_length_a   20.02960800
_cell_length_b   3.90410600
_cell_length_c   14.95364829
_cell_angle_alpha   90.00000000
_cell_angle_beta   126.33350609
_cell_angle_gamma   90.00000000
_symmetry_Int_Tables_number   1
_chemical_formula_structural   Pr2Mn3(SbS3)4
_chemical_formula_sum   'Pr4 Mn6 Sb8 S24'
_cell_volume   942.00006694
_cell_formula_units_Z   2
loop_
 _symmetry_equiv_pos_site_id
 _symmetry_equiv_pos_as_xyz
  1  'x, y, z'
loop_
 _atom_site_type_symbol
 _atom_site_label
 _atom_site_symmetry_multiplicity
 _atom_site_fract_x
 _atom_site_fract_y
 _atom_site_fract_z
 _atom_site_occupancy
  Pr  Pr0  1  0.26678700  0.49766636  0.86431394  1
  Pr  Pr1  1  0.73570147  0.51140442  0.13619528  1
  Pr  Pr2  1  0.76337119  0.01200443  0.86092980  1
  Pr  Pr3  1  0.23498425  0.99697516  0.13487183  1
  Mn  Mn4  1  0.28815826  0.48061883  0.58926243  1
  Mn  Mn5  1  0.68573503  0.47092017  0.36724208  1
  Mn  Mn6  1  0.00869392  0.99030217  0.01981396  1
  Mn  Mn7  1  0.80440354  0.01288688  0.61910406  1
  Mn  Mn8  1  0.19802425  0.97784999  0.37301082  1
  Mn  Mn9  1  0.49125117  0.47958808  0.99021905  1
  Sb  Sb10  1  0.88991332  0.98656317  0.45124147  1
  Sb  Sb11  1  0.11190893  0.98128670  0.54517685  1
  Sb  Sb12  1  0.03824857  0.52015777  0.82106092  1
  Sb  Sb13  1  0.96219253  0.50084350  0.18372965  1
  Sb  Sb14  1  0.39490750  0.50379096  0.45067028  1
  Sb  Sb15  1  0.60685022  0.46807091  0.55017260  1
  Sb  Sb16  1  0.53365538  0.99457682  0.80827887  1
  Sb  Sb17  1  0.46531557  0.01900055  0.19058456  1
  S  S18  1  0.93817688  0.00761193  0.80732712  1
  S  S19  1  0.06421870  0.97297182  0.20058682  1
  S  S20  1  0.41731920  0.95693563  0.98179264  1
  S  S21  1  0.57938300  0.03354685  0.01160181  1
  S  S22  1  0.17159431  0.05148065  0.90241100  1
  S  S23  1  0.82826057  0.04900552  0.09841444  1
  S  S24  1  0.09401711  0.48215790  0.64685666  1
  S  S25  1  0.91422492  0.48890106  0.35638465  1
  S  S26  1  0.73671273  0.95416280  0.30044427  1
  S  S27  1  0.26241731  0.00805901  0.70801754  1
  S  S28  1  0.16075108  0.50772804  0.42265878  1
  S  S29  1  0.82327471  0.48828926  0.55079318  1
  S  S30  1  0.42996273  0.49380737  0.79812313  1
  S  S31  1  0.55357355  0.52787557  0.18154088  1
  S  S32  1  0.91194747  0.48870240  0.98761210  1
  S  S33  1  0.09287460  0.49181158  0.03372375  1
  S  S34  1  0.66206215  0.51736585  0.88574954  1
  S  S35  1  0.33174685  0.50508504  0.10127382  1
  S  S36  1  0.59956650  0.99549049  0.65844461  1
  S  S37  1  0.40089303  0.99009278  0.34183649  1
  S  S38  1  0.23897790  0.46724039  0.31064726  1
  S  S39  1  0.76091009  0.50835971  0.69274303  1
  S  S40  1  0.66763154  0.03479813  0.44948054  1
  S  S41  1  0.32960096  0.98168622  0.55606865  1
