# generated using pymatgen
data_Pr2Mn3(SbS3)4
_symmetry_space_group_name_H-M   'P 1'
_cell_length_a   20.02960800
_cell_length_b   3.90410600
_cell_length_c   14.95364829
_cell_angle_alpha   90.00000000
_cell_angle_beta   126.33350609
_cell_angle_gamma   90.00000000
_symmetry_Int_Tables_number   1
_chemical_formula_structural   Pr2Mn3(SbS3)4
_chemical_formula_sum   'Pr4 Mn6 Sb8 S24'
_cell_volume   942.00006694
_cell_formula_units_Z   2
loop_
 _symmetry_equiv_pos_site_id
 _symmetry_equiv_pos_as_xyz
  1  'x, y, z'
loop_
 _atom_site_type_symbol
 _atom_site_label
 _atom_site_symmetry_multiplicity
 _atom_site_fract_x
 _atom_site_fract_y
 _atom_site_fract_z
 _atom_site_occupancy
  Pr  Pr0  1  0.25697347  0.50803215  0.85776164  1
  Pr  Pr1  1  0.73691987  0.49371998  0.13984491  1
  Pr  Pr2  1  0.76553065  0.99072798  0.87201944  1
  Pr  Pr3  1  0.24313574  0.99028963  0.14915254  1
  Mn  Mn4  1  0.28930515  0.50031913  0.59423462  1
  Mn  Mn5  1  0.69029531  0.44926363  0.36778209  1
  Mn  Mn6  1  0.99644978  0.99162055  0.99327006  1
  Mn  Mn7  1  0.80464936  0.96910172  0.60318615  1
  Mn  Mn8  1  0.19476796  0.94718549  0.40514933  1
  Mn  Mn9  1  0.49789907  0.54302669  0.00187749  1
  Sb  Sb10  1  0.90186599  0.98412206  0.45427241  1
  Sb  Sb11  1  0.10806009  0.03524575  0.55287251  1
  Sb  Sb12  1  0.03431016  0.52180391  0.81231481  1
  Sb  Sb13  1  0.96254275  0.51266823  0.18689520  1
  Sb  Sb14  1  0.39115383  0.50221478  0.45179238  1
  Sb  Sb15  1  0.61623797  0.48358655  0.56755514  1
  Sb  Sb16  1  0.53765156  0.03947774  0.81879601  1
  Sb  Sb17  1  0.45504646  0.00530660  0.18729584  1
  S  S18  1  0.94130947  0.97230152  0.80577490  1
  S  S19  1  0.06486655  0.00233912  0.21741892  1
  S  S20  1  0.41060034  0.95565687  0.99041817  1
  S  S21  1  0.58602567  0.01494488  0.01834323  1
  S  S22  1  0.17997195  0.98758387  0.89995740  1
  S  S23  1  0.81890381  0.01934901  0.10054919  1
  S  S24  1  0.09132278  0.52213158  0.65487390  1
  S  S25  1  0.90247693  0.50157233  0.34417194  1
  S  S26  1  0.73390596  0.01341441  0.30327660  1
  S  S27  1  0.26226888  0.98636494  0.69358132  1
  S  S28  1  0.15685322  0.44307635  0.44909460  1
  S  S29  1  0.82311505  0.48566798  0.53817258  1
  S  S30  1  0.43645937  0.55512803  0.80048527  1
  S  S31  1  0.56189079  0.45819104  0.19244782  1
  S  S32  1  0.92099977  0.50586564  0.99265811  1
  S  S33  1  0.07814468  0.49439704  0.01593699  1
  S  S34  1  0.67244496  0.49477072  0.91137650  1
  S  S35  1  0.33021647  0.50327078  0.08380681  1
  S  S36  1  0.59842710  0.95126166  0.67343001  1
  S  S37  1  0.41314602  0.00991977  0.36423131  1
  S  S38  1  0.24283329  0.53882977  0.29588388  1
  S  S39  1  0.76497184  0.46767411  0.71300935  1
  S  S40  1  0.66563733  0.00538757  0.43963116  1
  S  S41  1  0.33116306  0.04081422  0.53854113  1
