# generated using pymatgen
data_Pr2Mn3(SbS3)4
_symmetry_space_group_name_H-M   'P 1'
_cell_length_a   20.02960800
_cell_length_b   3.90410600
_cell_length_c   14.95364829
_cell_angle_alpha   90.00000000
_cell_angle_beta   126.33350609
_cell_angle_gamma   90.00000000
_symmetry_Int_Tables_number   1
_chemical_formula_structural   Pr2Mn3(SbS3)4
_chemical_formula_sum   'Pr4 Mn6 Sb8 S24'
_cell_volume   942.00006694
_cell_formula_units_Z   2
loop_
 _symmetry_equiv_pos_site_id
 _symmetry_equiv_pos_as_xyz
  1  'x, y, z'
loop_
 _atom_site_type_symbol
 _atom_site_label
 _atom_site_symmetry_multiplicity
 _atom_site_fract_x
 _atom_site_fract_y
 _atom_site_fract_z
 _atom_site_occupancy
  Pr  Pr0  1  0.25703620  0.50797128  0.85758579  1
  Pr  Pr1  1  0.73701721  0.49420156  0.14013420  1
  Pr  Pr2  1  0.76548150  0.99066832  0.87216531  1
  Pr  Pr3  1  0.24308508  0.99060838  0.14917908  1
  Mn  Mn4  1  0.28929870  0.50041189  0.59414451  1
  Mn  Mn5  1  0.69042161  0.44900929  0.36779496  1
  Mn  Mn6  1  0.99637989  0.99080925  0.99318548  1
  Mn  Mn7  1  0.80443062  0.96772419  0.60310659  1
  Mn  Mn8  1  0.19476304  0.94708694  0.40514399  1
  Mn  Mn9  1  0.49783271  0.54309435  0.00187228  1
  Sb  Sb10  1  0.90163684  0.98409972  0.45416252  1
  Sb  Sb11  1  0.10808358  0.03623134  0.55293193  1
  Sb  Sb12  1  0.03420661  0.52290488  0.81226699  1
  Sb  Sb13  1  0.96277185  0.51204985  0.18719247  1
  Sb  Sb14  1  0.39133159  0.50214732  0.45202370  1
  Sb  Sb15  1  0.61632896  0.48358947  0.56765126  1
  Sb  Sb16  1  0.53778664  0.03988102  0.81864808  1
  Sb  Sb17  1  0.45479380  0.00537993  0.18690943  1
  S  S18  1  0.94085987  0.97215917  0.80522725  1
  S  S19  1  0.06459911  0.99891254  0.21720389  1
  S  S20  1  0.41049726  0.95652141  0.99030214  1
  S  S21  1  0.58592287  0.01644754  0.01841054  1
  S  S22  1  0.18005329  0.98717450  0.90036072  1
  S  S23  1  0.81887785  0.01968158  0.10045782  1
  S  S24  1  0.09148302  0.52119620  0.65512222  1
  S  S25  1  0.90231001  0.50136309  0.34410594  1
  S  S26  1  0.73385953  0.01380179  0.30370214  1
  S  S27  1  0.26214459  0.98602032  0.69329053  1
  S  S28  1  0.15708142  0.44316082  0.44949516  1
  S  S29  1  0.82289411  0.48551974  0.53794261  1
  S  S30  1  0.43620926  0.55567361  0.80047472  1
  S  S31  1  0.56190700  0.45875830  0.19259292  1
  S  S32  1  0.92122047  0.50583085  0.99283369  1
  S  S33  1  0.07797983  0.49490853  0.01543268  1
  S  S34  1  0.67269647  0.49450060  0.91179181  1
  S  S35  1  0.33029896  0.50139403  0.08397690  1
  S  S36  1  0.59817807  0.95211222  0.67321721  1
  S  S37  1  0.41329203  0.00982865  0.36441239  1
  S  S38  1  0.24289334  0.53818801  0.29609557  1
  S  S39  1  0.76465674  0.46770589  0.71263917  1
  S  S40  1  0.66572422  0.00435736  0.43982571  1
  S  S41  1  0.33127515  0.04017586  0.53871670  1
