# generated using pymatgen
data_Pr2Mn3(SbS3)4
_symmetry_space_group_name_H-M   'P 1'
_cell_length_a   20.02960800
_cell_length_b   3.90410600
_cell_length_c   14.95364829
_cell_angle_alpha   90.00000000
_cell_angle_beta   126.33350609
_cell_angle_gamma   90.00000000
_symmetry_Int_Tables_number   1
_chemical_formula_structural   Pr2Mn3(SbS3)4
_chemical_formula_sum   'Pr4 Mn6 Sb8 S24'
_cell_volume   942.00006694
_cell_formula_units_Z   2
loop_
 _symmetry_equiv_pos_site_id
 _symmetry_equiv_pos_as_xyz
  1  'x, y, z'
loop_
 _atom_site_type_symbol
 _atom_site_label
 _atom_site_symmetry_multiplicity
 _atom_site_fract_x
 _atom_site_fract_y
 _atom_site_fract_z
 _atom_site_occupancy
  Pr  Pr0  1  0.25713918  0.50781184  0.85747315  1
  Pr  Pr1  1  0.73710835  0.49484853  0.14040698  1
  Pr  Pr2  1  0.76545628  0.99039355  0.87231265  1
  Pr  Pr3  1  0.24304705  0.99079949  0.14922241  1
  Mn  Mn4  1  0.28929170  0.50057199  0.59408398  1
  Mn  Mn5  1  0.69044243  0.44878484  0.36783607  1
  Mn  Mn6  1  0.99630751  0.98978921  0.99305752  1
  Mn  Mn7  1  0.80421519  0.96649209  0.60296294  1
  Mn  Mn8  1  0.19479412  0.94706117  0.40514933  1
  Mn  Mn9  1  0.49776189  0.54269565  0.00199305  1
  Sb  Sb10  1  0.90143306  0.98392240  0.45403867  1
  Sb  Sb11  1  0.10804825  0.03670598  0.55291927  1
  Sb  Sb12  1  0.03404836  0.52385373  0.81221722  1
  Sb  Sb13  1  0.96298687  0.51173059  0.18742041  1
  Sb  Sb14  1  0.39147700  0.50180921  0.45222198  1
  Sb  Sb15  1  0.61656948  0.48401228  0.56790366  1
  Sb  Sb16  1  0.53802395  0.03991297  0.81857150  1
  Sb  Sb17  1  0.45460709  0.00517428  0.18657467  1
  S  S18  1  0.94033468  0.97219008  0.80461857  1
  S  S19  1  0.06425284  0.99523039  0.21696005  1
  S  S20  1  0.41028298  0.95788609  0.99015643  1
  S  S21  1  0.58580919  0.01796682  0.01846356  1
  S  S22  1  0.18016866  0.98664430  0.90075961  1
  S  S23  1  0.81903294  0.01970137  0.10069756  1
  S  S24  1  0.09172566  0.52006658  0.65554245  1
  S  S25  1  0.90198778  0.50109728  0.34399681  1
  S  S26  1  0.73377208  0.01426022  0.30414356  1
  S  S27  1  0.26204888  0.98564731  0.69294946  1
  S  S28  1  0.15741147  0.44278608  0.44988886  1
  S  S29  1  0.82278589  0.48567320  0.53774945  1
  S  S30  1  0.43584786  0.55557136  0.80025653  1
  S  S31  1  0.56195316  0.45928114  0.19274582  1
  S  S32  1  0.92150032  0.50625533  0.99319305  1
  S  S33  1  0.07782832  0.49522544  0.01486156  1
  S  S34  1  0.67294155  0.49405727  0.91204173  1
  S  S35  1  0.33037509  0.49936953  0.08425736  1
  S  S36  1  0.59785997  0.95313196  0.67281712  1
  S  S37  1  0.41344414  0.00969080  0.36457115  1
  S  S38  1  0.24314288  0.53840915  0.29664546  1
  S  S39  1  0.76445344  0.46709199  0.71260916  1
  S  S40  1  0.66584899  0.00335791  0.43981529  1
  S  S41  1  0.33129357  0.03967055  0.53877362  1
