# generated using pymatgen
data_Pr2Mn3(SbS3)4
_symmetry_space_group_name_H-M   'P 1'
_cell_length_a   20.02960800
_cell_length_b   3.90410600
_cell_length_c   14.95364829
_cell_angle_alpha   90.00000000
_cell_angle_beta   126.33350609
_cell_angle_gamma   90.00000000
_symmetry_Int_Tables_number   1
_chemical_formula_structural   Pr2Mn3(SbS3)4
_chemical_formula_sum   'Pr4 Mn6 Sb8 S24'
_cell_volume   942.00006694
_cell_formula_units_Z   2
loop_
 _symmetry_equiv_pos_site_id
 _symmetry_equiv_pos_as_xyz
  1  'x, y, z'
loop_
 _atom_site_type_symbol
 _atom_site_label
 _atom_site_symmetry_multiplicity
 _atom_site_fract_x
 _atom_site_fract_y
 _atom_site_fract_z
 _atom_site_occupancy
  Pr  Pr0  1  0.25728154  0.50754755  0.85740633  1
  Pr  Pr1  1  0.73716715  0.49536888  0.14074126  1
  Pr  Pr2  1  0.76544150  0.99002075  0.87243302  1
  Pr  Pr3  1  0.24301291  0.99079895  0.14919923  1
  Mn  Mn4  1  0.28939756  0.50085313  0.59398401  1
  Mn  Mn5  1  0.69047852  0.44836698  0.36787796  1
  Mn  Mn6  1  0.99617432  0.98851700  0.99297411  1
  Mn  Mn7  1  0.80406229  0.96529778  0.60287350  1
  Mn  Mn8  1  0.19497518  0.94737481  0.40519815  1
  Mn  Mn9  1  0.49778188  0.54248936  0.00216780  1
  Sb  Sb10  1  0.90136017  0.98369023  0.45402149  1
  Sb  Sb11  1  0.10795824  0.03736669  0.55292332  1
  Sb  Sb12  1  0.03392684  0.52486015  0.81220288  1
  Sb  Sb13  1  0.96314698  0.51147032  0.18757749  1
  Sb  Sb14  1  0.39168192  0.50148549  0.45235130  1
  Sb  Sb15  1  0.61668305  0.48452244  0.56809792  1
  Sb  Sb16  1  0.53822912  0.04006074  0.81851592  1
  Sb  Sb17  1  0.45446212  0.00483666  0.18629457  1
  S  S18  1  0.93976181  0.97199759  0.80382747  1
  S  S19  1  0.06412116  0.99147339  0.21668831  1
  S  S20  1  0.41028000  0.95916595  0.99032698  1
  S  S21  1  0.58579612  0.01886975  0.01866337  1
  S  S22  1  0.18026874  0.98597581  0.90128965  1
  S  S23  1  0.81904185  0.01939215  0.10085347  1
  S  S24  1  0.09199945  0.51863618  0.65604347  1
  S  S25  1  0.90167012  0.50039642  0.34384704  1
  S  S26  1  0.73369213  0.01603291  0.30467522  1
  S  S27  1  0.26183571  0.98491646  0.69259585  1
  S  S28  1  0.15780064  0.44216559  0.45014276  1
  S  S29  1  0.82253749  0.48545211  0.53751665  1
  S  S30  1  0.43559455  0.55619003  0.79999498  1
  S  S31  1  0.56177657  0.46011175  0.19267343  1
  S  S32  1  0.92183414  0.50591029  0.99372749  1
  S  S33  1  0.07773232  0.49597105  0.01432048  1
  S  S34  1  0.67287479  0.49362900  0.91206397  1
  S  S35  1  0.33033298  0.49751980  0.08442611  1
  S  S36  1  0.59773879  0.95359919  0.67263609  1
  S  S37  1  0.41351350  0.00932358  0.36468328  1
  S  S38  1  0.24312682  0.53790553  0.29702243  1
  S  S39  1  0.76433779  0.46647526  0.71263648  1
  S  S40  1  0.66600907  0.00238569  0.43965269  1
  S  S41  1  0.33126598  0.03878689  0.53900955  1
