# generated using pymatgen
data_Pr2Mn3(SbS3)4
_symmetry_space_group_name_H-M   'P 1'
_cell_length_a   20.02960800
_cell_length_b   3.90410600
_cell_length_c   14.95364829
_cell_angle_alpha   90.00000000
_cell_angle_beta   126.33350609
_cell_angle_gamma   90.00000000
_symmetry_Int_Tables_number   1
_chemical_formula_structural   Pr2Mn3(SbS3)4
_chemical_formula_sum   'Pr4 Mn6 Sb8 S24'
_cell_volume   942.00006694
_cell_formula_units_Z   2
loop_
 _symmetry_equiv_pos_site_id
 _symmetry_equiv_pos_as_xyz
  1  'x, y, z'
loop_
 _atom_site_type_symbol
 _atom_site_label
 _atom_site_symmetry_multiplicity
 _atom_site_fract_x
 _atom_site_fract_y
 _atom_site_fract_z
 _atom_site_occupancy
  Pr  Pr0  1  0.25743443  0.50746583  0.85728660  1
  Pr  Pr1  1  0.73718927  0.49631172  0.14101208  1
  Pr  Pr2  1  0.76547192  0.98967663  0.87253750  1
  Pr  Pr3  1  0.24290890  0.99086089  0.14919149  1
  Mn  Mn4  1  0.28941896  0.50127059  0.59368478  1
  Mn  Mn5  1  0.69049879  0.44777480  0.36801219  1
  Mn  Mn6  1  0.99602775  0.98720993  0.99298029  1
  Mn  Mn7  1  0.80387891  0.96432385  0.60268914  1
  Mn  Mn8  1  0.19503657  0.94740158  0.40521663  1
  Mn  Mn9  1  0.49782106  0.54221712  0.00236403  1
  Sb  Sb10  1  0.90135208  0.98367000  0.45413574  1
  Sb  Sb11  1  0.10774256  0.03801244  0.55285188  1
  Sb  Sb12  1  0.03378444  0.52592577  0.81213383  1
  Sb  Sb13  1  0.96325824  0.51092590  0.18771777  1
  Sb  Sb14  1  0.39185706  0.50127096  0.45249237  1
  Sb  Sb15  1  0.61681745  0.48483955  0.56820755  1
  Sb  Sb16  1  0.53839498  0.04008191  0.81851616  1
  Sb  Sb17  1  0.45433489  0.00455547  0.18609500  1
  S  S18  1  0.93922588  0.97151029  0.80301902  1
  S  S19  1  0.06389396  0.98842827  0.21630842  1
  S  S20  1  0.41040866  0.96022859  0.99042472  1
  S  S21  1  0.58572559  0.01948547  0.01871359  1
  S  S22  1  0.18019249  0.98533095  0.90174221  1
  S  S23  1  0.81901991  0.01957881  0.10116723  1
  S  S24  1  0.09222037  0.51813587  0.65651885  1
  S  S25  1  0.90137170  0.49999756  0.34369508  1
  S  S26  1  0.73362062  0.01759546  0.30494883  1
  S  S27  1  0.26155472  0.98425620  0.69205220  1
  S  S28  1  0.15814742  0.44143114  0.45038536  1
  S  S29  1  0.82225049  0.48527515  0.53724603  1
  S  S30  1  0.43553785  0.55686782  0.79999611  1
  S  S31  1  0.56168430  0.46060085  0.19272780  1
  S  S32  1  0.92220649  0.50470682  0.99416761  1
  S  S33  1  0.07763440  0.49724002  0.01378737  1
  S  S34  1  0.67293331  0.49401517  0.91205192  1
  S  S35  1  0.33025568  0.49614652  0.08449649  1
  S  S36  1  0.59769332  0.95459013  0.67268464  1
  S  S37  1  0.41365188  0.00820555  0.36485479  1
  S  S38  1  0.24303053  0.53731827  0.29727879  1
  S  S39  1  0.76417372  0.46602294  0.71263416  1
  S  S40  1  0.66609069  0.00188550  0.43940985  1
  S  S41  1  0.33100687  0.03716082  0.53906378  1
