# generated using pymatgen
data_Pr2Mn3(SbS3)4
_symmetry_space_group_name_H-M   'P 1'
_cell_length_a   20.02960800
_cell_length_b   3.90410600
_cell_length_c   14.95364829
_cell_angle_alpha   90.00000000
_cell_angle_beta   126.33350609
_cell_angle_gamma   90.00000000
_symmetry_Int_Tables_number   1
_chemical_formula_structural   Pr2Mn3(SbS3)4
_chemical_formula_sum   'Pr4 Mn6 Sb8 S24'
_cell_volume   942.00006694
_cell_formula_units_Z   2
loop_
 _symmetry_equiv_pos_site_id
 _symmetry_equiv_pos_as_xyz
  1  'x, y, z'
loop_
 _atom_site_type_symbol
 _atom_site_label
 _atom_site_symmetry_multiplicity
 _atom_site_fract_x
 _atom_site_fract_y
 _atom_site_fract_z
 _atom_site_occupancy
  Pr  Pr0  1  0.25756897  0.50754933  0.85715118  1
  Pr  Pr1  1  0.73715868  0.49713978  0.14114531  1
  Pr  Pr2  1  0.76546307  0.98914233  0.87260654  1
  Pr  Pr3  1  0.24281012  0.99088844  0.14923367  1
  Mn  Mn4  1  0.28961316  0.50156069  0.59348782  1
  Mn  Mn5  1  0.69067707  0.44734450  0.36845075  1
  Mn  Mn6  1  0.99595364  0.98579838  0.99300941  1
  Mn  Mn7  1  0.80354197  0.96327544  0.60238450  1
  Mn  Mn8  1  0.19510501  0.94739428  0.40526612  1
  Mn  Mn9  1  0.49784574  0.54205616  0.00243004  1
  Sb  Sb10  1  0.90135095  0.98370796  0.45435103  1
  Sb  Sb11  1  0.10749697  0.03868654  0.55281411  1
  Sb  Sb12  1  0.03365883  0.52657469  0.81220420  1
  Sb  Sb13  1  0.96331953  0.51030356  0.18792519  1
  Sb  Sb14  1  0.39198655  0.50088151  0.45262980  1
  Sb  Sb15  1  0.61708053  0.48519515  0.56845182  1
  Sb  Sb16  1  0.53842883  0.03992469  0.81837920  1
  Sb  Sb17  1  0.45423401  0.00416261  0.18593570  1
  S  S18  1  0.93874450  0.97102863  0.80215638  1
  S  S19  1  0.06360700  0.98580806  0.21582677  1
  S  S20  1  0.41067586  0.96085900  0.99059886  1
  S  S21  1  0.58551540  0.02025491  0.01856020  1
  S  S22  1  0.18012738  0.98449101  0.90203282  1
  S  S23  1  0.81900801  0.01973357  0.10149752  1
  S  S24  1  0.09230369  0.51806087  0.65682616  1
  S  S25  1  0.90111645  0.49904215  0.34351239  1
  S  S26  1  0.73342323  0.01873520  0.30510473  1
  S  S27  1  0.26127209  0.98364487  0.69150925  1
  S  S28  1  0.15838003  0.44099514  0.45056940  1
  S  S29  1  0.82209869  0.48548014  0.53720938  1
  S  S30  1  0.43544939  0.55773470  0.80002734  1
  S  S31  1  0.56163196  0.46017992  0.19292381  1
  S  S32  1  0.92246621  0.50360356  0.99444227  1
  S  S33  1  0.07757186  0.49881186  0.01336131  1
  S  S34  1  0.67292857  0.49340844  0.91182833  1
  S  S35  1  0.33003826  0.49542699  0.08452652  1
  S  S36  1  0.59754245  0.95478326  0.67262867  1
  S  S37  1  0.41379760  0.00690055  0.36492561  1
  S  S38  1  0.24293527  0.53675783  0.29731538  1
  S  S39  1  0.76409656  0.46525205  0.71270802  1
  S  S40  1  0.66614997  0.00154831  0.43908328  1
  S  S41  1  0.33075606  0.03581496  0.53896929  1
