# generated using pymatgen
data_Pr2Mn3(SbS3)4
_symmetry_space_group_name_H-M   'P 1'
_cell_length_a   20.02960800
_cell_length_b   3.90410600
_cell_length_c   14.95364829
_cell_angle_alpha   90.00000000
_cell_angle_beta   126.33350609
_cell_angle_gamma   90.00000000
_symmetry_Int_Tables_number   1
_chemical_formula_structural   Pr2Mn3(SbS3)4
_chemical_formula_sum   'Pr4 Mn6 Sb8 S24'
_cell_volume   942.00006694
_cell_formula_units_Z   2
loop_
 _symmetry_equiv_pos_site_id
 _symmetry_equiv_pos_as_xyz
  1  'x, y, z'
loop_
 _atom_site_type_symbol
 _atom_site_label
 _atom_site_symmetry_multiplicity
 _atom_site_fract_x
 _atom_site_fract_y
 _atom_site_fract_z
 _atom_site_occupancy
  Pr  Pr0  1  0.25767220  0.50755243  0.85700854  1
  Pr  Pr1  1  0.73714555  0.49817432  0.14135456  1
  Pr  Pr2  1  0.76543596  0.98887897  0.87253040  1
  Pr  Pr3  1  0.24270078  0.99088741  0.14919563  1
  Mn  Mn4  1  0.28973015  0.50191871  0.59338897  1
  Mn  Mn5  1  0.69091092  0.44716924  0.36876588  1
  Mn  Mn6  1  0.99597046  0.98501044  0.99310243  1
  Mn  Mn7  1  0.80308377  0.96191336  0.60198124  1
  Mn  Mn8  1  0.19519230  0.94781611  0.40527097  1
  Mn  Mn9  1  0.49775330  0.54198701  0.00244105  1
  Sb  Sb10  1  0.90128360  0.98375551  0.45451546  1
  Sb  Sb11  1  0.10723879  0.03912018  0.55275465  1
  Sb  Sb12  1  0.03352905  0.52728327  0.81224427  1
  Sb  Sb13  1  0.96334826  0.50980599  0.18808547  1
  Sb  Sb14  1  0.39203940  0.50068482  0.45268270  1
  Sb  Sb15  1  0.61744402  0.48538823  0.56883531  1
  Sb  Sb16  1  0.53843639  0.03989097  0.81826798  1
  Sb  Sb17  1  0.45418236  0.00386160  0.18581565  1
  S  S18  1  0.93840961  0.97064225  0.80160211  1
  S  S19  1  0.06342674  0.98350634  0.21550204  1
  S  S20  1  0.41097056  0.96185597  0.99083423  1
  S  S21  1  0.58534841  0.02092339  0.01856498  1
  S  S22  1  0.18004288  0.98397655  0.90230227  1
  S  S23  1  0.81906144  0.01967717  0.10173625  1
  S  S24  1  0.09239618  0.51807432  0.65708604  1
  S  S25  1  0.90082520  0.49839388  0.34313458  1
  S  S26  1  0.73337388  0.02002714  0.30532446  1
  S  S27  1  0.26101019  0.98322646  0.69107229  1
  S  S28  1  0.15850678  0.44075990  0.45058561  1
  S  S29  1  0.82194251  0.48639425  0.53718156  1
  S  S30  1  0.43525257  0.55838313  0.79998207  1
  S  S31  1  0.56154317  0.45907552  0.19313408  1
  S  S32  1  0.92269678  0.50217368  0.99442918  1
  S  S33  1  0.07771782  0.50008137  0.01300681  1
  S  S34  1  0.67291722  0.49279187  0.91145430  1
  S  S35  1  0.32982318  0.49477390  0.08461579  1
  S  S36  1  0.59731264  0.95459724  0.67253503  1
  S  S37  1  0.41378184  0.00555914  0.36491967  1
  S  S38  1  0.24274354  0.53612778  0.29744228  1
  S  S39  1  0.76413693  0.46427501  0.71290154  1
  S  S40  1  0.66632247  0.00160989  0.43876761  1
  S  S41  1  0.33034714  0.03505417  0.53871889  1
