# generated using pymatgen
data_Pr2Mn3(SbS3)4
_symmetry_space_group_name_H-M   'P 1'
_cell_length_a   20.02960800
_cell_length_b   3.90410600
_cell_length_c   14.95364829
_cell_angle_alpha   90.00000000
_cell_angle_beta   126.33350609
_cell_angle_gamma   90.00000000
_symmetry_Int_Tables_number   1
_chemical_formula_structural   Pr2Mn3(SbS3)4
_chemical_formula_sum   'Pr4 Mn6 Sb8 S24'
_cell_volume   942.00006694
_cell_formula_units_Z   2
loop_
 _symmetry_equiv_pos_site_id
 _symmetry_equiv_pos_as_xyz
  1  'x, y, z'
loop_
 _atom_site_type_symbol
 _atom_site_label
 _atom_site_symmetry_multiplicity
 _atom_site_fract_x
 _atom_site_fract_y
 _atom_site_fract_z
 _atom_site_occupancy
  Pr  Pr0  1  0.25780272  0.50761941  0.85691967  1
  Pr  Pr1  1  0.73713882  0.49933969  0.14161617  1
  Pr  Pr2  1  0.76541075  0.98857042  0.87244309  1
  Pr  Pr3  1  0.24263818  0.99118356  0.14917330  1
  Mn  Mn4  1  0.28994889  0.50247886  0.59352366  1
  Mn  Mn5  1  0.69109231  0.44706672  0.36912076  1
  Mn  Mn6  1  0.99602546  0.98423555  0.99328040  1
  Mn  Mn7  1  0.80253572  0.96075844  0.60139667  1
  Mn  Mn8  1  0.19535039  0.94854273  0.40537483  1
  Mn  Mn9  1  0.49769758  0.54179131  0.00250382  1
  Sb  Sb10  1  0.90114453  0.98379496  0.45460401  1
  Sb  Sb11  1  0.10700988  0.03978147  0.55273623  1
  Sb  Sb12  1  0.03344094  0.52777557  0.81227420  1
  Sb  Sb13  1  0.96332203  0.50920491  0.18821087  1
  Sb  Sb14  1  0.39197798  0.50028207  0.45261733  1
  Sb  Sb15  1  0.61782248  0.48536719  0.56930444  1
  Sb  Sb16  1  0.53848593  0.04022346  0.81824092  1
  Sb  Sb17  1  0.45415836  0.00372263  0.18568894  1
  S  S18  1  0.93807457  0.97132347  0.80121939  1
  S  S19  1  0.06313080  0.98171502  0.21517357  1
  S  S20  1  0.41112852  0.96249670  0.99091667  1
  S  S21  1  0.58520436  0.02161170  0.01867256  1
  S  S22  1  0.17985726  0.98353752  0.90277108  1
  S  S23  1  0.81911707  0.01982546  0.10221782  1
  S  S24  1  0.09241661  0.51801783  0.65720968  1
  S  S25  1  0.90050315  0.49811577  0.34271011  1
  S  S26  1  0.73339535  0.02111287  0.30550035  1
  S  S27  1  0.26074793  0.98228052  0.69085361  1
  S  S28  1  0.15852650  0.43989939  0.45059246  1
  S  S29  1  0.82188605  0.48743689  0.53728200  1
  S  S30  1  0.43507377  0.55898752  0.79990467  1
  S  S31  1  0.56150965  0.45960544  0.19309695  1
  S  S32  1  0.92283396  0.50055845  0.99442686  1
  S  S33  1  0.07789275  0.50118265  0.01264744  1
  S  S34  1  0.67295495  0.49121901  0.91133869  1
  S  S35  1  0.32968293  0.49497573  0.08480007  1
  S  S36  1  0.59715336  0.95449916  0.67256544  1
  S  S37  1  0.41380300  0.00449037  0.36494975  1
  S  S38  1  0.24269199  0.53537438  0.29775265  1
  S  S39  1  0.76422187  0.46288278  0.71295010  1
  S  S40  1  0.66651183  0.00122982  0.43859922  1
  S  S41  1  0.33001459  0.03447110  0.53858299  1
