# generated using pymatgen
data_Pr2Mn3(SbS3)4
_symmetry_space_group_name_H-M   'P 1'
_cell_length_a   20.02960800
_cell_length_b   3.90410600
_cell_length_c   14.95364829
_cell_angle_alpha   90.00000000
_cell_angle_beta   126.33350609
_cell_angle_gamma   90.00000000
_symmetry_Int_Tables_number   1
_chemical_formula_structural   Pr2Mn3(SbS3)4
_chemical_formula_sum   'Pr4 Mn6 Sb8 S24'
_cell_volume   942.00006694
_cell_formula_units_Z   2
loop_
 _symmetry_equiv_pos_site_id
 _symmetry_equiv_pos_as_xyz
  1  'x, y, z'
loop_
 _atom_site_type_symbol
 _atom_site_label
 _atom_site_symmetry_multiplicity
 _atom_site_fract_x
 _atom_site_fract_y
 _atom_site_fract_z
 _atom_site_occupancy
  Pr  Pr0  1  0.25796433  0.50753407  0.85687462  1
  Pr  Pr1  1  0.73711393  0.50020044  0.14186481  1
  Pr  Pr2  1  0.76533130  0.98829845  0.87236276  1
  Pr  Pr3  1  0.24263235  0.99163318  0.14917470  1
  Mn  Mn4  1  0.29013328  0.50254258  0.59346921  1
  Mn  Mn5  1  0.69125949  0.44690742  0.36945301  1
  Mn  Mn6  1  0.99610915  0.98368926  0.99343232  1
  Mn  Mn7  1  0.80209626  0.95974231  0.60087207  1
  Mn  Mn8  1  0.19548130  0.94881237  0.40551373  1
  Mn  Mn9  1  0.49766584  0.54142224  0.00253528  1
  Sb  Sb10  1  0.90101002  0.98417749  0.45469293  1
  Sb  Sb11  1  0.10683486  0.04037984  0.55273569  1
  Sb  Sb12  1  0.03325730  0.52845268  0.81225749  1
  Sb  Sb13  1  0.96327887  0.50862045  0.18832969  1
  Sb  Sb14  1  0.39196257  0.49990256  0.45264649  1
  Sb  Sb15  1  0.61811593  0.48562368  0.56975646  1
  Sb  Sb16  1  0.53864236  0.04035991  0.81837062  1
  Sb  Sb17  1  0.45412265  0.00378882  0.18554784  1
  S  S18  1  0.93784739  0.97198208  0.80097012  1
  S  S19  1  0.06304275  0.98017367  0.21496764  1
  S  S20  1  0.41121613  0.96330118  0.99086228  1
  S  S21  1  0.58495834  0.02233547  0.01866805  1
  S  S22  1  0.17976742  0.98336188  0.90329152  1
  S  S23  1  0.81922535  0.02013888  0.10254590  1
  S  S24  1  0.09253076  0.51707459  0.65739473  1
  S  S25  1  0.90008519  0.49754326  0.34218160  1
  S  S26  1  0.73340333  0.02235110  0.30570940  1
  S  S27  1  0.26046874  0.98089078  0.69062380  1
  S  S28  1  0.15856260  0.43912081  0.45055353  1
  S  S29  1  0.82184983  0.48869791  0.53735341  1
  S  S30  1  0.43478283  0.55908297  0.79971393  1
  S  S31  1  0.56157769  0.45999147  0.19298573  1
  S  S32  1  0.92283692  0.49882184  0.99428050  1
  S  S33  1  0.07796373  0.50205496  0.01234736  1
  S  S34  1  0.67289609  0.48926180  0.91119578  1
  S  S35  1  0.32960446  0.49560807  0.08517380  1
  S  S36  1  0.59692868  0.95456778  0.67246207  1
  S  S37  1  0.41390129  0.00392669  0.36511361  1
  S  S38  1  0.24250090  0.53514307  0.29790114  1
  S  S39  1  0.76424554  0.46151804  0.71294808  1
  S  S40  1  0.66648697  0.00038073  0.43837462  1
  S  S41  1  0.32980136  0.03365504  0.53850203  1
