# generated using pymatgen
data_Pr2Mn3(SbS3)4
_symmetry_space_group_name_H-M   'P 1'
_cell_length_a   20.02960800
_cell_length_b   3.90410600
_cell_length_c   14.95364829
_cell_angle_alpha   90.00000000
_cell_angle_beta   126.33350609
_cell_angle_gamma   90.00000000
_symmetry_Int_Tables_number   1
_chemical_formula_structural   Pr2Mn3(SbS3)4
_chemical_formula_sum   'Pr4 Mn6 Sb8 S24'
_cell_volume   942.00006694
_cell_formula_units_Z   2
loop_
 _symmetry_equiv_pos_site_id
 _symmetry_equiv_pos_as_xyz
  1  'x, y, z'
loop_
 _atom_site_type_symbol
 _atom_site_label
 _atom_site_symmetry_multiplicity
 _atom_site_fract_x
 _atom_site_fract_y
 _atom_site_fract_z
 _atom_site_occupancy
  Pr  Pr0  1  0.25813150  0.50770169  0.85684315  1
  Pr  Pr1  1  0.73703349  0.50074680  0.14194128  1
  Pr  Pr2  1  0.76525135  0.98825857  0.87222001  1
  Pr  Pr3  1  0.24268379  0.99193904  0.14918907  1
  Mn  Mn4  1  0.29021889  0.50224491  0.59337369  1
  Mn  Mn5  1  0.69135480  0.44708658  0.36985547  1
  Mn  Mn6  1  0.99616528  0.98306025  0.99356364  1
  Mn  Mn7  1  0.80171676  0.95878354  0.60026759  1
  Mn  Mn8  1  0.19567599  0.94918047  0.40564480  1
  Mn  Mn9  1  0.49752029  0.54098010  0.00250499  1
  Sb  Sb10  1  0.90088893  0.98423491  0.45472470  1
  Sb  Sb11  1  0.10668834  0.04108253  0.55278423  1
  Sb  Sb12  1  0.03309642  0.52894901  0.81215333  1
  Sb  Sb13  1  0.96328717  0.50821645  0.18854524  1
  Sb  Sb14  1  0.39192978  0.49970247  0.45267426  1
  Sb  Sb15  1  0.61842054  0.48578700  0.57027473  1
  Sb  Sb16  1  0.53877512  0.04059701  0.81847086  1
  Sb  Sb17  1  0.45399543  0.00356343  0.18530554  1
  S  S18  1  0.93766290  0.97291192  0.80086947  1
  S  S19  1  0.06300105  0.97879425  0.21480051  1
  S  S20  1  0.41138172  0.96392098  0.99097142  1
  S  S21  1  0.58460096  0.02326231  0.01857710  1
  S  S22  1  0.17957915  0.98353387  0.90363121  1
  S  S23  1  0.81942520  0.02032457  0.10293019  1
  S  S24  1  0.09261374  0.51589419  0.65750739  1
  S  S25  1  0.89970170  0.49680888  0.34171763  1
  S  S26  1  0.73346548  0.02364909  0.30595071  1
  S  S27  1  0.26017876  0.97966425  0.69042092  1
  S  S28  1  0.15862386  0.43845990  0.45076393  1
  S  S29  1  0.82193447  0.49004123  0.53772762  1
  S  S30  1  0.43459548  0.55949168  0.79960277  1
  S  S31  1  0.56185894  0.46070693  0.19297338  1
  S  S32  1  0.92269014  0.49731486  0.99392308  1
  S  S33  1  0.07793715  0.50214455  0.01197546  1
  S  S34  1  0.67286575  0.48787068  0.91096923  1
  S  S35  1  0.32957978  0.49654014  0.08560152  1
  S  S36  1  0.59684508  0.95441158  0.67244742  1
  S  S37  1  0.41391487  0.00342841  0.36525470  1
  S  S38  1  0.24225242  0.53505232  0.29806289  1
  S  S39  1  0.76427396  0.45967229  0.71292122  1
  S  S40  1  0.66640677  0.99944810  0.43829441  1
  S  S41  1  0.32947738  0.03275143  0.53817459  1
