# generated using pymatgen
data_Pr2Mn3(SbS3)4
_symmetry_space_group_name_H-M   'P 1'
_cell_length_a   20.02960800
_cell_length_b   3.90410600
_cell_length_c   14.95364829
_cell_angle_alpha   90.00000000
_cell_angle_beta   126.33350609
_cell_angle_gamma   90.00000000
_symmetry_Int_Tables_number   1
_chemical_formula_structural   Pr2Mn3(SbS3)4
_chemical_formula_sum   'Pr4 Mn6 Sb8 S24'
_cell_volume   942.00006694
_cell_formula_units_Z   2
loop_
 _symmetry_equiv_pos_site_id
 _symmetry_equiv_pos_as_xyz
  1  'x, y, z'
loop_
 _atom_site_type_symbol
 _atom_site_label
 _atom_site_symmetry_multiplicity
 _atom_site_fract_x
 _atom_site_fract_y
 _atom_site_fract_z
 _atom_site_occupancy
  Pr  Pr0  1  0.26674908  0.49770717  0.86425263  1
  Pr  Pr1  1  0.73558559  0.51113008  0.13608467  1
  Pr  Pr2  1  0.76337208  0.01223986  0.86089063  1
  Pr  Pr3  1  0.23492135  0.99661795  0.13481476  1
  Mn  Mn4  1  0.28817986  0.48027718  0.58916477  1
  Mn  Mn5  1  0.68568032  0.47054787  0.36709051  1
  Mn  Mn6  1  0.00864028  0.99105682  0.01956482  1
  Mn  Mn7  1  0.80433923  0.01347847  0.61923251  1
  Mn  Mn8  1  0.19820564  0.97735513  0.37314991  1
  Mn  Mn9  1  0.49124846  0.47943994  0.99032481  1
  Sb  Sb10  1  0.88998985  0.98615057  0.45119813  1
  Sb  Sb11  1  0.11188078  0.98133598  0.54501461  1
  Sb  Sb12  1  0.03815015  0.52010821  0.82111241  1
  Sb  Sb13  1  0.96230574  0.50086541  0.18387810  1
  Sb  Sb14  1  0.39494218  0.50306868  0.45070534  1
  Sb  Sb15  1  0.60687655  0.46766631  0.55029162  1
  Sb  Sb16  1  0.53361267  0.99431421  0.80820880  1
  Sb  Sb17  1  0.46523201  0.01935769  0.19055173  1
  S  S18  1  0.93829887  0.00798845  0.80777236  1
  S  S19  1  0.06408353  0.97211770  0.20054530  1
  S  S20  1  0.41767342  0.95642901  0.98204729  1
  S  S21  1  0.57975581  0.03379783  0.01207846  1
  S  S22  1  0.17162018  0.05224248  0.90219538  1
  S  S23  1  0.82856434  0.04921805  0.09883247  1
  S  S24  1  0.09394176  0.48243652  0.64694193  1
  S  S25  1  0.91432510  0.48869731  0.35641211  1
  S  S26  1  0.73670568  0.95477124  0.30040477  1
  S  S27  1  0.26252326  0.00847782  0.70832571  1
  S  S28  1  0.16074513  0.50867015  0.42291423  1
  S  S29  1  0.82324355  0.48793325  0.55078709  1
  S  S30  1  0.42996875  0.49314237  0.79814534  1
  S  S31  1  0.55330307  0.52769328  0.18139432  1
  S  S32  1  0.91216585  0.48886528  0.98758604  1
  S  S33  1  0.09286607  0.49310422  0.03399274  1
  S  S34  1  0.66212885  0.51815763  0.88598127  1
  S  S35  1  0.33153096  0.50605960  0.10101676  1
  S  S36  1  0.59978596  0.99618673  0.65857123  1
  S  S37  1  0.40095883  0.98922584  0.34181794  1
  S  S38  1  0.23919641  0.46853719  0.31098502  1
  S  S39  1  0.76109420  0.50872083  0.69250779  1
  S  S40  1  0.66746586  0.03406916  0.44946340  1
  S  S41  1  0.32967865  0.98055677  0.55619902  1
