# generated using pymatgen
data_Pr2Mn3(SbS3)4
_symmetry_space_group_name_H-M   'P 1'
_cell_length_a   20.02960800
_cell_length_b   3.90410600
_cell_length_c   14.95364829
_cell_angle_alpha   90.00000000
_cell_angle_beta   126.33350609
_cell_angle_gamma   90.00000000
_symmetry_Int_Tables_number   1
_chemical_formula_structural   Pr2Mn3(SbS3)4
_chemical_formula_sum   'Pr4 Mn6 Sb8 S24'
_cell_volume   942.00006694
_cell_formula_units_Z   2
loop_
 _symmetry_equiv_pos_site_id
 _symmetry_equiv_pos_as_xyz
  1  'x, y, z'
loop_
 _atom_site_type_symbol
 _atom_site_label
 _atom_site_symmetry_multiplicity
 _atom_site_fract_x
 _atom_site_fract_y
 _atom_site_fract_z
 _atom_site_occupancy
  Pr  Pr0  1  0.25830142  0.50788954  0.85687195  1
  Pr  Pr1  1  0.73697804  0.50114679  0.14200125  1
  Pr  Pr2  1  0.76511483  0.98809922  0.87213808  1
  Pr  Pr3  1  0.24273343  0.99231783  0.14916944  1
  Mn  Mn4  1  0.29031543  0.50230750  0.59332612  1
  Mn  Mn5  1  0.69147975  0.44766299  0.37034641  1
  Mn  Mn6  1  0.99625035  0.98254575  0.99368650  1
  Mn  Mn7  1  0.80131682  0.95817385  0.59975176  1
  Mn  Mn8  1  0.19593036  0.94925777  0.40580294  1
  Mn  Mn9  1  0.49730107  0.54086894  0.00255125  1
  Sb  Sb10  1  0.90078398  0.98430393  0.45475254  1
  Sb  Sb11  1  0.10653985  0.04168564  0.55284658  1
  Sb  Sb12  1  0.03291519  0.52928719  0.81208487  1
  Sb  Sb13  1  0.96337184  0.50766722  0.18888018  1
  Sb  Sb14  1  0.39194830  0.49956915  0.45276600  1
  Sb  Sb15  1  0.61858524  0.48568610  0.57069009  1
  Sb  Sb16  1  0.53890873  0.04077927  0.81867315  1
  Sb  Sb17  1  0.45387956  0.00330352  0.18500788  1
  S  S18  1  0.93741955  0.97387665  0.80062471  1
  S  S19  1  0.06297447  0.97669738  0.21462757  1
  S  S20  1  0.41151454  0.96450774  0.99105111  1
  S  S21  1  0.58424513  0.02344267  0.01843010  1
  S  S22  1  0.17947495  0.98416018  0.90387379  1
  S  S23  1  0.81966227  0.02056608  0.10344798  1
  S  S24  1  0.09266100  0.51494515  0.65749157  1
  S  S25  1  0.89945652  0.49648474  0.34127705  1
  S  S26  1  0.73368245  0.02532256  0.30618883  1
  S  S27  1  0.25994371  0.97882137  0.69025787  1
  S  S28  1  0.15851257  0.43797199  0.45084205  1
  S  S29  1  0.82202908  0.49139211  0.53820611  1
  S  S30  1  0.43442708  0.55949096  0.79976273  1
  S  S31  1  0.56218167  0.46092155  0.19313894  1
  S  S32  1  0.92265829  0.49573710  0.99364313  1
  S  S33  1  0.07790939  0.50137173  0.01158414  1
  S  S34  1  0.67272040  0.48650123  0.91067823  1
  S  S35  1  0.32948704  0.49725502  0.08595911  1
  S  S36  1  0.59675015  0.95433787  0.67241449  1
  S  S37  1  0.41392182  0.00274492  0.36544936  1
  S  S38  1  0.24204041  0.53438447  0.29822245  1
  S  S39  1  0.76421519  0.45749025  0.71259323  1
  S  S40  1  0.66637742  0.99885492  0.43821091  1
  S  S41  1  0.32935892  0.03141817  0.53812169  1
