# generated using pymatgen
data_Pr2Mn3(SbS3)4
_symmetry_space_group_name_H-M   'P 1'
_cell_length_a   20.02960800
_cell_length_b   3.90410600
_cell_length_c   14.95364829
_cell_angle_alpha   90.00000000
_cell_angle_beta   126.33350609
_cell_angle_gamma   90.00000000
_symmetry_Int_Tables_number   1
_chemical_formula_structural   Pr2Mn3(SbS3)4
_chemical_formula_sum   'Pr4 Mn6 Sb8 S24'
_cell_volume   942.00006694
_cell_formula_units_Z   2
loop_
 _symmetry_equiv_pos_site_id
 _symmetry_equiv_pos_as_xyz
  1  'x, y, z'
loop_
 _atom_site_type_symbol
 _atom_site_label
 _atom_site_symmetry_multiplicity
 _atom_site_fract_x
 _atom_site_fract_y
 _atom_site_fract_z
 _atom_site_occupancy
  Pr  Pr0  1  0.25846460  0.50825184  0.85691599  1
  Pr  Pr1  1  0.73697437  0.50157622  0.14214891  1
  Pr  Pr2  1  0.76499944  0.98796079  0.87204033  1
  Pr  Pr3  1  0.24287853  0.99264146  0.14923761  1
  Mn  Mn4  1  0.29036362  0.50219024  0.59324290  1
  Mn  Mn5  1  0.69165955  0.44764510  0.37084020  1
  Mn  Mn6  1  0.99610933  0.98210515  0.99364969  1
  Mn  Mn7  1  0.80106024  0.95772704  0.59927686  1
  Mn  Mn8  1  0.19616461  0.94909361  0.40592325  1
  Mn  Mn9  1  0.49706945  0.54083463  0.00269951  1
  Sb  Sb10  1  0.90066643  0.98401748  0.45480859  1
  Sb  Sb11  1  0.10637378  0.04272527  0.55296684  1
  Sb  Sb12  1  0.03274582  0.52958433  0.81194913  1
  Sb  Sb13  1  0.96344270  0.50726003  0.18920018  1
  Sb  Sb14  1  0.39193581  0.49938454  0.45279672  1
  Sb  Sb15  1  0.61876748  0.48541888  0.57111487  1
  Sb  Sb16  1  0.53905149  0.04063366  0.81885737  1
  Sb  Sb17  1  0.45387308  0.00305827  0.18480111  1
  S  S18  1  0.93715519  0.97516588  0.80040495  1
  S  S19  1  0.06302316  0.97503745  0.21462726  1
  S  S20  1  0.41165303  0.96486407  0.99105541  1
  S  S21  1  0.58403918  0.02286048  0.01849025  1
  S  S22  1  0.17933536  0.98489118  0.90404637  1
  S  S23  1  0.81992610  0.02078881  0.10401763  1
  S  S24  1  0.09265431  0.51371991  0.65740378  1
  S  S25  1  0.89924664  0.49655407  0.34077122  1
  S  S26  1  0.73398290  0.02662177  0.30646803  1
  S  S27  1  0.25971043  0.97819443  0.69013353  1
  S  S28  1  0.15848128  0.43754322  0.45095967  1
  S  S29  1  0.82200109  0.49214929  0.53863919  1
  S  S30  1  0.43429514  0.55903205  0.79990110  1
  S  S31  1  0.56250537  0.46145857  0.19340030  1
  S  S32  1  0.92280374  0.49419979  0.99368002  1
  S  S33  1  0.07795563  0.50061001  0.01142098  1
  S  S34  1  0.67276222  0.48579806  0.91059573  1
  S  S35  1  0.32934713  0.49810925  0.08620549  1
  S  S36  1  0.59680994  0.95383855  0.67242034  1
  S  S37  1  0.41403902  0.00200791  0.36572323  1
  S  S38  1  0.24186963  0.53379107  0.29833222  1
  S  S39  1  0.76410361  0.45604776  0.71222935  1
  S  S40  1  0.66657250  0.99904214  0.43847727  1
  S  S41  1  0.32908273  0.02988944  0.53797150  1
