# generated using pymatgen
data_Pr2Mn3(SbS3)4
_symmetry_space_group_name_H-M   'P 1'
_cell_length_a   20.02960800
_cell_length_b   3.90410600
_cell_length_c   14.95364829
_cell_angle_alpha   90.00000000
_cell_angle_beta   126.33350609
_cell_angle_gamma   90.00000000
_symmetry_Int_Tables_number   1
_chemical_formula_structural   Pr2Mn3(SbS3)4
_chemical_formula_sum   'Pr4 Mn6 Sb8 S24'
_cell_volume   942.00006694
_cell_formula_units_Z   2
loop_
 _symmetry_equiv_pos_site_id
 _symmetry_equiv_pos_as_xyz
  1  'x, y, z'
loop_
 _atom_site_type_symbol
 _atom_site_label
 _atom_site_symmetry_multiplicity
 _atom_site_fract_x
 _atom_site_fract_y
 _atom_site_fract_z
 _atom_site_occupancy
  Pr  Pr0  1  0.25868563  0.50859604  0.85695949  1
  Pr  Pr1  1  0.73692053  0.50213786  0.14223997  1
  Pr  Pr2  1  0.76483648  0.98754305  0.87189368  1
  Pr  Pr3  1  0.24305156  0.99271233  0.14928413  1
  Mn  Mn4  1  0.29041700  0.50178382  0.59341655  1
  Mn  Mn5  1  0.69194956  0.44804232  0.37137836  1
  Mn  Mn6  1  0.99596124  0.98187919  0.99356354  1
  Mn  Mn7  1  0.80082768  0.95692089  0.59900970  1
  Mn  Mn8  1  0.19635018  0.94933856  0.40600294  1
  Mn  Mn9  1  0.49697139  0.54066027  0.00290125  1
  Sb  Sb10  1  0.90050027  0.98350999  0.45476799  1
  Sb  Sb11  1  0.10618457  0.04344112  0.55307902  1
  Sb  Sb12  1  0.03263817  0.53006098  0.81183711  1
  Sb  Sb13  1  0.96346151  0.50700045  0.18944354  1
  Sb  Sb14  1  0.39195389  0.49904341  0.45284637  1
  Sb  Sb15  1  0.61896217  0.48525354  0.57149898  1
  Sb  Sb16  1  0.53922275  0.04056013  0.81904874  1
  Sb  Sb17  1  0.45392531  0.00261965  0.18464069  1
  S  S18  1  0.93686982  0.97634132  0.80008659  1
  S  S19  1  0.06299135  0.97399618  0.21465084  1
  S  S20  1  0.41186809  0.96555801  0.99118969  1
  S  S21  1  0.58388201  0.02237769  0.01835790  1
  S  S22  1  0.17913757  0.98544328  0.90430248  1
  S  S23  1  0.82021077  0.02071687  0.10476783  1
  S  S24  1  0.09275249  0.51279497  0.65724044  1
  S  S25  1  0.89900694  0.49725886  0.34032767  1
  S  S26  1  0.73420595  0.02790646  0.30658783  1
  S  S27  1  0.25962087  0.97844837  0.69013075  1
  S  S28  1  0.15843166  0.43699215  0.45109082  1
  S  S29  1  0.82202978  0.49268600  0.53902480  1
  S  S30  1  0.43407599  0.55842829  0.79992539  1
  S  S31  1  0.56287456  0.46150900  0.19364506  1
  S  S32  1  0.92289370  0.49261567  0.99362284  1
  S  S33  1  0.07789654  0.49964453  0.01122164  1
  S  S34  1  0.67289002  0.48569499  0.91066467  1
  S  S35  1  0.32911592  0.49839353  0.08642314  1
  S  S36  1  0.59686453  0.95399138  0.67226387  1
  S  S37  1  0.41412421  0.00113646  0.36600670  1
  S  S38  1  0.24167918  0.53290180  0.29855489  1
  S  S39  1  0.76388597  0.45516567  0.71175553  1
  S  S40  1  0.66659631  0.99971249  0.43861533  1
  S  S41  1  0.32878990  0.02808168  0.53799477  1
