# generated using pymatgen
data_Pr2Mn3(SbS3)4
_symmetry_space_group_name_H-M   'P 1'
_cell_length_a   20.02960800
_cell_length_b   3.90410600
_cell_length_c   14.95364829
_cell_angle_alpha   90.00000000
_cell_angle_beta   126.33350609
_cell_angle_gamma   90.00000000
_symmetry_Int_Tables_number   1
_chemical_formula_structural   Pr2Mn3(SbS3)4
_chemical_formula_sum   'Pr4 Mn6 Sb8 S24'
_cell_volume   942.00006694
_cell_formula_units_Z   2
loop_
 _symmetry_equiv_pos_site_id
 _symmetry_equiv_pos_as_xyz
  1  'x, y, z'
loop_
 _atom_site_type_symbol
 _atom_site_label
 _atom_site_symmetry_multiplicity
 _atom_site_fract_x
 _atom_site_fract_y
 _atom_site_fract_z
 _atom_site_occupancy
  Pr  Pr0  1  0.25884787  0.50906238  0.85696108  1
  Pr  Pr1  1  0.73692329  0.50276828  0.14240607  1
  Pr  Pr2  1  0.76468055  0.98705230  0.87182308  1
  Pr  Pr3  1  0.24317510  0.99261045  0.14934824  1
  Mn  Mn4  1  0.29051775  0.50131032  0.59357985  1
  Mn  Mn5  1  0.69219887  0.44847470  0.37191693  1
  Mn  Mn6  1  0.99593461  0.98117637  0.99369491  1
  Mn  Mn7  1  0.80055373  0.95609596  0.59871892  1
  Mn  Mn8  1  0.19646759  0.94937155  0.40594206  1
  Mn  Mn9  1  0.49678193  0.54031700  0.00284266  1
  Sb  Sb10  1  0.90039378  0.98320858  0.45473234  1
  Sb  Sb11  1  0.10605333  0.04387277  0.55315582  1
  Sb  Sb12  1  0.03251449  0.53073783  0.81184349  1
  Sb  Sb13  1  0.96348236  0.50675091  0.18966637  1
  Sb  Sb14  1  0.39195188  0.49898466  0.45292978  1
  Sb  Sb15  1  0.61907914  0.48501062  0.57183281  1
  Sb  Sb16  1  0.53927845  0.04062320  0.81913377  1
  Sb  Sb17  1  0.45394149  0.00217492  0.18447581  1
  S  S18  1  0.93665627  0.97741366  0.79974088  1
  S  S19  1  0.06306503  0.97312828  0.21477016  1
  S  S20  1  0.41198238  0.96646420  0.99108617  1
  S  S21  1  0.58368294  0.02255755  0.01819063  1
  S  S22  1  0.17895417  0.98655038  0.90441887  1
  S  S23  1  0.82060643  0.02025619  0.10559005  1
  S  S24  1  0.09280229  0.51208772  0.65722911  1
  S  S25  1  0.89873539  0.49737274  0.33980733  1
  S  S26  1  0.73449662  0.02887485  0.30675797  1
  S  S27  1  0.25936346  0.97872401  0.68995259  1
  S  S28  1  0.15835465  0.43708328  0.45132517  1
  S  S29  1  0.82199358  0.49371236  0.53931579  1
  S  S30  1  0.43398825  0.55798552  0.79994809  1
  S  S31  1  0.56318740  0.46090248  0.19413146  1
  S  S32  1  0.92285570  0.49152909  0.99359021  1
  S  S33  1  0.07798960  0.49846772  0.01104886  1
  S  S34  1  0.67290277  0.48581926  0.91071109  1
  S  S35  1  0.32898647  0.49850526  0.08652312  1
  S  S36  1  0.59680065  0.95352109  0.67194575  1
  S  S37  1  0.41414711  0.99982263  0.36634847  1
  S  S38  1  0.24158596  0.53215806  0.29866818  1
  S  S39  1  0.76378495  0.45429501  0.71138754  1
  S  S40  1  0.66664159  0.00026402  0.43876306  1
  S  S41  1  0.32854780  0.02640539  0.53783232  1
