# generated using pymatgen
data_Pr2Mn3(SbS3)4
_symmetry_space_group_name_H-M   'P 1'
_cell_length_a   20.02960800
_cell_length_b   3.90410600
_cell_length_c   14.95364829
_cell_angle_alpha   90.00000000
_cell_angle_beta   126.33350609
_cell_angle_gamma   90.00000000
_symmetry_Int_Tables_number   1
_chemical_formula_structural   Pr2Mn3(SbS3)4
_chemical_formula_sum   'Pr4 Mn6 Sb8 S24'
_cell_volume   942.00006694
_cell_formula_units_Z   2
loop_
 _symmetry_equiv_pos_site_id
 _symmetry_equiv_pos_as_xyz
  1  'x, y, z'
loop_
 _atom_site_type_symbol
 _atom_site_label
 _atom_site_symmetry_multiplicity
 _atom_site_fract_x
 _atom_site_fract_y
 _atom_site_fract_z
 _atom_site_occupancy
  Pr  Pr0  1  0.25907427  0.50953445  0.85697858  1
  Pr  Pr1  1  0.73688160  0.50372374  0.14250341  1
  Pr  Pr2  1  0.76455837  0.98651733  0.87181388  1
  Pr  Pr3  1  0.24325240  0.99223891  0.14935515  1
  Mn  Mn4  1  0.29054358  0.50078365  0.59362305  1
  Mn  Mn5  1  0.69243014  0.44918377  0.37250501  1
  Mn  Mn6  1  0.99597457  0.98029692  0.99385113  1
  Mn  Mn7  1  0.80016962  0.95532245  0.59847549  1
  Mn  Mn8  1  0.19657167  0.94945020  0.40584638  1
  Mn  Mn9  1  0.49665475  0.54004658  0.00275137  1
  Sb  Sb10  1  0.90037798  0.98305622  0.45480321  1
  Sb  Sb11  1  0.10596105  0.04437151  0.55323455  1
  Sb  Sb12  1  0.03239362  0.53123565  0.81184501  1
  Sb  Sb13  1  0.96341809  0.50693744  0.18976315  1
  Sb  Sb14  1  0.39196498  0.49929226  0.45307625  1
  Sb  Sb15  1  0.61915792  0.48486124  0.57216011  1
  Sb  Sb16  1  0.53935160  0.04074039  0.81925479  1
  Sb  Sb17  1  0.45399355  0.00175976  0.18441299  1
  S  S18  1  0.93653063  0.97877630  0.79932577  1
  S  S19  1  0.06337754  0.97238231  0.21492515  1
  S  S20  1  0.41204935  0.96692407  0.99083955  1
  S  S21  1  0.58348487  0.02218454  0.01811004  1
  S  S22  1  0.17867205  0.98744348  0.90436847  1
  S  S23  1  0.82096281  0.02018354  0.10633495  1
  S  S24  1  0.09274657  0.51117548  0.65717407  1
  S  S25  1  0.89861467  0.49682392  0.33950338  1
  S  S26  1  0.73475724  0.02967789  0.30683641  1
  S  S27  1  0.25917215  0.97860013  0.68991147  1
  S  S28  1  0.15838250  0.43696453  0.45161367  1
  S  S29  1  0.82212557  0.49394761  0.53978518  1
  S  S30  1  0.43384858  0.55773578  0.79996071  1
  S  S31  1  0.56329863  0.46103909  0.19445897  1
  S  S32  1  0.92276551  0.49059802  0.99361120  1
  S  S33  1  0.07833508  0.49768815  0.01111378  1
  S  S34  1  0.67283395  0.48594150  0.91070759  1
  S  S35  1  0.32870811  0.49884616  0.08647786  1
  S  S36  1  0.59686377  0.95341795  0.67177450  1
  S  S37  1  0.41417373  0.99872446  0.36658459  1
  S  S38  1  0.24158214  0.53104483  0.29892627  1
  S  S39  1  0.76376818  0.45370426  0.71114602  1
  S  S40  1  0.66657146  0.00069832  0.43881672  1
  S  S41  1  0.32833634  0.02495357  0.53767417  1
