# generated using pymatgen
data_Pr2Mn3(SbS3)4
_symmetry_space_group_name_H-M   'P 1'
_cell_length_a   20.02960800
_cell_length_b   3.90410600
_cell_length_c   14.95364829
_cell_angle_alpha   90.00000000
_cell_angle_beta   126.33350609
_cell_angle_gamma   90.00000000
_symmetry_Int_Tables_number   1
_chemical_formula_structural   Pr2Mn3(SbS3)4
_chemical_formula_sum   'Pr4 Mn6 Sb8 S24'
_cell_volume   942.00006694
_cell_formula_units_Z   2
loop_
 _symmetry_equiv_pos_site_id
 _symmetry_equiv_pos_as_xyz
  1  'x, y, z'
loop_
 _atom_site_type_symbol
 _atom_site_label
 _atom_site_symmetry_multiplicity
 _atom_site_fract_x
 _atom_site_fract_y
 _atom_site_fract_z
 _atom_site_occupancy
  Pr  Pr0  1  0.25930997  0.50980574  0.85703954  1
  Pr  Pr1  1  0.73677480  0.50451511  0.14251554  1
  Pr  Pr2  1  0.76441629  0.98590166  0.87174260  1
  Pr  Pr3  1  0.24330318  0.99193950  0.14930703  1
  Mn  Mn4  1  0.29049917  0.49980177  0.59354956  1
  Mn  Mn5  1  0.69258638  0.44955962  0.37288050  1
  Mn  Mn6  1  0.99596571  0.97955242  0.99400218  1
  Mn  Mn7  1  0.79975932  0.95452782  0.59833950  1
  Mn  Mn8  1  0.19671200  0.94957417  0.40593142  1
  Mn  Mn9  1  0.49652725  0.54020917  0.00262260  1
  Sb  Sb10  1  0.90043784  0.98304209  0.45497577  1
  Sb  Sb11  1  0.10590252  0.04483676  0.55332341  1
  Sb  Sb12  1  0.03226005  0.53159699  0.81194434  1
  Sb  Sb13  1  0.96341553  0.50726560  0.18986467  1
  Sb  Sb14  1  0.39205635  0.49954289  0.45322120  1
  Sb  Sb15  1  0.61922188  0.48470281  0.57244529  1
  Sb  Sb16  1  0.53939584  0.04053048  0.81929251  1
  Sb  Sb17  1  0.45393737  0.00167262  0.18439244  1
  S  S18  1  0.93640956  0.97979623  0.79905515  1
  S  S19  1  0.06359340  0.97219997  0.21502938  1
  S  S20  1  0.41208102  0.96803168  0.99044863  1
  S  S21  1  0.58310999  0.02211505  0.01787597  1
  S  S22  1  0.17849317  0.98839637  0.90431568  1
  S  S23  1  0.82118233  0.01975035  0.10696561  1
  S  S24  1  0.09276345  0.51022360  0.65713573  1
  S  S25  1  0.89844859  0.49686109  0.33915761  1
  S  S26  1  0.73495897  0.03028970  0.30683710  1
  S  S27  1  0.25899372  0.97913606  0.68970511  1
  S  S28  1  0.15846390  0.43723397  0.45195127  1
  S  S29  1  0.82234511  0.49383767  0.54021276  1
  S  S30  1  0.43377988  0.55736146  0.79992316  1
  S  S31  1  0.56333590  0.46116086  0.19476546  1
  S  S32  1  0.92276043  0.48980832  0.99388807  1
  S  S33  1  0.07864058  0.49671374  0.01102650  1
  S  S34  1  0.67289477  0.48607796  0.91080882  1
  S  S35  1  0.32849161  0.50018263  0.08641948  1
  S  S36  1  0.59698631  0.95355082  0.67156235  1
  S  S37  1  0.41415373  0.99844127  0.36690340  1
  S  S38  1  0.24167443  0.53039276  0.29925695  1
  S  S39  1  0.76363646  0.45300097  0.71074644  1
  S  S40  1  0.66638683  0.00153261  0.43864706  1
  S  S41  1  0.32814319  0.02367786  0.53765415  1
