# generated using pymatgen
data_Pr2Mn3(SbS3)4
_symmetry_space_group_name_H-M   'P 1'
_cell_length_a   20.02960800
_cell_length_b   3.90410600
_cell_length_c   14.95364829
_cell_angle_alpha   90.00000000
_cell_angle_beta   126.33350609
_cell_angle_gamma   90.00000000
_symmetry_Int_Tables_number   1
_chemical_formula_structural   Pr2Mn3(SbS3)4
_chemical_formula_sum   'Pr4 Mn6 Sb8 S24'
_cell_volume   942.00006694
_cell_formula_units_Z   2
loop_
 _symmetry_equiv_pos_site_id
 _symmetry_equiv_pos_as_xyz
  1  'x, y, z'
loop_
 _atom_site_type_symbol
 _atom_site_label
 _atom_site_symmetry_multiplicity
 _atom_site_fract_x
 _atom_site_fract_y
 _atom_site_fract_z
 _atom_site_occupancy
  Pr  Pr0  1  0.25955067  0.51003141  0.85706688  1
  Pr  Pr1  1  0.73660384  0.50540807  0.14242314  1
  Pr  Pr2  1  0.76432732  0.98539881  0.87170660  1
  Pr  Pr3  1  0.24334805  0.99128152  0.14926162  1
  Mn  Mn4  1  0.29051296  0.49911795  0.59358823  1
  Mn  Mn5  1  0.69265411  0.44987812  0.37323958  1
  Mn  Mn6  1  0.99584270  0.97907174  0.99409361  1
  Mn  Mn7  1  0.79937743  0.95328546  0.59823053  1
  Mn  Mn8  1  0.19680594  0.94978419  0.40599898  1
  Mn  Mn9  1  0.49631810  0.54021928  0.00253026  1
  Sb  Sb10  1  0.90050003  0.98283487  0.45515046  1
  Sb  Sb11  1  0.10586360  0.04532597  0.55346712  1
  Sb  Sb12  1  0.03219812  0.53218892  0.81207167  1
  Sb  Sb13  1  0.96348887  0.50786421  0.18997532  1
  Sb  Sb14  1  0.39207776  0.49955660  0.45325273  1
  Sb  Sb15  1  0.61927817  0.48472378  0.57267338  1
  Sb  Sb16  1  0.53949019  0.04021200  0.81936638  1
  Sb  Sb17  1  0.45387366  0.00156016  0.18437519  1
  S  S18  1  0.93629342  0.98086218  0.79873274  1
  S  S19  1  0.06376030  0.97217113  0.21514113  1
  S  S20  1  0.41221189  0.96966792  0.98997210  1
  S  S21  1  0.58270601  0.02155790  0.01759274  1
  S  S22  1  0.17821674  0.98957660  0.90415312  1
  S  S23  1  0.82141919  0.01866722  0.10753396  1
  S  S24  1  0.09276897  0.50963109  0.65701402  1
  S  S25  1  0.89839997  0.49737328  0.33883640  1
  S  S26  1  0.73534095  0.03002032  0.30698685  1
  S  S27  1  0.25892501  0.97926481  0.68967689  1
  S  S28  1  0.15841596  0.43682487  0.45207795  1
  S  S29  1  0.82249569  0.49437861  0.54045923  1
  S  S30  1  0.43387636  0.55597110  0.79987729  1
  S  S31  1  0.56326700  0.46173922  0.19480109  1
  S  S32  1  0.92270189  0.48908801  0.99397904  1
  S  S33  1  0.07885659  0.49583142  0.01099674  1
  S  S34  1  0.67299149  0.48615692  0.91113813  1
  S  S35  1  0.32813748  0.50203557  0.08627376  1
  S  S36  1  0.59696226  0.95325380  0.67112161  1
  S  S37  1  0.41388864  0.99842244  0.36704833  1
  S  S38  1  0.24182063  0.52950526  0.29946102  1
  S  S39  1  0.76363658  0.45179873  0.71026056  1
  S  S40  1  0.66615391  0.00194079  0.43835285  1
  S  S41  1  0.32799247  0.02201143  0.53763536  1
