# generated using pymatgen
data_Pr2Mn3(SbS3)4
_symmetry_space_group_name_H-M   'P 1'
_cell_length_a   20.02960800
_cell_length_b   3.90410600
_cell_length_c   14.95364829
_cell_angle_alpha   90.00000000
_cell_angle_beta   126.33350609
_cell_angle_gamma   90.00000000
_symmetry_Int_Tables_number   1
_chemical_formula_structural   Pr2Mn3(SbS3)4
_chemical_formula_sum   'Pr4 Mn6 Sb8 S24'
_cell_volume   942.00006694
_cell_formula_units_Z   2
loop_
 _symmetry_equiv_pos_site_id
 _symmetry_equiv_pos_as_xyz
  1  'x, y, z'
loop_
 _atom_site_type_symbol
 _atom_site_label
 _atom_site_symmetry_multiplicity
 _atom_site_fract_x
 _atom_site_fract_y
 _atom_site_fract_z
 _atom_site_occupancy
  Pr  Pr0  1  0.25981875  0.51074431  0.85716988  1
  Pr  Pr1  1  0.73637896  0.50628033  0.14223293  1
  Pr  Pr2  1  0.76429337  0.98482767  0.87173576  1
  Pr  Pr3  1  0.24342071  0.99053286  0.14918856  1
  Mn  Mn4  1  0.29054154  0.49843971  0.59375685  1
  Mn  Mn5  1  0.69278361  0.45048100  0.37365782  1
  Mn  Mn6  1  0.99579636  0.97893980  0.99414310  1
  Mn  Mn7  1  0.79895093  0.95174226  0.59806815  1
  Mn  Mn8  1  0.19689266  0.94974619  0.40612743  1
  Mn  Mn9  1  0.49618743  0.54018386  0.00234861  1
  Sb  Sb10  1  0.90049230  0.98314914  0.45522991  1
  Sb  Sb11  1  0.10586418  0.04523661  0.55367410  1
  Sb  Sb12  1  0.03217434  0.53284982  0.81227079  1
  Sb  Sb13  1  0.96365939  0.50821433  0.19016599  1
  Sb  Sb14  1  0.39217807  0.49979426  0.45329338  1
  Sb  Sb15  1  0.61935365  0.48501941  0.57285182  1
  Sb  Sb16  1  0.53956997  0.03967282  0.81942761  1
  Sb  Sb17  1  0.45381430  0.00153776  0.18441390  1
  S  S18  1  0.93626588  0.98160350  0.79856906  1
  S  S19  1  0.06398663  0.97202436  0.21530089  1
  S  S20  1  0.41239884  0.97136847  0.98956818  1
  S  S21  1  0.58225786  0.02081313  0.01730773  1
  S  S22  1  0.17803990  0.99076772  0.90407736  1
  S  S23  1  0.82152513  0.01722837  0.10800153  1
  S  S24  1  0.09275136  0.50896289  0.65707799  1
  S  S25  1  0.89834866  0.49763685  0.33854432  1
  S  S26  1  0.73563682  0.02968471  0.30722713  1
  S  S27  1  0.25899261  0.97941041  0.68976346  1
  S  S28  1  0.15833850  0.43627066  0.45219030  1
  S  S29  1  0.82267732  0.49439075  0.54054275  1
  S  S30  1  0.43401618  0.55473894  0.79988784  1
  S  S31  1  0.56331685  0.46259854  0.19498390  1
  S  S32  1  0.92262137  0.48853230  0.99377791  1
  S  S33  1  0.07897663  0.49522368  0.01080869  1
  S  S34  1  0.67297961  0.48617290  0.91146950  1
  S  S35  1  0.32766901  0.50330251  0.08603882  1
  S  S36  1  0.59704501  0.95336421  0.67096206  1
  S  S37  1  0.41352143  0.99874682  0.36723017  1
  S  S38  1  0.24204641  0.52818630  0.29966672  1
  S  S39  1  0.76368831  0.45038303  0.70991920  1
  S  S40  1  0.66592763  0.00194199  0.43802551  1
  S  S41  1  0.32797413  0.02074737  0.53760331  1
