# generated using pymatgen
data_Pr2Mn3(SbS3)4
_symmetry_space_group_name_H-M   'P 1'
_cell_length_a   20.02960800
_cell_length_b   3.90410600
_cell_length_c   14.95364829
_cell_angle_alpha   90.00000000
_cell_angle_beta   126.33350609
_cell_angle_gamma   90.00000000
_symmetry_Int_Tables_number   1
_chemical_formula_structural   Pr2Mn3(SbS3)4
_chemical_formula_sum   'Pr4 Mn6 Sb8 S24'
_cell_volume   942.00006694
_cell_formula_units_Z   2
loop_
 _symmetry_equiv_pos_site_id
 _symmetry_equiv_pos_as_xyz
  1  'x, y, z'
loop_
 _atom_site_type_symbol
 _atom_site_label
 _atom_site_symmetry_multiplicity
 _atom_site_fract_x
 _atom_site_fract_y
 _atom_site_fract_z
 _atom_site_occupancy
  Pr  Pr0  1  0.26012912  0.51153999  0.85736290  1
  Pr  Pr1  1  0.73615154  0.50692087  0.14200459  1
  Pr  Pr2  1  0.76426855  0.98425413  0.87181006  1
  Pr  Pr3  1  0.24352009  0.98993582  0.14904959  1
  Mn  Mn4  1  0.29065102  0.49727092  0.59389359  1
  Mn  Mn5  1  0.69289804  0.45095719  0.37389269  1
  Mn  Mn6  1  0.99586996  0.97916666  0.99428430  1
  Mn  Mn7  1  0.79862985  0.95027338  0.59788441  1
  Mn  Mn8  1  0.19694204  0.94947880  0.40623732  1
  Mn  Mn9  1  0.49609900  0.54027887  0.00222945  1
  Sb  Sb10  1  0.90054575  0.98332115  0.45524666  1
  Sb  Sb11  1  0.10586383  0.04537132  0.55387315  1
  Sb  Sb12  1  0.03208597  0.53329499  0.81235747  1
  Sb  Sb13  1  0.96385057  0.50832436  0.19033843  1
  Sb  Sb14  1  0.39231580  0.49978126  0.45336206  1
  Sb  Sb15  1  0.61941999  0.48516997  0.57308005  1
  Sb  Sb16  1  0.53954224  0.03909851  0.81939221  1
  Sb  Sb17  1  0.45376951  0.00146709  0.18454564  1
  S  S18  1  0.93626789  0.98204566  0.79851759  1
  S  S19  1  0.06436165  0.97156472  0.21571693  1
  S  S20  1  0.41267140  0.97315011  0.98919228  1
  S  S21  1  0.58209679  0.01989229  0.01732501  1
  S  S22  1  0.17791832  0.99161763  0.90420093  1
  S  S23  1  0.82163200  0.01640348  0.10844250  1
  S  S24  1  0.09252234  0.50842488  0.65710211  1
  S  S25  1  0.89829830  0.49776970  0.33816016  1
  S  S26  1  0.73592442  0.02887713  0.30742133  1
  S  S27  1  0.25901226  0.97978808  0.68963719  1
  S  S28  1  0.15810825  0.43542516  0.45204674  1
  S  S29  1  0.82286609  0.49470884  0.54063292  1
  S  S30  1  0.43409707  0.55357713  0.79984461  1
  S  S31  1  0.56315537  0.46403454  0.19506684  1
  S  S32  1  0.92249529  0.48851145  0.99367429  1
  S  S33  1  0.07919227  0.49473422  0.01072254  1
  S  S34  1  0.67311112  0.48576183  0.91187618  1
  S  S35  1  0.32720271  0.50466936  0.08577841  1
  S  S36  1  0.59724988  0.95262237  0.67102447  1
  S  S37  1  0.41315907  0.99956209  0.36745963  1
  S  S38  1  0.24228295  0.52627628  0.29981380  1
  S  S39  1  0.76374157  0.44904544  0.70951240  1
  S  S40  1  0.66563423  0.00200745  0.43752909  1
  S  S41  1  0.32800473  0.01950494  0.53771195  1
