# generated using pymatgen
data_Pr2Mn3(SbS3)4
_symmetry_space_group_name_H-M   'P 1'
_cell_length_a   20.02960800
_cell_length_b   3.90410600
_cell_length_c   14.95364829
_cell_angle_alpha   90.00000000
_cell_angle_beta   126.33350609
_cell_angle_gamma   90.00000000
_symmetry_Int_Tables_number   1
_chemical_formula_structural   Pr2Mn3(SbS3)4
_chemical_formula_sum   'Pr4 Mn6 Sb8 S24'
_cell_volume   942.00006694
_cell_formula_units_Z   2
loop_
 _symmetry_equiv_pos_site_id
 _symmetry_equiv_pos_as_xyz
  1  'x, y, z'
loop_
 _atom_site_type_symbol
 _atom_site_label
 _atom_site_symmetry_multiplicity
 _atom_site_fract_x
 _atom_site_fract_y
 _atom_site_fract_z
 _atom_site_occupancy
  Pr  Pr0  1  0.26043854  0.51196007  0.85753973  1
  Pr  Pr1  1  0.73599340  0.50765034  0.14184985  1
  Pr  Pr2  1  0.76414308  0.98390749  0.87184846  1
  Pr  Pr3  1  0.24359546  0.98942692  0.14887271  1
  Mn  Mn4  1  0.29074430  0.49539819  0.59391258  1
  Mn  Mn5  1  0.69300208  0.45118968  0.37405932  1
  Mn  Mn6  1  0.99585145  0.97913782  0.99432366  1
  Mn  Mn7  1  0.79832204  0.94936978  0.59759368  1
  Mn  Mn8  1  0.19687159  0.94888091  0.40622502  1
  Mn  Mn9  1  0.49598187  0.54047556  0.00211708  1
  Sb  Sb10  1  0.90051807  0.98313798  0.45509602  1
  Sb  Sb11  1  0.10583114  0.04552728  0.55396321  1
  Sb  Sb12  1  0.03191829  0.53376410  0.81235806  1
  Sb  Sb13  1  0.96406973  0.50878638  0.19054290  1
  Sb  Sb14  1  0.39250345  0.49980073  0.45342117  1
  Sb  Sb15  1  0.61949766  0.48523093  0.57331104  1
  Sb  Sb16  1  0.53962067  0.03863181  0.81943257  1
  Sb  Sb17  1  0.45372104  0.00136773  0.18467600  1
  S  S18  1  0.93631805  0.98208710  0.79839452  1
  S  S19  1  0.06456956  0.97108788  0.21604708  1
  S  S20  1  0.41279152  0.97453885  0.98871099  1
  S  S21  1  0.58198275  0.01896341  0.01736156  1
  S  S22  1  0.17805071  0.99217654  0.90478730  1
  S  S23  1  0.82180689  0.01557964  0.10907823  1
  S  S24  1  0.09229191  0.50779698  0.65702753  1
  S  S25  1  0.89818020  0.49776573  0.33776534  1
  S  S26  1  0.73612326  0.02797819  0.30738339  1
  S  S27  1  0.25904190  0.98072875  0.68928170  1
  S  S28  1  0.15802127  0.43529835  0.45185362  1
  S  S29  1  0.82303783  0.49579850  0.54067452  1
  S  S30  1  0.43423081  0.55234694  0.79983255  1
  S  S31  1  0.56309065  0.46575717  0.19521062  1
  S  S32  1  0.92244660  0.48776978  0.99367312  1
  S  S33  1  0.07955149  0.49411092  0.01070304  1
  S  S34  1  0.67329125  0.48481499  0.91221726  1
  S  S35  1  0.32675613  0.50572141  0.08547176  1
  S  S36  1  0.59724602  0.95270177  0.67083899  1
  S  S37  1  0.41282443  0.00067841  0.36788243  1
  S  S38  1  0.24253148  0.52436273  0.29996685  1
  S  S39  1  0.76375533  0.44756231  0.70899386  1
  S  S40  1  0.66558460  0.00234312  0.43735602  1
  S  S41  1  0.32785700  0.01758437  0.53785685  1
