# generated using pymatgen
data_Pr2Mn3(SbS3)4
_symmetry_space_group_name_H-M   'P 1'
_cell_length_a   20.02960800
_cell_length_b   3.90410600
_cell_length_c   14.95364829
_cell_angle_alpha   90.00000000
_cell_angle_beta   126.33350609
_cell_angle_gamma   90.00000000
_symmetry_Int_Tables_number   1
_chemical_formula_structural   Pr2Mn3(SbS3)4
_chemical_formula_sum   'Pr4 Mn6 Sb8 S24'
_cell_volume   942.00006694
_cell_formula_units_Z   2
loop_
 _symmetry_equiv_pos_site_id
 _symmetry_equiv_pos_as_xyz
  1  'x, y, z'
loop_
 _atom_site_type_symbol
 _atom_site_label
 _atom_site_symmetry_multiplicity
 _atom_site_fract_x
 _atom_site_fract_y
 _atom_site_fract_z
 _atom_site_occupancy
  Pr  Pr0  1  0.26665573  0.49752521  0.86414753  1
  Pr  Pr1  1  0.73550819  0.51120144  0.13590166  1
  Pr  Pr2  1  0.76335900  0.01236238  0.86092195  1
  Pr  Pr3  1  0.23486451  0.99632799  0.13473351  1
  Mn  Mn4  1  0.28816750  0.47986148  0.58899794  1
  Mn  Mn5  1  0.68569668  0.47069470  0.36698409  1
  Mn  Mn6  1  0.00861466  0.99173352  0.01947386  1
  Mn  Mn7  1  0.80427861  0.01402850  0.61935017  1
  Mn  Mn8  1  0.19838459  0.97692036  0.37331748  1
  Mn  Mn9  1  0.49126829  0.47921907  0.99043888  1
  Sb  Sb10  1  0.89005585  0.98582099  0.45113798  1
  Sb  Sb11  1  0.11180494  0.98143540  0.54486524  1
  Sb  Sb12  1  0.03804973  0.52015708  0.82113768  1
  Sb  Sb13  1  0.96243071  0.50086615  0.18410582  1
  Sb  Sb14  1  0.39504431  0.50241551  0.45080644  1
  Sb  Sb15  1  0.60688411  0.46719233  0.55030369  1
  Sb  Sb16  1  0.53365140  0.99406176  0.80816517  1
  Sb  Sb17  1  0.46520890  0.01973217  0.19055948  1
  S  S18  1  0.93843578  0.00812844  0.80838608  1
  S  S19  1  0.06398258  0.97170248  0.20051085  1
  S  S20  1  0.41794222  0.95635480  0.98225999  1
  S  S21  1  0.58013710  0.03404012  0.01258557  1
  S  S22  1  0.17165898  0.05315614  0.90211898  1
  S  S23  1  0.82878175  0.04953398  0.09918441  1
  S  S24  1  0.09394097  0.48277213  0.64715840  1
  S  S25  1  0.91442146  0.48886107  0.35637955  1
  S  S26  1  0.73664421  0.95544502  0.30033245  1
  S  S27  1  0.26269028  0.00910777  0.70853766  1
  S  S28  1  0.16067104  0.50950199  0.42311668  1
  S  S29  1  0.82323450  0.48785793  0.55082637  1
  S  S30  1  0.43005085  0.49248630  0.79811624  1
  S  S31  1  0.55303816  0.52751823  0.18121076  1
  S  S32  1  0.91239836  0.48884668  0.98761206  1
  S  S33  1  0.09277754  0.49452567  0.03400556  1
  S  S34  1  0.66218881  0.51943333  0.88608537  1
  S  S35  1  0.33129302  0.50643593  0.10065986  1
  S  S36  1  0.60000282  0.99644067  0.65869189  1
  S  S37  1  0.40106938  0.98819962  0.34178663  1
  S  S38  1  0.23926127  0.46973850  0.31114902  1
  S  S39  1  0.76122137  0.50974647  0.69234274  1
  S  S40  1  0.66728009  0.03307962  0.44949852  1
  S  S41  1  0.32974953  0.98015235  0.55642090  1
