# generated using pymatgen
data_Pr2Mn3(SbS3)4
_symmetry_space_group_name_H-M   'P 1'
_cell_length_a   20.02960800
_cell_length_b   3.90410600
_cell_length_c   14.95364829
_cell_angle_alpha   90.00000000
_cell_angle_beta   126.33350609
_cell_angle_gamma   90.00000000
_symmetry_Int_Tables_number   1
_chemical_formula_structural   Pr2Mn3(SbS3)4
_chemical_formula_sum   'Pr4 Mn6 Sb8 S24'
_cell_volume   942.00006694
_cell_formula_units_Z   2
loop_
 _symmetry_equiv_pos_site_id
 _symmetry_equiv_pos_as_xyz
  1  'x, y, z'
loop_
 _atom_site_type_symbol
 _atom_site_label
 _atom_site_symmetry_multiplicity
 _atom_site_fract_x
 _atom_site_fract_y
 _atom_site_fract_z
 _atom_site_occupancy
  Pr  Pr0  1  0.26064944  0.51238370  0.85764379  1
  Pr  Pr1  1  0.73580562  0.50820187  0.14167416  1
  Pr  Pr2  1  0.76407108  0.98331511  0.87194554  1
  Pr  Pr3  1  0.24362304  0.98895602  0.14865634  1
  Mn  Mn4  1  0.29083828  0.49365570  0.59395282  1
  Mn  Mn5  1  0.69313164  0.45172439  0.37417789  1
  Mn  Mn6  1  0.99580075  0.97896081  0.99425552  1
  Mn  Mn7  1  0.79802296  0.94861632  0.59718892  1
  Mn  Mn8  1  0.19690402  0.94851663  0.40637403  1
  Mn  Mn9  1  0.49583781  0.54076897  0.00206975  1
  Sb  Sb10  1  0.90038227  0.98320357  0.45491159  1
  Sb  Sb11  1  0.10583861  0.04547735  0.55404935  1
  Sb  Sb12  1  0.03179798  0.53440427  0.81241401  1
  Sb  Sb13  1  0.96432592  0.50897471  0.19075786  1
  Sb  Sb14  1  0.39266043  0.50012484  0.45351596  1
  Sb  Sb15  1  0.61960380  0.48510458  0.57360712  1
  Sb  Sb16  1  0.53975738  0.03786667  0.81947058  1
  Sb  Sb17  1  0.45375674  0.00120717  0.18479728  1
  S  S18  1  0.93630360  0.98187407  0.79828613  1
  S  S19  1  0.06477592  0.97119944  0.21634117  1
  S  S20  1  0.41293226  0.97569999  0.98828479  1
  S  S21  1  0.58181059  0.01787198  0.01749103  1
  S  S22  1  0.17805296  0.99233070  0.90513306  1
  S  S23  1  0.82198604  0.01476933  0.10975802  1
  S  S24  1  0.09224299  0.50773287  0.65708823  1
  S  S25  1  0.89804645  0.49763084  0.33738144  1
  S  S26  1  0.73639109  0.02732805  0.30765282  1
  S  S27  1  0.25916760  0.98238462  0.68910263  1
  S  S28  1  0.15784895  0.43441329  0.45157596  1
  S  S29  1  0.82318533  0.49678215  0.54057069  1
  S  S30  1  0.43420701  0.55027757  0.79973966  1
  S  S31  1  0.56297668  0.46739614  0.19543231  1
  S  S32  1  0.92239398  0.48729648  0.99380808  1
  S  S33  1  0.07974038  0.49311637  0.01049465  1
  S  S34  1  0.67350203  0.48373054  0.91244963  1
  S  S35  1  0.32628896  0.50727422  0.08523234  1
  S  S36  1  0.59714499  0.95272309  0.67063892  1
  S  S37  1  0.41244897  0.00226548  0.36820312  1
  S  S38  1  0.24277597  0.52257257  0.30011921  1
  S  S39  1  0.76396362  0.44671501  0.70864981  1
  S  S40  1  0.66559629  0.00252221  0.43716157  1
  S  S41  1  0.32753495  0.01518824  0.53796230  1
