# generated using pymatgen
data_Pr2Mn3(SbS3)4
_symmetry_space_group_name_H-M   'P 1'
_cell_length_a   20.02960800
_cell_length_b   3.90410600
_cell_length_c   14.95364829
_cell_angle_alpha   90.00000000
_cell_angle_beta   126.33350609
_cell_angle_gamma   90.00000000
_symmetry_Int_Tables_number   1
_chemical_formula_structural   Pr2Mn3(SbS3)4
_chemical_formula_sum   'Pr4 Mn6 Sb8 S24'
_cell_volume   942.00006694
_cell_formula_units_Z   2
loop_
 _symmetry_equiv_pos_site_id
 _symmetry_equiv_pos_as_xyz
  1  'x, y, z'
loop_
 _atom_site_type_symbol
 _atom_site_label
 _atom_site_symmetry_multiplicity
 _atom_site_fract_x
 _atom_site_fract_y
 _atom_site_fract_z
 _atom_site_occupancy
  Pr  Pr0  1  0.26075823  0.51256005  0.85761769  1
  Pr  Pr1  1  0.73575721  0.50877512  0.14158831  1
  Pr  Pr2  1  0.76404639  0.98237361  0.87204472  1
  Pr  Pr3  1  0.24372635  0.98831057  0.14852160  1
  Mn  Mn4  1  0.29089546  0.49201043  0.59391460  1
  Mn  Mn5  1  0.69319835  0.45225366  0.37425336  1
  Mn  Mn6  1  0.99582476  0.97879301  0.99416489  1
  Mn  Mn7  1  0.79778443  0.94810647  0.59678249  1
  Mn  Mn8  1  0.19696434  0.94781205  0.40649303  1
  Mn  Mn9  1  0.49572654  0.54128302  0.00198314  1
  Sb  Sb10  1  0.90028187  0.98326306  0.45473458  1
  Sb  Sb11  1  0.10591703  0.04562206  0.55421824  1
  Sb  Sb12  1  0.03163910  0.53498401  0.81235206  1
  Sb  Sb13  1  0.96456153  0.50914059  0.19087682  1
  Sb  Sb14  1  0.39280834  0.50059713  0.45356490  1
  Sb  Sb15  1  0.61977438  0.48488347  0.57387121  1
  Sb  Sb16  1  0.53986365  0.03721515  0.81948106  1
  Sb  Sb17  1  0.45381369  0.00075846  0.18490610  1
  S  S18  1  0.93648087  0.98171019  0.79832096  1
  S  S19  1  0.06509449  0.97233205  0.21662255  1
  S  S20  1  0.41298751  0.97688259  0.98781216  1
  S  S21  1  0.58177038  0.01701146  0.01774904  1
  S  S22  1  0.17797426  0.99201430  0.90531492  1
  S  S23  1  0.82214110  0.01469672  0.11035591  1
  S  S24  1  0.09212500  0.50859022  0.65707511  1
  S  S25  1  0.89784763  0.49834481  0.33688114  1
  S  S26  1  0.73657206  0.02657954  0.30776550  1
  S  S27  1  0.25923910  0.98409094  0.68895758  1
  S  S28  1  0.15789666  0.43352783  0.45136049  1
  S  S29  1  0.82336349  0.49734859  0.54048362  1
  S  S30  1  0.43410867  0.54807915  0.79959836  1
  S  S31  1  0.56294466  0.46883553  0.19577182  1
  S  S32  1  0.92231073  0.48712479  0.99388880  1
  S  S33  1  0.08002924  0.49236480  0.01042122  1
  S  S34  1  0.67365220  0.48243992  0.91252724  1
  S  S35  1  0.32573573  0.50834967  0.08488421  1
  S  S36  1  0.59700809  0.95259076  0.67041386  1
  S  S37  1  0.41214210  0.00390632  0.36853037  1
  S  S38  1  0.24284006  0.52090173  0.29986871  1
  S  S39  1  0.76410964  0.44582395  0.70815621  1
  S  S40  1  0.66562754  0.00228341  0.43700899  1
  S  S41  1  0.32715568  0.01286451  0.53780779  1
