# generated using pymatgen
data_Pr2Mn3(SbS3)4
_symmetry_space_group_name_H-M   'P 1'
_cell_length_a   20.02960800
_cell_length_b   3.90410600
_cell_length_c   14.95364829
_cell_angle_alpha   90.00000000
_cell_angle_beta   126.33350609
_cell_angle_gamma   90.00000000
_symmetry_Int_Tables_number   1
_chemical_formula_structural   Pr2Mn3(SbS3)4
_chemical_formula_sum   'Pr4 Mn6 Sb8 S24'
_cell_volume   942.00006694
_cell_formula_units_Z   2
loop_
 _symmetry_equiv_pos_site_id
 _symmetry_equiv_pos_as_xyz
  1  'x, y, z'
loop_
 _atom_site_type_symbol
 _atom_site_label
 _atom_site_symmetry_multiplicity
 _atom_site_fract_x
 _atom_site_fract_y
 _atom_site_fract_z
 _atom_site_occupancy
  Pr  Pr0  1  0.26088181  0.51279018  0.85761781  1
  Pr  Pr1  1  0.73564073  0.50932661  0.14149173  1
  Pr  Pr2  1  0.76401143  0.98152544  0.87216682  1
  Pr  Pr3  1  0.24373168  0.98774828  0.14822039  1
  Mn  Mn4  1  0.29091091  0.49091980  0.59403018  1
  Mn  Mn5  1  0.69333213  0.45302540  0.37443800  1
  Mn  Mn6  1  0.99588116  0.97891141  0.99412636  1
  Mn  Mn7  1  0.79756143  0.94769252  0.59629938  1
  Mn  Mn8  1  0.19707764  0.94766677  0.40667889  1
  Mn  Mn9  1  0.49578147  0.54219975  0.00206487  1
  Sb  Sb10  1  0.90016480  0.98323823  0.45456058  1
  Sb  Sb11  1  0.10595991  0.04587093  0.55433461  1
  Sb  Sb12  1  0.03151689  0.53543131  0.81240744  1
  Sb  Sb13  1  0.96472039  0.50917618  0.19092201  1
  Sb  Sb14  1  0.39301838  0.50099803  0.45365638  1
  Sb  Sb15  1  0.61992503  0.48443551  0.57413209  1
  Sb  Sb16  1  0.53997924  0.03683770  0.81951705  1
  Sb  Sb17  1  0.45395299  0.00027449  0.18512671  1
  S  S18  1  0.93657030  0.98107082  0.79828650  1
  S  S19  1  0.06531536  0.97373513  0.21665794  1
  S  S20  1  0.41318281  0.97793945  0.98752741  1
  S  S21  1  0.58168070  0.01678169  0.01783102  1
  S  S22  1  0.17783191  0.99152302  0.90550038  1
  S  S23  1  0.82240310  0.01505777  0.11094640  1
  S  S24  1  0.09223224  0.50913959  0.65728556  1
  S  S25  1  0.89762692  0.49923835  0.33645262  1
  S  S26  1  0.73675023  0.02640194  0.30790772  1
  S  S27  1  0.25936482  0.98620503  0.68890028  1
  S  S28  1  0.15787970  0.43299131  0.45121560  1
  S  S29  1  0.82336528  0.49802743  0.54020948  1
  S  S30  1  0.43395298  0.54577060  0.79949770  1
  S  S31  1  0.56295213  0.47045652  0.19597958  1
  S  S32  1  0.92210228  0.48706663  0.99385084  1
  S  S33  1  0.08030157  0.49163864  0.01027519  1
  S  S34  1  0.67386375  0.48089853  0.91263024  1
  S  S35  1  0.32526984  0.50845267  0.08462155  1
  S  S36  1  0.59690077  0.95271405  0.67026413  1
  S  S37  1  0.41188538  0.00551085  0.36876632  1
  S  S38  1  0.24278559  0.51863084  0.29966485  1
  S  S39  1  0.76424848  0.44480527  0.70790024  1
  S  S40  1  0.66571389  0.00175940  0.43688581  1
  S  S41  1  0.32683752  0.01049626  0.53783448  1
