# generated using pymatgen
data_Pr2Mn3(SbS3)4
_symmetry_space_group_name_H-M   'P 1'
_cell_length_a   20.02960800
_cell_length_b   3.90410600
_cell_length_c   14.95364829
_cell_angle_alpha   90.00000000
_cell_angle_beta   126.33350609
_cell_angle_gamma   90.00000000
_symmetry_Int_Tables_number   1
_chemical_formula_structural   Pr2Mn3(SbS3)4
_chemical_formula_sum   'Pr4 Mn6 Sb8 S24'
_cell_volume   942.00006694
_cell_formula_units_Z   2
loop_
 _symmetry_equiv_pos_site_id
 _symmetry_equiv_pos_as_xyz
  1  'x, y, z'
loop_
 _atom_site_type_symbol
 _atom_site_label
 _atom_site_symmetry_multiplicity
 _atom_site_fract_x
 _atom_site_fract_y
 _atom_site_fract_z
 _atom_site_occupancy
  Pr  Pr0  1  0.26098531  0.51290871  0.85759038  1
  Pr  Pr1  1  0.73555699  0.51004661  0.14136105  1
  Pr  Pr2  1  0.76399335  0.98084383  0.87234533  1
  Pr  Pr3  1  0.24370918  0.98730258  0.14791373  1
  Mn  Mn4  1  0.29094861  0.49024811  0.59413530  1
  Mn  Mn5  1  0.69341575  0.45403300  0.37447020  1
  Mn  Mn6  1  0.99597113  0.97908679  0.99419720  1
  Mn  Mn7  1  0.79731634  0.94706519  0.59579967  1
  Mn  Mn8  1  0.19729330  0.94724774  0.40691746  1
  Mn  Mn9  1  0.49587618  0.54311552  0.00226974  1
  Sb  Sb10  1  0.90015571  0.98308192  0.45446045  1
  Sb  Sb11  1  0.10604365  0.04573235  0.55439732  1
  Sb  Sb12  1  0.03138687  0.53554376  0.81241697  1
  Sb  Sb13  1  0.96483108  0.50898905  0.19089276  1
  Sb  Sb14  1  0.39323433  0.50144272  0.45382894  1
  Sb  Sb15  1  0.62004022  0.48378821  0.57429758  1
  Sb  Sb16  1  0.54009821  0.03656759  0.81951712  1
  Sb  Sb17  1  0.45411957  0.99997803  0.18535985  1
  S  S18  1  0.93670425  0.98082216  0.79823537  1
  S  S19  1  0.06545851  0.97500790  0.21682248  1
  S  S20  1  0.41326984  0.97894360  0.98724069  1
  S  S21  1  0.58155358  0.01653390  0.01774527  1
  S  S22  1  0.17771849  0.99081482  0.90559478  1
  S  S23  1  0.82271647  0.01555224  0.11128148  1
  S  S24  1  0.09242115  0.50991160  0.65759655  1
  S  S25  1  0.89741700  0.49999826  0.33614440  1
  S  S26  1  0.73674526  0.02636051  0.30789203  1
  S  S27  1  0.25947544  0.98814789  0.68896250  1
  S  S28  1  0.15784743  0.43203522  0.45094708  1
  S  S29  1  0.82329267  0.49853132  0.53986789  1
  S  S30  1  0.43392666  0.54300162  0.79958833  1
  S  S31  1  0.56287928  0.47237372  0.19612751  1
  S  S32  1  0.92190591  0.48734158  0.99383970  1
  S  S33  1  0.08054504  0.49040546  0.01011258  1
  S  S34  1  0.67409372  0.48002486  0.91260550  1
  S  S35  1  0.32487882  0.50872451  0.08449701  1
  S  S36  1  0.59681957  0.95276679  0.67034667  1
  S  S37  1  0.41150015  0.00682433  0.36867551  1
  S  S38  1  0.24269676  0.51651964  0.29929219  1
  S  S39  1  0.76441622  0.44374642  0.70765379  1
  S  S40  1  0.66578896  0.00158223  0.43671173  1
  S  S41  1  0.32636499  0.00887425  0.53767164  1
