# generated using pymatgen
data_Pr2Mn3(SbS3)4
_symmetry_space_group_name_H-M   'P 1'
_cell_length_a   20.02960800
_cell_length_b   3.90410600
_cell_length_c   14.95364829
_cell_angle_alpha   90.00000000
_cell_angle_beta   126.33350609
_cell_angle_gamma   90.00000000
_symmetry_Int_Tables_number   1
_chemical_formula_structural   Pr2Mn3(SbS3)4
_chemical_formula_sum   'Pr4 Mn6 Sb8 S24'
_cell_volume   942.00006694
_cell_formula_units_Z   2
loop_
 _symmetry_equiv_pos_site_id
 _symmetry_equiv_pos_as_xyz
  1  'x, y, z'
loop_
 _atom_site_type_symbol
 _atom_site_label
 _atom_site_symmetry_multiplicity
 _atom_site_fract_x
 _atom_site_fract_y
 _atom_site_fract_z
 _atom_site_occupancy
  Pr  Pr0  1  0.26104900  0.51322632  0.85752311  1
  Pr  Pr1  1  0.73548151  0.51090528  0.14115799  1
  Pr  Pr2  1  0.76403049  0.97982369  0.87259672  1
  Pr  Pr3  1  0.24378229  0.98736896  0.14777862  1
  Mn  Mn4  1  0.29089107  0.48969790  0.59418873  1
  Mn  Mn5  1  0.69341704  0.45476634  0.37441320  1
  Mn  Mn6  1  0.99610725  0.97955607  0.99430564  1
  Mn  Mn7  1  0.79715547  0.94636679  0.59537691  1
  Mn  Mn8  1  0.19736733  0.94676398  0.40693804  1
  Mn  Mn9  1  0.49603503  0.54356075  0.00275208  1
  Sb  Sb10  1  0.90019921  0.98285988  0.45442577  1
  Sb  Sb11  1  0.10610166  0.04570944  0.55435244  1
  Sb  Sb12  1  0.03123401  0.53589674  0.81244633  1
  Sb  Sb13  1  0.96499177  0.50896796  0.19100057  1
  Sb  Sb14  1  0.39335496  0.50192080  0.45399841  1
  Sb  Sb15  1  0.62019382  0.48335264  0.57454031  1
  Sb  Sb16  1  0.54020115  0.03611055  0.81953286  1
  Sb  Sb17  1  0.45427810  0.99966401  0.18552654  1
  S  S18  1  0.93683392  0.98096709  0.79805250  1
  S  S19  1  0.06567325  0.97635489  0.21723492  1
  S  S20  1  0.41346837  0.97950880  0.98704744  1
  S  S21  1  0.58140271  0.01610740  0.01779576  1
  S  S22  1  0.17763898  0.98962465  0.90582259  1
  S  S23  1  0.82309129  0.01628268  0.11147295  1
  S  S24  1  0.09253036  0.51088116  0.65797171  1
  S  S25  1  0.89718551  0.50042095  0.33587950  1
  S  S26  1  0.73663577  0.02613102  0.30780415  1
  S  S27  1  0.25959980  0.99035640  0.68887393  1
  S  S28  1  0.15773673  0.43149798  0.45053384  1
  S  S29  1  0.82325341  0.49908506  0.53962117  1
  S  S30  1  0.43375774  0.54029564  0.79954885  1
  S  S31  1  0.56263619  0.47402973  0.19623178  1
  S  S32  1  0.92162872  0.48813164  0.99383693  1
  S  S33  1  0.08071484  0.48910160  0.00990168  1
  S  S34  1  0.67435434  0.47976983  0.91264960  1
  S  S35  1  0.32453848  0.50895444  0.08435350  1
  S  S36  1  0.59661120  0.95381363  0.67033803  1
  S  S37  1  0.41110350  0.00768650  0.36838923  1
  S  S38  1  0.24269625  0.51488502  0.29898539  1
  S  S39  1  0.76460549  0.44285859  0.70748853  1
  S  S40  1  0.66591828  0.00095178  0.43657883  1
  S  S41  1  0.32598774  0.00737125  0.53764247  1
