# generated using pymatgen
data_Pr2Mn3(SbS3)4
_symmetry_space_group_name_H-M   'P 1'
_cell_length_a   20.02960800
_cell_length_b   3.90410600
_cell_length_c   14.95364829
_cell_angle_alpha   90.00000000
_cell_angle_beta   126.33350609
_cell_angle_gamma   90.00000000
_symmetry_Int_Tables_number   1
_chemical_formula_structural   Pr2Mn3(SbS3)4
_chemical_formula_sum   'Pr4 Mn6 Sb8 S24'
_cell_volume   942.00006694
_cell_formula_units_Z   2
loop_
 _symmetry_equiv_pos_site_id
 _symmetry_equiv_pos_as_xyz
  1  'x, y, z'
loop_
 _atom_site_type_symbol
 _atom_site_label
 _atom_site_symmetry_multiplicity
 _atom_site_fract_x
 _atom_site_fract_y
 _atom_site_fract_z
 _atom_site_occupancy
  Pr  Pr0  1  0.26107519  0.51338783  0.85741894  1
  Pr  Pr1  1  0.73535942  0.51167964  0.14091143  1
  Pr  Pr2  1  0.76405324  0.97898589  0.87287436  1
  Pr  Pr3  1  0.24384988  0.98744026  0.14771742  1
  Mn  Mn4  1  0.29082011  0.48889374  0.59410401  1
  Mn  Mn5  1  0.69351101  0.45623009  0.37450747  1
  Mn  Mn6  1  0.99627895  0.98000799  0.99439566  1
  Mn  Mn7  1  0.79699819  0.94611121  0.59503723  1
  Mn  Mn8  1  0.19742270  0.94619658  0.40686905  1
  Mn  Mn9  1  0.49608814  0.54422364  0.00320077  1
  Sb  Sb10  1  0.90020332  0.98269399  0.45432576  1
  Sb  Sb11  1  0.10619300  0.04563842  0.55436636  1
  Sb  Sb12  1  0.03112543  0.53613573  0.81247532  1
  Sb  Sb13  1  0.96519779  0.50872458  0.19109376  1
  Sb  Sb14  1  0.39339948  0.50225214  0.45409128  1
  Sb  Sb15  1  0.62026453  0.48283250  0.57473055  1
  Sb  Sb16  1  0.54024303  0.03556330  0.81951703  1
  Sb  Sb17  1  0.45439073  0.99940041  0.18563573  1
  S  S18  1  0.93697991  0.98120073  0.79782306  1
  S  S19  1  0.06573784  0.97776200  0.21735760  1
  S  S20  1  0.41358680  0.97936648  0.98692565  1
  S  S21  1  0.58136088  0.01541356  0.01798540  1
  S  S22  1  0.17768463  0.98827990  0.90608408  1
  S  S23  1  0.82334566  0.01757458  0.11155161  1
  S  S24  1  0.09257025  0.51172833  0.65807853  1
  S  S25  1  0.89687030  0.50037313  0.33558518  1
  S  S26  1  0.73657894  0.02573253  0.30770017  1
  S  S27  1  0.25967573  0.99283834  0.68892211  1
  S  S28  1  0.15760124  0.43100173  0.45016407  1
  S  S29  1  0.82311121  0.49934679  0.53919068  1
  S  S30  1  0.43349844  0.53812123  0.79957706  1
  S  S31  1  0.56233411  0.47520848  0.19624209  1
  S  S32  1  0.92140675  0.48851634  0.99402064  1
  S  S33  1  0.08086840  0.48762249  0.00968824  1
  S  S34  1  0.67450469  0.47981595  0.91268733  1
  S  S35  1  0.32423857  0.50835247  0.08416482  1
  S  S36  1  0.59637780  0.95462724  0.67038891  1
  S  S37  1  0.41072471  0.00834757  0.36797902  1
  S  S38  1  0.24264572  0.51391037  0.29870693  1
  S  S39  1  0.76471932  0.44127669  0.70718701  1
  S  S40  1  0.66604382  0.99962130  0.43649166  1
  S  S41  1  0.32572604  0.00601140  0.53769177  1
