# generated using pymatgen
data_Pr2Mn3(SbS3)4
_symmetry_space_group_name_H-M   'P 1'
_cell_length_a   20.02960800
_cell_length_b   3.90410600
_cell_length_c   14.95364829
_cell_angle_alpha   90.00000000
_cell_angle_beta   126.33350609
_cell_angle_gamma   90.00000000
_symmetry_Int_Tables_number   1
_chemical_formula_structural   Pr2Mn3(SbS3)4
_chemical_formula_sum   'Pr4 Mn6 Sb8 S24'
_cell_volume   942.00006694
_cell_formula_units_Z   2
loop_
 _symmetry_equiv_pos_site_id
 _symmetry_equiv_pos_as_xyz
  1  'x, y, z'
loop_
 _atom_site_type_symbol
 _atom_site_label
 _atom_site_symmetry_multiplicity
 _atom_site_fract_x
 _atom_site_fract_y
 _atom_site_fract_z
 _atom_site_occupancy
  Pr  Pr0  1  0.26110125  0.51383447  0.85732682  1
  Pr  Pr1  1  0.73518448  0.51202954  0.14067888  1
  Pr  Pr2  1  0.76410151  0.97831440  0.87319858  1
  Pr  Pr3  1  0.24391841  0.98752737  0.14771397  1
  Mn  Mn4  1  0.29066256  0.48863176  0.59393174  1
  Mn  Mn5  1  0.69360167  0.45749637  0.37451897  1
  Mn  Mn6  1  0.99636562  0.98052123  0.99429688  1
  Mn  Mn7  1  0.79676045  0.94597868  0.59467873  1
  Mn  Mn8  1  0.19747557  0.94596315  0.40674270  1
  Mn  Mn9  1  0.49621259  0.54470782  0.00369443  1
  Sb  Sb10  1  0.90019437  0.98258748  0.45420007  1
  Sb  Sb11  1  0.10634723  0.04551174  0.55440656  1
  Sb  Sb12  1  0.03102971  0.53677717  0.81254542  1
  Sb  Sb13  1  0.96542141  0.50854003  0.19113098  1
  Sb  Sb14  1  0.39338936  0.50255818  0.45407573  1
  Sb  Sb15  1  0.62034949  0.48246660  0.57482837  1
  Sb  Sb16  1  0.54034480  0.03549334  0.81961809  1
  Sb  Sb17  1  0.45440345  0.99939244  0.18563680  1
  S  S18  1  0.93714872  0.98096156  0.79764079  1
  S  S19  1  0.06573885  0.97943846  0.21721920  1
  S  S20  1  0.41355190  0.97928225  0.98679221  1
  S  S21  1  0.58133671  0.01469509  0.01816770  1
  S  S22  1  0.17757577  0.98690730  0.90619544  1
  S  S23  1  0.82370022  0.01845199  0.11173507  1
  S  S24  1  0.09263685  0.51274049  0.65810585  1
  S  S25  1  0.89672018  0.50041373  0.33543683  1
  S  S26  1  0.73664951  0.02571996  0.30762318  1
  S  S27  1  0.25961314  0.99433060  0.68864375  1
  S  S28  1  0.15745653  0.43036419  0.44975428  1
  S  S29  1  0.82294447  0.49936812  0.53863190  1
  S  S30  1  0.43341954  0.53647710  0.79984100  1
  S  S31  1  0.56203753  0.47586839  0.19620886  1
  S  S32  1  0.92114395  0.48872460  0.99408564  1
  S  S33  1  0.08093487  0.48670477  0.00954069  1
  S  S34  1  0.67464443  0.48021116  0.91269532  1
  S  S35  1  0.32393662  0.50761668  0.08401804  1
  S  S36  1  0.59618716  0.95541495  0.67028883  1
  S  S37  1  0.41026425  0.00923755  0.36763469  1
  S  S38  1  0.24273898  0.51320354  0.29860670  1
  S  S39  1  0.76454757  0.43924374  0.70676707  1
  S  S40  1  0.66607138  0.99890835  0.43627726  1
  S  S41  1  0.32552373  0.00547316  0.53779989  1
