# generated using pymatgen
data_Pr2Mn3(SbS3)4
_symmetry_space_group_name_H-M   'P 1'
_cell_length_a   20.02960800
_cell_length_b   3.90410600
_cell_length_c   14.95364829
_cell_angle_alpha   90.00000000
_cell_angle_beta   126.33350609
_cell_angle_gamma   90.00000000
_symmetry_Int_Tables_number   1
_chemical_formula_structural   Pr2Mn3(SbS3)4
_chemical_formula_sum   'Pr4 Mn6 Sb8 S24'
_cell_volume   942.00006694
_cell_formula_units_Z   2
loop_
 _symmetry_equiv_pos_site_id
 _symmetry_equiv_pos_as_xyz
  1  'x, y, z'
loop_
 _atom_site_type_symbol
 _atom_site_label
 _atom_site_symmetry_multiplicity
 _atom_site_fract_x
 _atom_site_fract_y
 _atom_site_fract_z
 _atom_site_occupancy
  Pr  Pr0  1  0.26105378  0.51420931  0.85720063  1
  Pr  Pr1  1  0.73501988  0.51237042  0.14052799  1
  Pr  Pr2  1  0.76412913  0.97754425  0.87351040  1
  Pr  Pr3  1  0.24402408  0.98755921  0.14767598  1
  Mn  Mn4  1  0.29051154  0.48891579  0.59370798  1
  Mn  Mn5  1  0.69368181  0.45903331  0.37456538  1
  Mn  Mn6  1  0.99639203  0.98093734  0.99418760  1
  Mn  Mn7  1  0.79663146  0.94602504  0.59462436  1
  Mn  Mn8  1  0.19759872  0.94542223  0.40679018  1
  Mn  Mn9  1  0.49630118  0.54557157  0.00410467  1
  Sb  Sb10  1  0.90022773  0.98258782  0.45410867  1
  Sb  Sb11  1  0.10653674  0.04515348  0.55450626  1
  Sb  Sb12  1  0.03084722  0.53787568  0.81257015  1
  Sb  Sb13  1  0.96562180  0.50829083  0.19122450  1
  Sb  Sb14  1  0.39343315  0.50282051  0.45411743  1
  Sb  Sb15  1  0.62047766  0.48235932  0.57497551  1
  Sb  Sb16  1  0.54045275  0.03549568  0.81970009  1
  Sb  Sb17  1  0.45443046  0.99929305  0.18567906  1
  S  S18  1  0.93750251  0.98052707  0.79759589  1
  S  S19  1  0.06567809  0.98114595  0.21683936  1
  S  S20  1  0.41351539  0.97879257  0.98667518  1
  S  S21  1  0.58138849  0.01456863  0.01852243  1
  S  S22  1  0.17751087  0.98556853  0.90623369  1
  S  S23  1  0.82415083  0.01884754  0.11187889  1
  S  S24  1  0.09283828  0.51356417  0.65841506  1
  S  S25  1  0.89671971  0.50075472  0.33547894  1
  S  S26  1  0.73672805  0.02582610  0.30760264  1
  S  S27  1  0.25960156  0.99582172  0.68848936  1
  S  S28  1  0.15731129  0.42958785  0.44945929  1
  S  S29  1  0.82277033  0.49887603  0.53820443  1
  S  S30  1  0.43329280  0.53504735  0.80022500  1
  S  S31  1  0.56171093  0.47661421  0.19619159  1
  S  S32  1  0.92083922  0.48941432  0.99414284  1
  S  S33  1  0.08092355  0.48573053  0.00939933  1
  S  S34  1  0.67474152  0.47985097  0.91270889  1
  S  S35  1  0.32358110  0.50657812  0.08369801  1
  S  S36  1  0.59610572  0.95652609  0.67022906  1
  S  S37  1  0.40984088  0.01004698  0.36730844  1
  S  S38  1  0.24269657  0.51233442  0.29841373  1
  S  S39  1  0.76452586  0.43671767  0.70647731  1
  S  S40  1  0.66591296  0.99857401  0.43585652  1
  S  S41  1  0.32532725  0.00536575  0.53799049  1
