# generated using pymatgen
data_Pr2Mn3(SbS3)4
_symmetry_space_group_name_H-M   'P 1'
_cell_length_a   20.02960800
_cell_length_b   3.90410600
_cell_length_c   14.95364829
_cell_angle_alpha   90.00000000
_cell_angle_beta   126.33350609
_cell_angle_gamma   90.00000000
_symmetry_Int_Tables_number   1
_chemical_formula_structural   Pr2Mn3(SbS3)4
_chemical_formula_sum   'Pr4 Mn6 Sb8 S24'
_cell_volume   942.00006694
_cell_formula_units_Z   2
loop_
 _symmetry_equiv_pos_site_id
 _symmetry_equiv_pos_as_xyz
  1  'x, y, z'
loop_
 _atom_site_type_symbol
 _atom_site_label
 _atom_site_symmetry_multiplicity
 _atom_site_fract_x
 _atom_site_fract_y
 _atom_site_fract_z
 _atom_site_occupancy
  Pr  Pr0  1  0.26095232  0.51436215  0.85702295  1
  Pr  Pr1  1  0.73476367  0.51259428  0.14033252  1
  Pr  Pr2  1  0.76424805  0.97684688  0.87392518  1
  Pr  Pr3  1  0.24410247  0.98755668  0.14765121  1
  Mn  Mn4  1  0.29046118  0.48947544  0.59350546  1
  Mn  Mn5  1  0.69380323  0.46030391  0.37455492  1
  Mn  Mn6  1  0.99644546  0.98112378  0.99410694  1
  Mn  Mn7  1  0.79658296  0.94597196  0.59463107  1
  Mn  Mn8  1  0.19762332  0.94501657  0.40684272  1
  Mn  Mn9  1  0.49646562  0.54649644  0.00448425  1
  Sb  Sb10  1  0.90020670  0.98289206  0.45408281  1
  Sb  Sb11  1  0.10665669  0.04480350  0.55460113  1
  Sb  Sb12  1  0.03067653  0.53885042  0.81261102  1
  Sb  Sb13  1  0.96588315  0.50794311  0.19138929  1
  Sb  Sb14  1  0.39350246  0.50288820  0.45415633  1
  Sb  Sb15  1  0.62059285  0.48206820  0.57519570  1
  Sb  Sb16  1  0.54051967  0.03605505  0.81970738  1
  Sb  Sb17  1  0.45443445  0.99934314  0.18575421  1
  S  S18  1  0.93792031  0.98064589  0.79765231  1
  S  S19  1  0.06565299  0.98262977  0.21660746  1
  S  S20  1  0.41356546  0.97831495  0.98644067  1
  S  S21  1  0.58147941  0.01463795  0.01906558  1
  S  S22  1  0.17733822  0.98394878  0.90627299  1
  S  S23  1  0.82466802  0.01931248  0.11222339  1
  S  S24  1  0.09299498  0.51477783  0.65872776  1
  S  S25  1  0.89692875  0.50106982  0.33580168  1
  S  S26  1  0.73673122  0.02568894  0.30756051  1
  S  S27  1  0.25957182  0.99709854  0.68821385  1
  S  S28  1  0.15720093  0.42881989  0.44930517  1
  S  S29  1  0.82243039  0.49880115  0.53766441  1
  S  S30  1  0.43308706  0.53296283  0.80071689  1
  S  S31  1  0.56146053  0.47788443  0.19624022  1
  S  S32  1  0.92049976  0.49025176  0.99404567  1
  S  S33  1  0.08106889  0.48454042  0.00941298  1
  S  S34  1  0.67482967  0.47996155  0.91272109  1
  S  S35  1  0.32327848  0.50620002  0.08337226  1
  S  S36  1  0.59596664  0.95752621  0.67001089  1
  S  S37  1  0.40932372  0.01047314  0.36703614  1
  S  S38  1  0.24265784  0.51111507  0.29827658  1
  S  S39  1  0.76466892  0.43379960  0.70626768  1
  S  S40  1  0.66585676  0.99824108  0.43572945  1
  S  S41  1  0.32526688  0.00606918  0.53827636  1
