# generated using pymatgen
data_Pr2Mn3(SbS3)4
_symmetry_space_group_name_H-M   'P 1'
_cell_length_a   20.02960800
_cell_length_b   3.90410600
_cell_length_c   14.95364829
_cell_angle_alpha   90.00000000
_cell_angle_beta   126.33350609
_cell_angle_gamma   90.00000000
_symmetry_Int_Tables_number   1
_chemical_formula_structural   Pr2Mn3(SbS3)4
_chemical_formula_sum   'Pr4 Mn6 Sb8 S24'
_cell_volume   942.00006694
_cell_formula_units_Z   2
loop_
 _symmetry_equiv_pos_site_id
 _symmetry_equiv_pos_as_xyz
  1  'x, y, z'
loop_
 _atom_site_type_symbol
 _atom_site_label
 _atom_site_symmetry_multiplicity
 _atom_site_fract_x
 _atom_site_fract_y
 _atom_site_fract_z
 _atom_site_occupancy
  Pr  Pr0  1  0.26087909  0.51468766  0.85691860  1
  Pr  Pr1  1  0.73463286  0.51285800  0.14030295  1
  Pr  Pr2  1  0.76439227  0.97611383  0.87428967  1
  Pr  Pr3  1  0.24413119  0.98737592  0.14756351  1
  Mn  Mn4  1  0.29036309  0.49008368  0.59337069  1
  Mn  Mn5  1  0.69389553  0.46138895  0.37459006  1
  Mn  Mn6  1  0.99656529  0.98140472  0.99403868  1
  Mn  Mn7  1  0.79664058  0.94637632  0.59478260  1
  Mn  Mn8  1  0.19758087  0.94447620  0.40679984  1
  Mn  Mn9  1  0.49662392  0.54720414  0.00468610  1
  Sb  Sb10  1  0.90018649  0.98307160  0.45410261  1
  Sb  Sb11  1  0.10675839  0.04401470  0.55469261  1
  Sb  Sb12  1  0.03047661  0.53959944  0.81263001  1
  Sb  Sb13  1  0.96619825  0.50758048  0.19154270  1
  Sb  Sb14  1  0.39348329  0.50294487  0.45414583  1
  Sb  Sb15  1  0.62066493  0.48164504  0.57540866  1
  Sb  Sb16  1  0.54057844  0.03666090  0.81965502  1
  Sb  Sb17  1  0.45448077  0.99984776  0.18575086  1
  S  S18  1  0.93815158  0.98004097  0.79776161  1
  S  S19  1  0.06541752  0.98416325  0.21622428  1
  S  S20  1  0.41357163  0.97788117  0.98625462  1
  S  S21  1  0.58144224  0.01478874  0.01956074  1
  S  S22  1  0.17705805  0.98282779  0.90612411  1
  S  S23  1  0.82508313  0.01979124  0.11251588  1
  S  S24  1  0.09324052  0.51505772  0.65930059  1
  S  S25  1  0.89711175  0.50147950  0.33621883  1
  S  S26  1  0.73677311  0.02562228  0.30752362  1
  S  S27  1  0.25941911  0.99890262  0.68779282  1
  S  S28  1  0.15742463  0.42825874  0.44948696  1
  S  S29  1  0.82211793  0.49862604  0.53713791  1
  S  S30  1  0.43287455  0.53106690  0.80126362  1
  S  S31  1  0.56152906  0.47876543  0.19663852  1
  S  S32  1  0.92024069  0.49148511  0.99419379  1
  S  S33  1  0.08107888  0.48305161  0.00924211  1
  S  S34  1  0.67491960  0.48054887  0.91281089  1
  S  S35  1  0.32305502  0.50622171  0.08313409  1
  S  S36  1  0.59572561  0.95869662  0.66972795  1
  S  S37  1  0.40888573  0.01068614  0.36679503  1
  S  S38  1  0.24248677  0.51031519  0.29797096  1
  S  S39  1  0.76485341  0.43131619  0.70612969  1
  S  S40  1  0.66586114  0.99801482  0.43592893  1
  S  S41  1  0.32523221  0.00605233  0.53865415  1
