# generated using pymatgen
data_Pr2Mn3(SbS3)4
_symmetry_space_group_name_H-M   'P 1'
_cell_length_a   20.02960800
_cell_length_b   3.90410600
_cell_length_c   14.95364829
_cell_angle_alpha   90.00000000
_cell_angle_beta   126.33350609
_cell_angle_gamma   90.00000000
_symmetry_Int_Tables_number   1
_chemical_formula_structural   Pr2Mn3(SbS3)4
_chemical_formula_sum   'Pr4 Mn6 Sb8 S24'
_cell_volume   942.00006694
_cell_formula_units_Z   2
loop_
 _symmetry_equiv_pos_site_id
 _symmetry_equiv_pos_as_xyz
  1  'x, y, z'
loop_
 _atom_site_type_symbol
 _atom_site_label
 _atom_site_symmetry_multiplicity
 _atom_site_fract_x
 _atom_site_fract_y
 _atom_site_fract_z
 _atom_site_occupancy
  Pr  Pr0  1  0.26658364  0.49728942  0.86408485  1
  Pr  Pr1  1  0.73545533  0.51117725  0.13574597  1
  Pr  Pr2  1  0.76336588  0.01277045  0.86097075  1
  Pr  Pr3  1  0.23479899  0.99597384  0.13466235  1
  Mn  Mn4  1  0.28819691  0.48007785  0.58897556  1
  Mn  Mn5  1  0.68573419  0.47048426  0.36688361  1
  Mn  Mn6  1  0.00866090  0.99250213  0.01944321  1
  Mn  Mn7  1  0.80407184  0.01432081  0.61924773  1
  Mn  Mn8  1  0.19845865  0.97638756  0.37337789  1
  Mn  Mn9  1  0.49126383  0.47898420  0.99053071  1
  Sb  Sb10  1  0.89015691  0.98532399  0.45111576  1
  Sb  Sb11  1  0.11174611  0.98145536  0.54475576  1
  Sb  Sb12  1  0.03793480  0.52018537  0.82110297  1
  Sb  Sb13  1  0.96258185  0.50094049  0.18431545  1
  Sb  Sb14  1  0.39512944  0.50189866  0.45085254  1
  Sb  Sb15  1  0.60683746  0.46653810  0.55036604  1
  Sb  Sb16  1  0.53370773  0.99385304  0.80815893  1
  Sb  Sb17  1  0.46523193  0.02026120  0.19059764  1
  S  S18  1  0.93851714  0.00829832  0.80892084  1
  S  S19  1  0.06389461  0.97164660  0.20035922  1
  S  S20  1  0.41824688  0.95620657  0.98255651  1
  S  S21  1  0.58049976  0.03431429  0.01310893  1
  S  S22  1  0.17169039  0.05383636  0.90212478  1
  S  S23  1  0.82893492  0.04971430  0.09940670  1
  S  S24  1  0.09397538  0.48280219  0.64739955  1
  S  S25  1  0.91437663  0.48887975  0.35633188  1
  S  S26  1  0.73656507  0.95555240  0.30029957  1
  S  S27  1  0.26276108  0.00980083  0.70864501  1
  S  S28  1  0.16060483  0.51044476  0.42351273  1
  S  S29  1  0.82326645  0.48773534  0.55091167  1
  S  S30  1  0.43003551  0.49160106  0.79810331  1
  S  S31  1  0.55275259  0.52733529  0.18098952  1
  S  S32  1  0.91257831  0.48886976  0.98774593  1
  S  S33  1  0.09282880  0.49654008  0.03419921  1
  S  S34  1  0.66220194  0.52072131  0.88612386  1
  S  S35  1  0.33110920  0.50703298  0.10032105  1
  S  S36  1  0.60017871  0.99674285  0.65886363  1
  S  S37  1  0.40113443  0.98684582  0.34188918  1
  S  S38  1  0.23942622  0.47076543  0.31138700  1
  S  S39  1  0.76139222  0.51057701  0.69220437  1
  S  S40  1  0.66712414  0.03257383  0.44946088  1
  S  S41  1  0.32973614  0.97993396  0.55663868  1
