# generated using pymatgen
data_Pr2Mn3(SbS3)4
_symmetry_space_group_name_H-M   'P 1'
_cell_length_a   20.02960800
_cell_length_b   3.90410600
_cell_length_c   14.95364829
_cell_angle_alpha   90.00000000
_cell_angle_beta   126.33350609
_cell_angle_gamma   90.00000000
_symmetry_Int_Tables_number   1
_chemical_formula_structural   Pr2Mn3(SbS3)4
_chemical_formula_sum   'Pr4 Mn6 Sb8 S24'
_cell_volume   942.00006694
_cell_formula_units_Z   2
loop_
 _symmetry_equiv_pos_site_id
 _symmetry_equiv_pos_as_xyz
  1  'x, y, z'
loop_
 _atom_site_type_symbol
 _atom_site_label
 _atom_site_symmetry_multiplicity
 _atom_site_fract_x
 _atom_site_fract_y
 _atom_site_fract_z
 _atom_site_occupancy
  Pr  Pr0  1  0.26089595  0.51495407  0.85694387  1
  Pr  Pr1  1  0.73447299  0.51287184  0.14029043  1
  Pr  Pr2  1  0.76446950  0.97518913  0.87458726  1
  Pr  Pr3  1  0.24418344  0.98728236  0.14739052  1
  Mn  Mn4  1  0.29033076  0.49102999  0.59344505  1
  Mn  Mn5  1  0.69386295  0.46253614  0.37432380  1
  Mn  Mn6  1  0.99673206  0.98161748  0.99409320  1
  Mn  Mn7  1  0.79665982  0.94622743  0.59487460  1
  Mn  Mn8  1  0.19753866  0.94385951  0.40684050  1
  Mn  Mn9  1  0.49682095  0.54748853  0.00480989  1
  Sb  Sb10  1  0.90003672  0.98306654  0.45408041  1
  Sb  Sb11  1  0.10680830  0.04323946  0.55476038  1
  Sb  Sb12  1  0.03027975  0.54042230  0.81259769  1
  Sb  Sb13  1  0.96642221  0.50724101  0.19163312  1
  Sb  Sb14  1  0.39351968  0.50319801  0.45420649  1
  Sb  Sb15  1  0.62074366  0.48102398  0.57567440  1
  Sb  Sb16  1  0.54071063  0.03705920  0.81962565  1
  Sb  Sb17  1  0.45453009  0.00030973  0.18570166  1
  S  S18  1  0.93825491  0.98043155  0.79781485  1
  S  S19  1  0.06527892  0.98623678  0.21560868  1
  S  S20  1  0.41367504  0.97737380  0.98616721  1
  S  S21  1  0.58127401  0.01499328  0.01979984  1
  S  S22  1  0.17680383  0.98157367  0.90589346  1
  S  S23  1  0.82563955  0.02021241  0.11304301  1
  S  S24  1  0.09347681  0.51551218  0.65980731  1
  S  S25  1  0.89723254  0.50075130  0.33657727  1
  S  S26  1  0.73668721  0.02483908  0.30737566  1
  S  S27  1  0.25938053  0.00063913  0.68766649  1
  S  S28  1  0.15771917  0.42785344  0.44977259  1
  S  S29  1  0.82186574  0.49873623  0.53670809  1
  S  S30  1  0.43269419  0.52989255  0.80165145  1
  S  S31  1  0.56153930  0.47974786  0.19690132  1
  S  S32  1  0.92005411  0.49312734  0.99459169  1
  S  S33  1  0.08111294  0.48183495  0.00926263  1
  S  S34  1  0.67501932  0.48138332  0.91271579  1
  S  S35  1  0.32292273  0.50655294  0.08290012  1
  S  S36  1  0.59553070  0.96015206  0.66940032  1
  S  S37  1  0.40848376  0.01100222  0.36653933  1
  S  S38  1  0.24244257  0.50902097  0.29792542  1
  S  S39  1  0.76495596  0.42883966  0.70579669  1
  S  S40  1  0.66583696  0.99767486  0.43633530  1
  S  S41  1  0.32524774  0.00581464  0.53899504  1
