# generated using pymatgen
data_Pr2Mn3(SbS3)4
_symmetry_space_group_name_H-M   'P 1'
_cell_length_a   20.02960800
_cell_length_b   3.90410600
_cell_length_c   14.95364829
_cell_angle_alpha   90.00000000
_cell_angle_beta   126.33350609
_cell_angle_gamma   90.00000000
_symmetry_Int_Tables_number   1
_chemical_formula_structural   Pr2Mn3(SbS3)4
_chemical_formula_sum   'Pr4 Mn6 Sb8 S24'
_cell_volume   942.00006694
_cell_formula_units_Z   2
loop_
 _symmetry_equiv_pos_site_id
 _symmetry_equiv_pos_as_xyz
  1  'x, y, z'
loop_
 _atom_site_type_symbol
 _atom_site_label
 _atom_site_symmetry_multiplicity
 _atom_site_fract_x
 _atom_site_fract_y
 _atom_site_fract_z
 _atom_site_occupancy
  Pr  Pr0  1  0.26095074  0.51495828  0.85701403  1
  Pr  Pr1  1  0.73435817  0.51303319  0.14034129  1
  Pr  Pr2  1  0.76454451  0.97430336  0.87481511  1
  Pr  Pr3  1  0.24417039  0.98701914  0.14722520  1
  Mn  Mn4  1  0.29020729  0.49174905  0.59345279  1
  Mn  Mn5  1  0.69392242  0.46370153  0.37415043  1
  Mn  Mn6  1  0.99697003  0.98256341  0.99425596  1
  Mn  Mn7  1  0.79674145  0.94614289  0.59489323  1
  Mn  Mn8  1  0.19761755  0.94317386  0.40698116  1
  Mn  Mn9  1  0.49698419  0.54761109  0.00484107  1
  Sb  Sb10  1  0.89993626  0.98288523  0.45407853  1
  Sb  Sb11  1  0.10680236  0.04282551  0.55475452  1
  Sb  Sb12  1  0.03008196  0.54103381  0.81245884  1
  Sb  Sb13  1  0.96665846  0.50721581  0.19167971  1
  Sb  Sb14  1  0.39347368  0.50351907  0.45420910  1
  Sb  Sb15  1  0.62076092  0.48051371  0.57587812  1
  Sb  Sb16  1  0.54087811  0.03719576  0.81966290  1
  Sb  Sb17  1  0.45450971  0.00057710  0.18559173  1
  S  S18  1  0.93813940  0.98070305  0.79771098  1
  S  S19  1  0.06501381  0.98830243  0.21487176  1
  S  S20  1  0.41383724  0.97740578  0.98613443  1
  S  S21  1  0.58114628  0.01481936  0.01996655  1
  S  S22  1  0.17655870  0.98071284  0.90563498  1
  S  S23  1  0.82625157  0.02072558  0.11366872  1
  S  S24  1  0.09380617  0.51636369  0.66043670  1
  S  S25  1  0.89729448  0.49999392  0.33701241  1
  S  S26  1  0.73671399  0.02475696  0.30733425  1
  S  S27  1  0.25949117  0.00279124  0.68762953  1
  S  S28  1  0.15798265  0.42716686  0.44990400  1
  S  S29  1  0.82160867  0.49846554  0.53608850  1
  S  S30  1  0.43264378  0.52898715  0.80189172  1
  S  S31  1  0.56159007  0.48076102  0.19714026  1
  S  S32  1  0.92009306  0.49495101  0.99523078  1
  S  S33  1  0.08113630  0.48116108  0.00945259  1
  S  S34  1  0.67522649  0.48179866  0.91257623  1
  S  S35  1  0.32304549  0.50705330  0.08281029  1
  S  S36  1  0.59530875  0.96149980  0.66890441  1
  S  S37  1  0.40805427  0.01151580  0.36592197  1
  S  S38  1  0.24253360  0.50808681  0.29767739  1
  S  S39  1  0.76511624  0.42656013  0.70534033  1
  S  S40  1  0.66566976  0.99775062  0.43663328  1
  S  S41  1  0.32540038  0.00608916  0.53941209  1
