# generated using pymatgen
data_Pr2Mn3(SbS3)4
_symmetry_space_group_name_H-M   'P 1'
_cell_length_a   20.02960800
_cell_length_b   3.90410600
_cell_length_c   14.95364829
_cell_angle_alpha   90.00000000
_cell_angle_beta   126.33350609
_cell_angle_gamma   90.00000000
_symmetry_Int_Tables_number   1
_chemical_formula_structural   Pr2Mn3(SbS3)4
_chemical_formula_sum   'Pr4 Mn6 Sb8 S24'
_cell_volume   942.00006694
_cell_formula_units_Z   2
loop_
 _symmetry_equiv_pos_site_id
 _symmetry_equiv_pos_as_xyz
  1  'x, y, z'
loop_
 _atom_site_type_symbol
 _atom_site_label
 _atom_site_symmetry_multiplicity
 _atom_site_fract_x
 _atom_site_fract_y
 _atom_site_fract_z
 _atom_site_occupancy
  Pr  Pr0  1  0.26099752  0.51499095  0.85710586  1
  Pr  Pr1  1  0.73423745  0.51316108  0.14035103  1
  Pr  Pr2  1  0.76465123  0.97350112  0.87505863  1
  Pr  Pr3  1  0.24424401  0.98681628  0.14712906  1
  Mn  Mn4  1  0.29011139  0.49209171  0.59339400  1
  Mn  Mn5  1  0.69399205  0.46529724  0.37398821  1
  Mn  Mn6  1  0.99723270  0.98288133  0.99446126  1
  Mn  Mn7  1  0.79686116  0.94660980  0.59493969  1
  Mn  Mn8  1  0.19764596  0.94257343  0.40717326  1
  Mn  Mn9  1  0.49700650  0.54727133  0.00482339  1
  Sb  Sb10  1  0.89993598  0.98288843  0.45421304  1
  Sb  Sb11  1  0.10691821  0.04252116  0.55494237  1
  Sb  Sb12  1  0.02989309  0.54166617  0.81227003  1
  Sb  Sb13  1  0.96687366  0.50711442  0.19175346  1
  Sb  Sb14  1  0.39349060  0.50378476  0.45427777  1
  Sb  Sb15  1  0.62089141  0.48010959  0.57614399  1
  Sb  Sb16  1  0.54110755  0.03708639  0.81984683  1
  Sb  Sb17  1  0.45453751  0.00079572  0.18554736  1
  S  S18  1  0.93816313  0.98129171  0.79777549  1
  S  S19  1  0.06469870  0.99012478  0.21406209  1
  S  S20  1  0.41406126  0.97712302  0.98621343  1
  S  S21  1  0.58105403  0.01382042  0.02026348  1
  S  S22  1  0.17641022  0.98033200  0.90553631  1
  S  S23  1  0.82657249  0.02140542  0.11400104  1
  S  S24  1  0.09409981  0.51698911  0.66100478  1
  S  S25  1  0.89751563  0.49920127  0.33762146  1
  S  S26  1  0.73667927  0.02503775  0.30733691  1
  S  S27  1  0.25967369  0.00467260  0.68777337  1
  S  S28  1  0.15831247  0.42543658  0.45002030  1
  S  S29  1  0.82130154  0.49804076  0.53567324  1
  S  S30  1  0.43258666  0.52762164  0.80219689  1
  S  S31  1  0.56160356  0.48131039  0.19734686  1
  S  S32  1  0.91991101  0.49720856  0.99561189  1
  S  S33  1  0.08127558  0.47984241  0.00977967  1
  S  S34  1  0.67528979  0.48212828  0.91236513  1
  S  S35  1  0.32314572  0.50733953  0.08277713  1
  S  S36  1  0.59512079  0.96306877  0.66839320  1
  S  S37  1  0.40771999  0.01124942  0.36535240  1
  S  S38  1  0.24241117  0.50639420  0.29722980  1
  S  S39  1  0.76536402  0.42499311  0.70516476  1
  S  S40  1  0.66545606  0.99777967  0.43672754  1
  S  S41  1  0.32547516  0.00609822  0.53982678  1
