# generated using pymatgen
data_Pr2Mn3(SbS3)4
_symmetry_space_group_name_H-M   'P 1'
_cell_length_a   20.02960800
_cell_length_b   3.90410600
_cell_length_c   14.95364829
_cell_angle_alpha   90.00000000
_cell_angle_beta   126.33350609
_cell_angle_gamma   90.00000000
_symmetry_Int_Tables_number   1
_chemical_formula_structural   Pr2Mn3(SbS3)4
_chemical_formula_sum   'Pr4 Mn6 Sb8 S24'
_cell_volume   942.00006694
_cell_formula_units_Z   2
loop_
 _symmetry_equiv_pos_site_id
 _symmetry_equiv_pos_as_xyz
  1  'x, y, z'
loop_
 _atom_site_type_symbol
 _atom_site_label
 _atom_site_symmetry_multiplicity
 _atom_site_fract_x
 _atom_site_fract_y
 _atom_site_fract_z
 _atom_site_occupancy
  Pr  Pr0  1  0.26100966  0.51542678  0.85719853  1
  Pr  Pr1  1  0.73416578  0.51343815  0.14042262  1
  Pr  Pr2  1  0.76471052  0.97320514  0.87517462  1
  Pr  Pr3  1  0.24430278  0.98669340  0.14706418  1
  Mn  Mn4  1  0.29006807  0.49254031  0.59339784  1
  Mn  Mn5  1  0.69408169  0.46654423  0.37382662  1
  Mn  Mn6  1  0.99750149  0.98341719  0.99476343  1
  Mn  Mn7  1  0.79703729  0.94780778  0.59491503  1
  Mn  Mn8  1  0.19763016  0.94177212  0.40731270  1
  Mn  Mn9  1  0.49696453  0.54721062  0.00478196  1
  Sb  Sb10  1  0.89988482  0.98309162  0.45430469  1
  Sb  Sb11  1  0.10707750  0.04224067  0.55515006  1
  Sb  Sb12  1  0.02982585  0.54222379  0.81217823  1
  Sb  Sb13  1  0.96703989  0.50716334  0.19190944  1
  Sb  Sb14  1  0.39340798  0.50371804  0.45430026  1
  Sb  Sb15  1  0.62098098  0.47951380  0.57625930  1
  Sb  Sb16  1  0.54129270  0.03685467  0.81999827  1
  Sb  Sb17  1  0.45451449  0.00074837  0.18548261  1
  S  S18  1  0.93815980  0.98201302  0.79784436  1
  S  S19  1  0.06442001  0.99145250  0.21328150  1
  S  S20  1  0.41451253  0.97643249  0.98662767  1
  S  S21  1  0.58096836  0.01327561  0.02046588  1
  S  S22  1  0.17621047  0.97948475  0.90518238  1
  S  S23  1  0.82688100  0.02195157  0.11444091  1
  S  S24  1  0.09435444  0.51810001  0.66143214  1
  S  S25  1  0.89762422  0.49882033  0.33826418  1
  S  S26  1  0.73674175  0.02556635  0.30731004  1
  S  S27  1  0.25964538  0.00580549  0.68778907  1
  S  S28  1  0.15857655  0.42334098  0.45029810  1
  S  S29  1  0.82106968  0.49750003  0.53531525  1
  S  S30  1  0.43241001  0.52619974  0.80237628  1
  S  S31  1  0.56153294  0.48219231  0.19739628  1
  S  S32  1  0.91990062  0.49986212  0.99606624  1
  S  S33  1  0.08120785  0.47866141  0.00998694  1
  S  S34  1  0.67537600  0.48237601  0.91209855  1
  S  S35  1  0.32312571  0.50787037  0.08271340  1
  S  S36  1  0.59517624  0.96431766  0.66821694  1
  S  S37  1  0.40741819  0.01141716  0.36481583  1
  S  S38  1  0.24219964  0.50491027  0.29664339  1
  S  S39  1  0.76553676  0.42364269  0.70486212  1
  S  S40  1  0.66523785  0.99801854  0.43683773  1
  S  S41  1  0.32553979  0.00566005  0.54014840  1
