# generated using pymatgen
data_Pr2Mn3(SbS3)4
_symmetry_space_group_name_H-M   'P 1'
_cell_length_a   20.02960800
_cell_length_b   3.90410600
_cell_length_c   14.95364829
_cell_angle_alpha   90.00000000
_cell_angle_beta   126.33350609
_cell_angle_gamma   90.00000000
_symmetry_Int_Tables_number   1
_chemical_formula_structural   Pr2Mn3(SbS3)4
_chemical_formula_sum   'Pr4 Mn6 Sb8 S24'
_cell_volume   942.00006694
_cell_formula_units_Z   2
loop_
 _symmetry_equiv_pos_site_id
 _symmetry_equiv_pos_as_xyz
  1  'x, y, z'
loop_
 _atom_site_type_symbol
 _atom_site_label
 _atom_site_symmetry_multiplicity
 _atom_site_fract_x
 _atom_site_fract_y
 _atom_site_fract_z
 _atom_site_occupancy
  Pr  Pr0  1  0.26107703  0.51588082  0.85719367  1
  Pr  Pr1  1  0.73401944  0.51373128  0.14042606  1
  Pr  Pr2  1  0.76475840  0.97297531  0.87522867  1
  Pr  Pr3  1  0.24425934  0.98667658  0.14698835  1
  Mn  Mn4  1  0.28999457  0.49306407  0.59334528  1
  Mn  Mn5  1  0.69434968  0.46755390  0.37381840  1
  Mn  Mn6  1  0.99774862  0.98354991  0.99506891  1
  Mn  Mn7  1  0.79719639  0.94922040  0.59489874  1
  Mn  Mn8  1  0.19759107  0.94070590  0.40753668  1
  Mn  Mn9  1  0.49690852  0.54700364  0.00465333  1
  Sb  Sb10  1  0.89987755  0.98341073  0.45442787  1
  Sb  Sb11  1  0.10721089  0.04184597  0.55534126  1
  Sb  Sb12  1  0.02987880  0.54282064  0.81218739  1
  Sb  Sb13  1  0.96725940  0.50724182  0.19207685  1
  Sb  Sb14  1  0.39331947  0.50358438  0.45430101  1
  Sb  Sb15  1  0.62105951  0.47885319  0.57638588  1
  Sb  Sb16  1  0.54151956  0.03646693  0.82016220  1
  Sb  Sb17  1  0.45440664  0.00011055  0.18536206  1
  S  S18  1  0.93817110  0.98251613  0.79787004  1
  S  S19  1  0.06438474  0.99236075  0.21259757  1
  S  S20  1  0.41495963  0.97566510  0.98715788  1
  S  S21  1  0.58082929  0.01279840  0.02065277  1
  S  S22  1  0.17610752  0.97881451  0.90479756  1
  S  S23  1  0.82733551  0.02223678  0.11498400  1
  S  S24  1  0.09446780  0.51934273  0.66175269  1
  S  S25  1  0.89770405  0.49863973  0.33889335  1
  S  S26  1  0.73680090  0.02573821  0.30734933  1
  S  S27  1  0.25968236  0.00615344  0.68773811  1
  S  S28  1  0.15877655  0.42155880  0.45055154  1
  S  S29  1  0.82074292  0.49715767  0.53487473  1
  S  S30  1  0.43213950  0.52537910  0.80234791  1
  S  S31  1  0.56142418  0.48303281  0.19748160  1
  S  S32  1  0.91988737  0.50245609  0.99646068  1
  S  S33  1  0.08122844  0.47766809  0.01018024  1
  S  S34  1  0.67552617  0.48243760  0.91175637  1
  S  S35  1  0.32307356  0.50877263  0.08270960  1
  S  S36  1  0.59510798  0.96482903  0.66804216  1
  S  S37  1  0.40716572  0.01189936  0.36441219  1
  S  S38  1  0.24193093  0.50287977  0.29607005  1
  S  S39  1  0.76557429  0.42278092  0.70452678  1
  S  S40  1  0.66497532  0.99856009  0.43682731  1
  S  S41  1  0.32550433  0.00557573  0.54029044  1
