# generated using pymatgen
data_Pr2Mn3(SbS3)4
_symmetry_space_group_name_H-M   'P 1'
_cell_length_a   20.02960800
_cell_length_b   3.90410600
_cell_length_c   14.95364829
_cell_angle_alpha   90.00000000
_cell_angle_beta   126.33350609
_cell_angle_gamma   90.00000000
_symmetry_Int_Tables_number   1
_chemical_formula_structural   Pr2Mn3(SbS3)4
_chemical_formula_sum   'Pr4 Mn6 Sb8 S24'
_cell_volume   942.00006694
_cell_formula_units_Z   2
loop_
 _symmetry_equiv_pos_site_id
 _symmetry_equiv_pos_as_xyz
  1  'x, y, z'
loop_
 _atom_site_type_symbol
 _atom_site_label
 _atom_site_symmetry_multiplicity
 _atom_site_fract_x
 _atom_site_fract_y
 _atom_site_fract_z
 _atom_site_occupancy
  Pr  Pr0  1  0.26124779  0.51609887  0.85719064  1
  Pr  Pr1  1  0.73392557  0.51410769  0.14052361  1
  Pr  Pr2  1  0.76485039  0.97290262  0.87541652  1
  Pr  Pr3  1  0.24417943  0.98663040  0.14689156  1
  Mn  Mn4  1  0.28993702  0.49341254  0.59325739  1
  Mn  Mn5  1  0.69449662  0.46883655  0.37376437  1
  Mn  Mn6  1  0.99804479  0.98358194  0.99546615  1
  Mn  Mn7  1  0.79731373  0.95042173  0.59480552  1
  Mn  Mn8  1  0.19748540  0.94000018  0.40774617  1
  Mn  Mn9  1  0.49680454  0.54648287  0.00456157  1
  Sb  Sb10  1  0.89994800  0.98360693  0.45463578  1
  Sb  Sb11  1  0.10734051  0.04148481  0.55551171  1
  Sb  Sb12  1  0.02990300  0.54351626  0.81209670  1
  Sb  Sb13  1  0.96747194  0.50758806  0.19227975  1
  Sb  Sb14  1  0.39324141  0.50357054  0.45432367  1
  Sb  Sb15  1  0.62109628  0.47798712  0.57644011  1
  Sb  Sb16  1  0.54159642  0.03621265  0.82017335  1
  Sb  Sb17  1  0.45423823  0.99967150  0.18517683  1
  S  S18  1  0.93814826  0.98296499  0.79772909  1
  S  S19  1  0.06425217  0.99314571  0.21205636  1
  S  S20  1  0.41538521  0.97511288  0.98755042  1
  S  S21  1  0.58072099  0.01281129  0.02088380  1
  S  S22  1  0.17611756  0.97813697  0.90460334  1
  S  S23  1  0.82778339  0.02201454  0.11550260  1
  S  S24  1  0.09453189  0.52006326  0.66219309  1
  S  S25  1  0.89770264  0.49844009  0.33942410  1
  S  S26  1  0.73710180  0.02587016  0.30744656  1
  S  S27  1  0.25958549  0.00631208  0.68752935  1
  S  S28  1  0.15878856  0.41981776  0.45063737  1
  S  S29  1  0.82015329  0.49657938  0.53414827  1
  S  S30  1  0.43198042  0.52500736  0.80239802  1
  S  S31  1  0.56129691  0.48318107  0.19744346  1
  S  S32  1  0.91993068  0.50478585  0.99681803  1
  S  S33  1  0.08124828  0.47691154  0.01029545  1
  S  S34  1  0.67561445  0.48222150  0.91132289  1
  S  S35  1  0.32323850  0.50938272  0.08293471  1
  S  S36  1  0.59514214  0.96541509  0.66780597  1
  S  S37  1  0.40689553  0.01236305  0.36397721  1
  S  S38  1  0.24167664  0.50120263  0.29541969  1
  S  S39  1  0.76564472  0.42131976  0.70427480  1
  S  S40  1  0.66482864  0.99904760  0.43684594  1
  S  S41  1  0.32551155  0.00545368  0.54030024  1
