# generated using pymatgen
data_Pr2Mn3(SbS3)4
_symmetry_space_group_name_H-M   'P 1'
_cell_length_a   20.02960800
_cell_length_b   3.90410600
_cell_length_c   14.95364829
_cell_angle_alpha   90.00000000
_cell_angle_beta   126.33350609
_cell_angle_gamma   90.00000000
_symmetry_Int_Tables_number   1
_chemical_formula_structural   Pr2Mn3(SbS3)4
_chemical_formula_sum   'Pr4 Mn6 Sb8 S24'
_cell_volume   942.00006694
_cell_formula_units_Z   2
loop_
 _symmetry_equiv_pos_site_id
 _symmetry_equiv_pos_as_xyz
  1  'x, y, z'
loop_
 _atom_site_type_symbol
 _atom_site_label
 _atom_site_symmetry_multiplicity
 _atom_site_fract_x
 _atom_site_fract_y
 _atom_site_fract_z
 _atom_site_occupancy
  Pr  Pr0  1  0.26143909  0.51656691  0.85719376  1
  Pr  Pr1  1  0.73383646  0.51465979  0.14054739  1
  Pr  Pr2  1  0.76488647  0.97275154  0.87557962  1
  Pr  Pr3  1  0.24410580  0.98649965  0.14678848  1
  Mn  Mn4  1  0.28999575  0.49421169  0.59334784  1
  Mn  Mn5  1  0.69469150  0.46981433  0.37376279  1
  Mn  Mn6  1  0.99832968  0.98351486  0.99588122  1
  Mn  Mn7  1  0.79733217  0.95170720  0.59474565  1
  Mn  Mn8  1  0.19739955  0.93952119  0.40782367  1
  Mn  Mn9  1  0.49651413  0.54589932  0.00417176  1
  Sb  Sb10  1  0.89995379  0.98383894  0.45477245  1
  Sb  Sb11  1  0.10748998  0.04103922  0.55568863  1
  Sb  Sb12  1  0.02993098  0.54435736  0.81202061  1
  Sb  Sb13  1  0.96765670  0.50805587  0.19245527  1
  Sb  Sb14  1  0.39315343  0.50356725  0.45429925  1
  Sb  Sb15  1  0.62113517  0.47735919  0.57653810  1
  Sb  Sb16  1  0.54163935  0.03581935  0.82015591  1
  Sb  Sb17  1  0.45402003  0.99930736  0.18496794  1
  S  S18  1  0.93806272  0.98383480  0.79759144  1
  S  S19  1  0.06407913  0.99357246  0.21148205  1
  S  S20  1  0.41577125  0.97468811  0.98780624  1
  S  S21  1  0.58067627  0.01320301  0.02114407  1
  S  S22  1  0.17608819  0.97774661  0.90447985  1
  S  S23  1  0.82819100  0.02178301  0.11580657  1
  S  S24  1  0.09447140  0.52106898  0.66235069  1
  S  S25  1  0.89769027  0.49815479  0.33982585  1
  S  S26  1  0.73739696  0.02612378  0.30751195  1
  S  S27  1  0.25943406  0.00659317  0.68722769  1
  S  S28  1  0.15877498  0.41842536  0.45067883  1
  S  S29  1  0.81972477  0.49551853  0.53365495  1
  S  S30  1  0.43164466  0.52438129  0.80235998  1
  S  S31  1  0.56103014  0.48320575  0.19736774  1
  S  S32  1  0.91996299  0.50702874  0.99707765  1
  S  S33  1  0.08140253  0.47710655  0.01044513  1
  S  S34  1  0.67569551  0.48183861  0.91092247  1
  S  S35  1  0.32337668  0.50979389  0.08340618  1
  S  S36  1  0.59527970  0.96592307  0.66763168  1
  S  S37  1  0.40665110  0.01251506  0.36349701  1
  S  S38  1  0.24128993  0.49972478  0.29458422  1
  S  S39  1  0.76561763  0.42002560  0.70427955  1
  S  S40  1  0.66478161  0.99979670  0.43699485  1
  S  S41  1  0.32536746  0.00477166  0.54022573  1
