# generated using pymatgen
data_Pr2Mn3(SbS3)4
_symmetry_space_group_name_H-M   'P 1'
_cell_length_a   20.02960800
_cell_length_b   3.90410600
_cell_length_c   14.95364829
_cell_angle_alpha   90.00000000
_cell_angle_beta   126.33350609
_cell_angle_gamma   90.00000000
_symmetry_Int_Tables_number   1
_chemical_formula_structural   Pr2Mn3(SbS3)4
_chemical_formula_sum   'Pr4 Mn6 Sb8 S24'
_cell_volume   942.00006694
_cell_formula_units_Z   2
loop_
 _symmetry_equiv_pos_site_id
 _symmetry_equiv_pos_as_xyz
  1  'x, y, z'
loop_
 _atom_site_type_symbol
 _atom_site_label
 _atom_site_symmetry_multiplicity
 _atom_site_fract_x
 _atom_site_fract_y
 _atom_site_fract_z
 _atom_site_occupancy
  Pr  Pr0  1  0.26160082  0.51709839  0.85719579  1
  Pr  Pr1  1  0.73370329  0.51525949  0.14054791  1
  Pr  Pr2  1  0.76492819  0.97268613  0.87571261  1
  Pr  Pr3  1  0.24400176  0.98611961  0.14661337  1
  Mn  Mn4  1  0.29001179  0.49507563  0.59323668  1
  Mn  Mn5  1  0.69484981  0.47114671  0.37362589  1
  Mn  Mn6  1  0.99847282  0.98294684  0.99618764  1
  Mn  Mn7  1  0.79727889  0.95334551  0.59462643  1
  Mn  Mn8  1  0.19730367  0.93848306  0.40769663  1
  Mn  Mn9  1  0.49621665  0.54519735  0.00377902  1
  Sb  Sb10  1  0.90002314  0.98427376  0.45483679  1
  Sb  Sb11  1  0.10753246  0.04059581  0.55577804  1
  Sb  Sb12  1  0.02995552  0.54504220  0.81183867  1
  Sb  Sb13  1  0.96784888  0.50829264  0.19264903  1
  Sb  Sb14  1  0.39307182  0.50332596  0.45425646  1
  Sb  Sb15  1  0.62128611  0.47711129  0.57664265  1
  Sb  Sb16  1  0.54175786  0.03550827  0.82025959  1
  Sb  Sb17  1  0.45386595  0.99928036  0.18481877  1
  S  S18  1  0.93814854  0.98484024  0.79771593  1
  S  S19  1  0.06399909  0.99411679  0.21095516  1
  S  S20  1  0.41625205  0.97429404  0.98822486  1
  S  S21  1  0.58073853  0.01421821  0.02159925  1
  S  S22  1  0.17604090  0.97663691  0.90459525  1
  S  S23  1  0.82852347  0.02112725  0.11608747  1
  S  S24  1  0.09453933  0.52171006  0.66248016  1
  S  S25  1  0.89767263  0.49808827  0.34022909  1
  S  S26  1  0.73778141  0.02642092  0.30766542  1
  S  S27  1  0.25940995  0.00675799  0.68717602  1
  S  S28  1  0.15879409  0.41712356  0.45079590  1
  S  S29  1  0.81931767  0.49425720  0.53314345  1
  S  S30  1  0.43140678  0.52412146  0.80252443  1
  S  S31  1  0.56085506  0.48370652  0.19737498  1
  S  S32  1  0.91995280  0.50898414  0.99727483  1
  S  S33  1  0.08152907  0.47718293  0.01061408  1
  S  S34  1  0.67576918  0.48135001  0.91050918  1
  S  S35  1  0.32364346  0.51020357  0.08394201  1
  S  S36  1  0.59550071  0.96718629  0.66750612  1
  S  S37  1  0.40640091  0.01275627  0.36277625  1
  S  S38  1  0.24097549  0.49863069  0.29393651  1
  S  S39  1  0.76554600  0.41858663  0.70422366  1
  S  S40  1  0.66464968  0.00075257  0.43713566  1
  S  S41  1  0.32530697  0.00368749  0.54025784  1
