# generated using pymatgen
data_Pr2Mn3(SbS3)4
_symmetry_space_group_name_H-M   'P 1'
_cell_length_a   20.02960800
_cell_length_b   3.90410600
_cell_length_c   14.95364829
_cell_angle_alpha   90.00000000
_cell_angle_beta   126.33350609
_cell_angle_gamma   90.00000000
_symmetry_Int_Tables_number   1
_chemical_formula_structural   Pr2Mn3(SbS3)4
_chemical_formula_sum   'Pr4 Mn6 Sb8 S24'
_cell_volume   942.00006694
_cell_formula_units_Z   2
loop_
 _symmetry_equiv_pos_site_id
 _symmetry_equiv_pos_as_xyz
  1  'x, y, z'
loop_
 _atom_site_type_symbol
 _atom_site_label
 _atom_site_symmetry_multiplicity
 _atom_site_fract_x
 _atom_site_fract_y
 _atom_site_fract_z
 _atom_site_occupancy
  Pr  Pr0  1  0.26176990  0.51751838  0.85721455  1
  Pr  Pr1  1  0.73357290  0.51587481  0.14046382  1
  Pr  Pr2  1  0.76486204  0.97268784  0.87573075  1
  Pr  Pr3  1  0.24394731  0.98555469  0.14641801  1
  Mn  Mn4  1  0.29014086  0.49550481  0.59326277  1
  Mn  Mn5  1  0.69502578  0.47219492  0.37350310  1
  Mn  Mn6  1  0.99863842  0.98233177  0.99663774  1
  Mn  Mn7  1  0.79717612  0.95521248  0.59429046  1
  Mn  Mn8  1  0.19729298  0.93756339  0.40753400  1
  Mn  Mn9  1  0.49596710  0.54441398  0.00338416  1
  Sb  Sb10  1  0.90000328  0.98488558  0.45483662  1
  Sb  Sb11  1  0.10755205  0.03995354  0.55599575  1
  Sb  Sb12  1  0.02999001  0.54587780  0.81174110  1
  Sb  Sb13  1  0.96797692  0.50885763  0.19280933  1
  Sb  Sb14  1  0.39295198  0.50318786  0.45410811  1
  Sb  Sb15  1  0.62146324  0.47670641  0.57675108  1
  Sb  Sb16  1  0.54180291  0.03540818  0.82038901  1
  Sb  Sb17  1  0.45366417  0.99922326  0.18463378  1
  S  S18  1  0.93820386  0.98606225  0.79789421  1
  S  S19  1  0.06402915  0.99415831  0.21080406  1
  S  S20  1  0.41659441  0.97425945  0.98846076  1
  S  S21  1  0.58062319  0.01471105  0.02183908  1
  S  S22  1  0.17592286  0.97616623  0.90459118  1
  S  S23  1  0.82896162  0.02059090  0.11651753  1
  S  S24  1  0.09475856  0.52191500  0.66281844  1
  S  S25  1  0.89762350  0.49792069  0.34054371  1
  S  S26  1  0.73815913  0.02596290  0.30774738  1
  S  S27  1  0.25949916  0.00649103  0.68709821  1
  S  S28  1  0.15872708  0.41617161  0.45073431  1
  S  S29  1  0.81888784  0.49270679  0.53256431  1
  S  S30  1  0.43124427  0.52349091  0.80272134  1
  S  S31  1  0.56070741  0.48478936  0.19739184  1
  S  S32  1  0.92012498  0.51115389  0.99757561  1
  S  S33  1  0.08164937  0.47818368  0.01085854  1
  S  S34  1  0.67577071  0.48023108  0.91012704  1
  S  S35  1  0.32396445  0.51131444  0.08437838  1
  S  S36  1  0.59577982  0.96874755  0.66745096  1
  S  S37  1  0.40628725  0.01282757  0.36213811  1
  S  S38  1  0.24054432  0.49749471  0.29303473  1
  S  S39  1  0.76550920  0.41702622  0.70411084  1
  S  S40  1  0.66446281  0.00119945  0.43728534  1
  S  S41  1  0.32526667  0.00235094  0.54031348  1
