# generated using pymatgen
data_Pr2Mn3(SbS3)4
_symmetry_space_group_name_H-M   'P 1'
_cell_length_a   20.02960800
_cell_length_b   3.90410600
_cell_length_c   14.95364829
_cell_angle_alpha   90.00000000
_cell_angle_beta   126.33350609
_cell_angle_gamma   90.00000000
_symmetry_Int_Tables_number   1
_chemical_formula_structural   Pr2Mn3(SbS3)4
_chemical_formula_sum   'Pr4 Mn6 Sb8 S24'
_cell_volume   942.00006694
_cell_formula_units_Z   2
loop_
 _symmetry_equiv_pos_site_id
 _symmetry_equiv_pos_as_xyz
  1  'x, y, z'
loop_
 _atom_site_type_symbol
 _atom_site_label
 _atom_site_symmetry_multiplicity
 _atom_site_fract_x
 _atom_site_fract_y
 _atom_site_fract_z
 _atom_site_occupancy
  Pr  Pr0  1  0.26192068  0.51792430  0.85725810  1
  Pr  Pr1  1  0.73342795  0.51635805  0.14038320  1
  Pr  Pr2  1  0.76484531  0.97244645  0.87571607  1
  Pr  Pr3  1  0.24391488  0.98523437  0.14626267  1
  Mn  Mn4  1  0.29035409  0.49566976  0.59332033  1
  Mn  Mn5  1  0.69518646  0.47309461  0.37321429  1
  Mn  Mn6  1  0.99875462  0.98190789  0.99693887  1
  Mn  Mn7  1  0.79698366  0.95732545  0.59406581  1
  Mn  Mn8  1  0.19720108  0.93694414  0.40741495  1
  Mn  Mn9  1  0.49578159  0.54382638  0.00317547  1
  Sb  Sb10  1  0.89996101  0.98555500  0.45479862  1
  Sb  Sb11  1  0.10743765  0.03955405  0.55615572  1
  Sb  Sb12  1  0.03003478  0.54644048  0.81164838  1
  Sb  Sb13  1  0.96805990  0.50957621  0.19297662  1
  Sb  Sb14  1  0.39288869  0.50265059  0.45404298  1
  Sb  Sb15  1  0.62158334  0.47637826  0.57679146  1
  Sb  Sb16  1  0.54171887  0.03542769  0.82048334  1
  Sb  Sb17  1  0.45347542  0.99910031  0.18441200  1
  S  S18  1  0.93825405  0.98732302  0.79805863  1
  S  S19  1  0.06395865  0.99377318  0.21047418  1
  S  S20  1  0.41688978  0.97450490  0.98893630  1
  S  S21  1  0.58066955  0.01530460  0.02212882  1
  S  S22  1  0.17569441  0.97562778  0.90452953  1
  S  S23  1  0.82935098  0.02026488  0.11693717  1
  S  S24  1  0.09484912  0.52110921  0.66294257  1
  S  S25  1  0.89753917  0.49772583  0.34066196  1
  S  S26  1  0.73858475  0.02514246  0.30780561  1
  S  S27  1  0.25965671  0.00568546  0.68728904  1
  S  S28  1  0.15862801  0.41527782  0.45079600  1
  S  S29  1  0.81862135  0.49119816  0.53193092  1
  S  S30  1  0.43107028  0.52327456  0.80283880  1
  S  S31  1  0.56063924  0.48536490  0.19745894  1
  S  S32  1  0.92028166  0.51319194  0.99806044  1
  S  S33  1  0.08164329  0.47960532  0.01094592  1
  S  S34  1  0.67574891  0.47876778  0.90980684  1
  S  S35  1  0.32429207  0.51167191  0.08497166  1
  S  S36  1  0.59580928  0.97001788  0.66730349  1
  S  S37  1  0.40615737  0.01327319  0.36153106  1
  S  S38  1  0.24024633  0.49563937  0.29231448  1
  S  S39  1  0.76544310  0.41523371  0.70406854  1
  S  S40  1  0.66436344  0.00129280  0.43746800  1
  S  S41  1  0.32544708  0.00095656  0.54063082  1
