# generated using pymatgen
data_Pr2Mn3(SbS3)4
_symmetry_space_group_name_H-M   'P 1'
_cell_length_a   20.02960800
_cell_length_b   3.90410600
_cell_length_c   14.95364829
_cell_angle_alpha   90.00000000
_cell_angle_beta   126.33350609
_cell_angle_gamma   90.00000000
_symmetry_Int_Tables_number   1
_chemical_formula_structural   Pr2Mn3(SbS3)4
_chemical_formula_sum   'Pr4 Mn6 Sb8 S24'
_cell_volume   942.00006694
_cell_formula_units_Z   2
loop_
 _symmetry_equiv_pos_site_id
 _symmetry_equiv_pos_as_xyz
  1  'x, y, z'
loop_
 _atom_site_type_symbol
 _atom_site_label
 _atom_site_symmetry_multiplicity
 _atom_site_fract_x
 _atom_site_fract_y
 _atom_site_fract_z
 _atom_site_occupancy
  Pr  Pr0  1  0.26652671  0.49710270  0.86401884  1
  Pr  Pr1  1  0.73540386  0.51110552  0.13562703  1
  Pr  Pr2  1  0.76333265  0.01327130  0.86098373  1
  Pr  Pr3  1  0.23482239  0.99587169  0.13463245  1
  Mn  Mn4  1  0.28829107  0.48007441  0.58903864  1
  Mn  Mn5  1  0.68574376  0.47029187  0.36674950  1
  Mn  Mn6  1  0.00869548  0.99286871  0.01940337  1
  Mn  Mn7  1  0.80398940  0.01431932  0.61926743  1
  Mn  Mn8  1  0.19850011  0.97593394  0.37342289  1
  Mn  Mn9  1  0.49114443  0.47812946  0.99050548  1
  Sb  Sb10  1  0.89029407  0.98480409  0.45115601  1
  Sb  Sb11  1  0.11170521  0.98126318  0.54465164  1
  Sb  Sb12  1  0.03778850  0.52017994  0.82105307  1
  Sb  Sb13  1  0.96274430  0.50117242  0.18453963  1
  Sb  Sb14  1  0.39522710  0.50117693  0.45094595  1
  Sb  Sb15  1  0.60678668  0.46641637  0.55039143  1
  Sb  Sb16  1  0.53373047  0.99352094  0.80821412  1
  Sb  Sb17  1  0.46525932  0.02074628  0.19067974  1
  S  S18  1  0.93864349  0.00896686  0.80947821  1
  S  S19  1  0.06384881  0.97205314  0.20020057  1
  S  S20  1  0.41869782  0.95607602  0.98313906  1
  S  S21  1  0.58084260  0.03438109  0.01354734  1
  S  S22  1  0.17177477  0.05468032  0.90225202  1
  S  S23  1  0.82911145  0.05004702  0.09969861  1
  S  S24  1  0.09394776  0.48283224  0.64750221  1
  S  S25  1  0.91447436  0.48910917  0.35648446  1
  S  S26  1  0.73637393  0.95612765  0.30010837  1
  S  S27  1  0.26276433  0.01012380  0.70861990  1
  S  S28  1  0.16059198  0.51146831  0.42400493  1
  S  S29  1  0.82336666  0.48771929  0.55115299  1
  S  S30  1  0.43006766  0.49106097  0.79807915  1
  S  S31  1  0.55251764  0.52701132  0.18079011  1
  S  S32  1  0.91272149  0.48889627  0.98785713  1
  S  S33  1  0.09279584  0.49840951  0.03432042  1
  S  S34  1  0.66217545  0.52218135  0.88610898  1
  S  S35  1  0.33085226  0.50734363  0.09992091  1
  S  S36  1  0.60036273  0.99687391  0.65899216  1
  S  S37  1  0.40112716  0.98587333  0.34194564  1
  S  S38  1  0.23960228  0.47172945  0.31162198  1
  S  S39  1  0.76149966  0.51142952  0.69204633  1
  S  S40  1  0.66705097  0.03147755  0.44946628  1
  S  S41  1  0.32983377  0.97913574  0.55696902  1
