# generated using pymatgen
data_Pr2Mn3(SbS3)4
_symmetry_space_group_name_H-M   'P 1'
_cell_length_a   20.02960800
_cell_length_b   3.90410600
_cell_length_c   14.95364829
_cell_angle_alpha   90.00000000
_cell_angle_beta   126.33350609
_cell_angle_gamma   90.00000000
_symmetry_Int_Tables_number   1
_chemical_formula_structural   Pr2Mn3(SbS3)4
_chemical_formula_sum   'Pr4 Mn6 Sb8 S24'
_cell_volume   942.00006694
_cell_formula_units_Z   2
loop_
 _symmetry_equiv_pos_site_id
 _symmetry_equiv_pos_as_xyz
  1  'x, y, z'
loop_
 _atom_site_type_symbol
 _atom_site_label
 _atom_site_symmetry_multiplicity
 _atom_site_fract_x
 _atom_site_fract_y
 _atom_site_fract_z
 _atom_site_occupancy
  Pr  Pr0  1  0.26207585  0.51827668  0.85727243  1
  Pr  Pr1  1  0.73325229  0.51709649  0.14029026  1
  Pr  Pr2  1  0.76494001  0.97189388  0.87579677  1
  Pr  Pr3  1  0.24391491  0.98491432  0.14611939  1
  Mn  Mn4  1  0.29040273  0.49530539  0.59328806  1
  Mn  Mn5  1  0.69528875  0.47365353  0.37286331  1
  Mn  Mn6  1  0.99884039  0.98114944  0.99727111  1
  Mn  Mn7  1  0.79683822  0.95910782  0.59391416  1
  Mn  Mn8  1  0.19719915  0.93620627  0.40747681  1
  Mn  Mn9  1  0.49568251  0.54308539  0.00301027  1
  Sb  Sb10  1  0.89981107  0.98606709  0.45465228  1
  Sb  Sb11  1  0.10731567  0.03925006  0.55630294  1
  Sb  Sb12  1  0.03007731  0.54716227  0.81157875  1
  Sb  Sb13  1  0.96807864  0.50993265  0.19315605  1
  Sb  Sb14  1  0.39280641  0.50221863  0.45404378  1
  Sb  Sb15  1  0.62163540  0.47622317  0.57683483  1
  Sb  Sb16  1  0.54165770  0.03552515  0.82056284  1
  Sb  Sb17  1  0.45333872  0.99920852  0.18422626  1
  S  S18  1  0.93828106  0.98843274  0.79829195  1
  S  S19  1  0.06382465  0.99320960  0.21012287  1
  S  S20  1  0.41712172  0.97432550  0.98938350  1
  S  S21  1  0.58066730  0.01584664  0.02238761  1
  S  S22  1  0.17563872  0.97498804  0.90462872  1
  S  S23  1  0.82974321  0.02010615  0.11731796  1
  S  S24  1  0.09490741  0.51991912  0.66287086  1
  S  S25  1  0.89751943  0.49768804  0.34082788  1
  S  S26  1  0.73908284  0.02398140  0.30813084  1
  S  S27  1  0.25986732  0.00425646  0.68735163  1
  S  S28  1  0.15858127  0.41433511  0.45074631  1
  S  S29  1  0.81831437  0.48994617  0.53129878  1
  S  S30  1  0.43100335  0.52305399  0.80275405  1
  S  S31  1  0.56040909  0.48602334  0.19736317  1
  S  S32  1  0.92026620  0.51499261  0.99821161  1
  S  S33  1  0.08173502  0.48081025  0.01119825  1
  S  S34  1  0.67569573  0.47702640  0.90960507  1
  S  S35  1  0.32449334  0.51187183  0.08539360  1
  S  S36  1  0.59593408  0.97136835  0.66720997  1
  S  S37  1  0.40608456  0.01367821  0.36095334  1
  S  S38  1  0.24007576  0.49357869  0.29176392  1
  S  S39  1  0.76541901  0.41424078  0.70417139  1
  S  S40  1  0.66425941  0.00072982  0.43778579  1
  S  S41  1  0.32564870  0.00024167  0.54082939  1
