# generated using pymatgen
data_Pr2Mn3(SbS3)4
_symmetry_space_group_name_H-M   'P 1'
_cell_length_a   20.02960800
_cell_length_b   3.90410600
_cell_length_c   14.95364829
_cell_angle_alpha   90.00000000
_cell_angle_beta   126.33350609
_cell_angle_gamma   90.00000000
_symmetry_Int_Tables_number   1
_chemical_formula_structural   Pr2Mn3(SbS3)4
_chemical_formula_sum   'Pr4 Mn6 Sb8 S24'
_cell_volume   942.00006694
_cell_formula_units_Z   2
loop_
 _symmetry_equiv_pos_site_id
 _symmetry_equiv_pos_as_xyz
  1  'x, y, z'
loop_
 _atom_site_type_symbol
 _atom_site_label
 _atom_site_symmetry_multiplicity
 _atom_site_fract_x
 _atom_site_fract_y
 _atom_site_fract_z
 _atom_site_occupancy
  Pr  Pr0  1  0.26215540  0.51871970  0.85723569  1
  Pr  Pr1  1  0.73312990  0.51777528  0.14026235  1
  Pr  Pr2  1  0.76504157  0.97135685  0.87582989  1
  Pr  Pr3  1  0.24394293  0.98450443  0.14600384  1
  Mn  Mn4  1  0.29036954  0.49542732  0.59320087  1
  Mn  Mn5  1  0.69542632  0.47391405  0.37260859  1
  Mn  Mn6  1  0.99887161  0.98046032  0.99763934  1
  Mn  Mn7  1  0.79668139  0.96052048  0.59378585  1
  Mn  Mn8  1  0.19727763  0.93536124  0.40764479  1
  Mn  Mn9  1  0.49559875  0.54256448  0.00281087  1
  Sb  Sb10  1  0.89976236  0.98668797  0.45460757  1
  Sb  Sb11  1  0.10716411  0.03853331  0.55634539  1
  Sb  Sb12  1  0.03016326  0.54765494  0.81159420  1
  Sb  Sb13  1  0.96812544  0.51011875  0.19329447  1
  Sb  Sb14  1  0.39264408  0.50160451  0.45398644  1
  Sb  Sb15  1  0.62173036  0.47617182  0.57690339  1
  Sb  Sb16  1  0.54158946  0.03530500  0.82066760  1
  Sb  Sb17  1  0.45320980  0.99948340  0.18402301  1
  S  S18  1  0.93829698  0.98878006  0.79838328  1
  S  S19  1  0.06386538  0.99252564  0.20994381  1
  S  S20  1  0.41730616  0.97433542  0.98948045  1
  S  S21  1  0.58066588  0.01621360  0.02263976  1
  S  S22  1  0.17570617  0.97482552  0.90480026  1
  S  S23  1  0.83016815  0.01950225  0.11768434  1
  S  S24  1  0.09496216  0.51898470  0.66284632  1
  S  S25  1  0.89746247  0.49758649  0.34082431  1
  S  S26  1  0.73951610  0.02300231  0.30839542  1
  S  S27  1  0.26018924  0.00282992  0.68748966  1
  S  S28  1  0.15858329  0.41345156  0.45068973  1
  S  S29  1  0.81799524  0.48861213  0.53058402  1
  S  S30  1  0.43102562  0.52299135  0.80274126  1
  S  S31  1  0.56024492  0.48607591  0.19742814  1
  S  S32  1  0.92028239  0.51639440  0.99833447  1
  S  S33  1  0.08175819  0.48128059  0.01147565  1
  S  S34  1  0.67553734  0.47421401  0.90935584  1
  S  S35  1  0.32456138  0.51190927  0.08585639  1
  S  S36  1  0.59606756  0.97235785  0.66722430  1
  S  S37  1  0.40601881  0.01410778  0.36044194  1
  S  S38  1  0.24013259  0.49129070  0.29139099  1
  S  S39  1  0.76546165  0.41309237  0.70442484  1
  S  S40  1  0.66434248  0.99955693  0.43828000  1
  S  S41  1  0.32582112  0.00006085  0.54114051  1
