# generated using pymatgen
data_Pr2Mn3(SbS3)4
_symmetry_space_group_name_H-M   'P 1'
_cell_length_a   20.02960800
_cell_length_b   3.90410600
_cell_length_c   14.95364829
_cell_angle_alpha   90.00000000
_cell_angle_beta   126.33350609
_cell_angle_gamma   90.00000000
_symmetry_Int_Tables_number   1
_chemical_formula_structural   Pr2Mn3(SbS3)4
_chemical_formula_sum   'Pr4 Mn6 Sb8 S24'
_cell_volume   942.00006694
_cell_formula_units_Z   2
loop_
 _symmetry_equiv_pos_site_id
 _symmetry_equiv_pos_as_xyz
  1  'x, y, z'
loop_
 _atom_site_type_symbol
 _atom_site_label
 _atom_site_symmetry_multiplicity
 _atom_site_fract_x
 _atom_site_fract_y
 _atom_site_fract_z
 _atom_site_occupancy
  Pr  Pr0  1  0.26218944  0.51914606  0.85721025  1
  Pr  Pr1  1  0.73297633  0.51824702  0.14021315  1
  Pr  Pr2  1  0.76516482  0.97103963  0.87586259  1
  Pr  Pr3  1  0.24392349  0.98402514  0.14587468  1
  Mn  Mn4  1  0.29030102  0.49513654  0.59319291  1
  Mn  Mn5  1  0.69558482  0.47420207  0.37259548  1
  Mn  Mn6  1  0.99888467  0.97945135  0.99788573  1
  Mn  Mn7  1  0.79646497  0.96192989  0.59362891  1
  Mn  Mn8  1  0.19736826  0.93423154  0.40780178  1
  Mn  Mn9  1  0.49559338  0.54199413  0.00279167  1
  Sb  Sb10  1  0.89965795  0.98723714  0.45460223  1
  Sb  Sb11  1  0.10697696  0.03717975  0.55645734  1
  Sb  Sb12  1  0.03029415  0.54781626  0.81176551  1
  Sb  Sb13  1  0.96822969  0.51031187  0.19341651  1
  Sb  Sb14  1  0.39251581  0.50107697  0.45397921  1
  Sb  Sb15  1  0.62186293  0.47599474  0.57703446  1
  Sb  Sb16  1  0.54158064  0.03470156  0.82080851  1
  Sb  Sb17  1  0.45312919  0.99968280  0.18377715  1
  S  S18  1  0.93832092  0.98947834  0.79840271  1
  S  S19  1  0.06391533  0.99215700  0.20982494  1
  S  S20  1  0.41741986  0.97375152  0.98964241  1
  S  S21  1  0.58062165  0.01651418  0.02271106  1
  S  S22  1  0.17584192  0.97484571  0.90489031  1
  S  S23  1  0.83048021  0.01902219  0.11808394  1
  S  S24  1  0.09499726  0.51772983  0.66285645  1
  S  S25  1  0.89739907  0.49665547  0.34091324  1
  S  S26  1  0.73997735  0.02205174  0.30868578  1
  S  S27  1  0.26022461  0.00247845  0.68739362  1
  S  S28  1  0.15876817  0.41269378  0.45070004  1
  S  S29  1  0.81758122  0.48711552  0.52979190  1
  S  S30  1  0.43110554  0.52237056  0.80286360  1
  S  S31  1  0.55999609  0.48571101  0.19747197  1
  S  S32  1  0.92016129  0.51722262  0.99836487  1
  S  S33  1  0.08169795  0.48212675  0.01175484  1
  S  S34  1  0.67508374  0.47135276  0.90899759  1
  S  S35  1  0.32463581  0.51234167  0.08646747  1
  S  S36  1  0.59622434  0.97275812  0.66744246  1
  S  S37  1  0.40578521  0.01451372  0.35988501  1
  S  S38  1  0.24011380  0.48908168  0.29087877  1
  S  S39  1  0.76551863  0.41213844  0.70485149  1
  S  S40  1  0.66453042  0.99828171  0.43890823  1
  S  S41  1  0.32599743  0.00008977  0.54148275  1
