# generated using pymatgen
data_Pr2Mn3(SbS3)4
_symmetry_space_group_name_H-M   'P 1'
_cell_length_a   20.02960800
_cell_length_b   3.90410600
_cell_length_c   14.95364829
_cell_angle_alpha   90.00000000
_cell_angle_beta   126.33350609
_cell_angle_gamma   90.00000000
_symmetry_Int_Tables_number   1
_chemical_formula_structural   Pr2Mn3(SbS3)4
_chemical_formula_sum   'Pr4 Mn6 Sb8 S24'
_cell_volume   942.00006694
_cell_formula_units_Z   2
loop_
 _symmetry_equiv_pos_site_id
 _symmetry_equiv_pos_as_xyz
  1  'x, y, z'
loop_
 _atom_site_type_symbol
 _atom_site_label
 _atom_site_symmetry_multiplicity
 _atom_site_fract_x
 _atom_site_fract_y
 _atom_site_fract_z
 _atom_site_occupancy
  Pr  Pr0  1  0.26220829  0.51936365  0.85722700  1
  Pr  Pr1  1  0.73276535  0.51882487  0.14009585  1
  Pr  Pr2  1  0.76521270  0.97081255  0.87585398  1
  Pr  Pr3  1  0.24390373  0.98356925  0.14572002  1
  Mn  Mn4  1  0.29033395  0.49486744  0.59313915  1
  Mn  Mn5  1  0.69569894  0.47413189  0.37258276  1
  Mn  Mn6  1  0.99898054  0.97882679  0.99818949  1
  Mn  Mn7  1  0.79626699  0.96304680  0.59353839  1
  Mn  Mn8  1  0.19743978  0.93342275  0.40781504  1
  Mn  Mn9  1  0.49558193  0.54102809  0.00282635  1
  Sb  Sb10  1  0.89964315  0.98760385  0.45470265  1
  Sb  Sb11  1  0.10677357  0.03599622  0.55648845  1
  Sb  Sb12  1  0.03047350  0.54816714  0.81185811  1
  Sb  Sb13  1  0.96830245  0.51065533  0.19347511  1
  Sb  Sb14  1  0.39243271  0.50064663  0.45395004  1
  Sb  Sb15  1  0.62197415  0.47596084  0.57716794  1
  Sb  Sb16  1  0.54160562  0.03417113  0.82094505  1
  Sb  Sb17  1  0.45304135  0.99971072  0.18360824  1
  S  S18  1  0.93836644  0.98938519  0.79836452  1
  S  S19  1  0.06377877  0.99242202  0.20959183  1
  S  S20  1  0.41750547  0.97275184  0.98995732  1
  S  S21  1  0.58069165  0.01728231  0.02265231  1
  S  S22  1  0.17597007  0.97436500  0.90499038  1
  S  S23  1  0.83071467  0.01878702  0.11841223  1
  S  S24  1  0.09512046  0.51632847  0.66281203  1
  S  S25  1  0.89729992  0.49609799  0.34091622  1
  S  S26  1  0.74048375  0.02095938  0.30921048  1
  S  S27  1  0.26030624  0.00226560  0.68732851  1
  S  S28  1  0.15884608  0.41129023  0.45058215  1
  S  S29  1  0.81721012  0.48514976  0.52902337  1
  S  S30  1  0.43119918  0.52156774  0.80298046  1
  S  S31  1  0.55966090  0.48577608  0.19758804  1
  S  S32  1  0.91997570  0.51809468  0.99848183  1
  S  S33  1  0.08177447  0.48318335  0.01200339  1
  S  S34  1  0.67481299  0.46913003  0.90869061  1
  S  S35  1  0.32464086  0.51208276  0.08701161  1
  S  S36  1  0.59628608  0.97250227  0.66754019  1
  S  S37  1  0.40560948  0.01458464  0.35952603  1
  S  S38  1  0.24004950  0.48728107  0.29050099  1
  S  S39  1  0.76560065  0.41104227  0.70535223  1
  S  S40  1  0.66468981  0.99648313  0.43953680  1
  S  S41  1  0.32607411  0.99992600  0.54152145  1
