# generated using pymatgen
data_Pr2Mn3(SbS3)4
_symmetry_space_group_name_H-M   'P 1'
_cell_length_a   20.02960800
_cell_length_b   3.90410600
_cell_length_c   14.95364829
_cell_angle_alpha   90.00000000
_cell_angle_beta   126.33350609
_cell_angle_gamma   90.00000000
_symmetry_Int_Tables_number   1
_chemical_formula_structural   Pr2Mn3(SbS3)4
_chemical_formula_sum   'Pr4 Mn6 Sb8 S24'
_cell_volume   942.00006694
_cell_formula_units_Z   2
loop_
 _symmetry_equiv_pos_site_id
 _symmetry_equiv_pos_as_xyz
  1  'x, y, z'
loop_
 _atom_site_type_symbol
 _atom_site_label
 _atom_site_symmetry_multiplicity
 _atom_site_fract_x
 _atom_site_fract_y
 _atom_site_fract_z
 _atom_site_occupancy
  Pr  Pr0  1  0.26219661  0.51928560  0.85717796  1
  Pr  Pr1  1  0.73261354  0.51956360  0.14000938  1
  Pr  Pr2  1  0.76530048  0.97061355  0.87580897  1
  Pr  Pr3  1  0.24394569  0.98323946  0.14568637  1
  Mn  Mn4  1  0.29045449  0.49477676  0.59297940  1
  Mn  Mn5  1  0.69593253  0.47380326  0.37264532  1
  Mn  Mn6  1  0.99922791  0.97873371  0.99857677  1
  Mn  Mn7  1  0.79604874  0.96361973  0.59346824  1
  Mn  Mn8  1  0.19744312  0.93256063  0.40771266  1
  Mn  Mn9  1  0.49566974  0.53979447  0.00299549  1
  Sb  Sb10  1  0.89965592  0.98778827  0.45484679  1
  Sb  Sb11  1  0.10660807  0.03488746  0.55654407  1
  Sb  Sb12  1  0.03060638  0.54843731  0.81193758  1
  Sb  Sb13  1  0.96844663  0.51085608  0.19359404  1
  Sb  Sb14  1  0.39236402  0.50010904  0.45393200  1
  Sb  Sb15  1  0.62200916  0.47591877  0.57718985  1
  Sb  Sb16  1  0.54159259  0.03390981  0.82105010  1
  Sb  Sb17  1  0.45291188  0.99987105  0.18338839  1
  S  S18  1  0.93841902  0.98968397  0.79819766  1
  S  S19  1  0.06353350  0.99180290  0.20926915  1
  S  S20  1  0.41759478  0.97200035  0.99020378  1
  S  S21  1  0.58073160  0.01800957  0.02257028  1
  S  S22  1  0.17604143  0.97385115  0.90508013  1
  S  S23  1  0.83106807  0.01844411  0.11878386  1
  S  S24  1  0.09520932  0.51496619  0.66269473  1
  S  S25  1  0.89722253  0.49537474  0.34078707  1
  S  S26  1  0.74104106  0.02030479  0.30980834  1
  S  S27  1  0.26046235  0.00212027  0.68739856  1
  S  S28  1  0.15900123  0.41023906  0.45060477  1
  S  S29  1  0.81695811  0.48303408  0.52849618  1
  S  S30  1  0.43135640  0.52012042  0.80315408  1
  S  S31  1  0.55923224  0.48649146  0.19753294  1
  S  S32  1  0.91978232  0.51869407  0.99852423  1
  S  S33  1  0.08173517  0.48457494  0.01223970  1
  S  S34  1  0.67444808  0.46644757  0.90826342  1
  S  S35  1  0.32466510  0.51244263  0.08740434  1
  S  S36  1  0.59630381  0.97254852  0.66753182  1
  S  S37  1  0.40550481  0.01436300  0.35930004  1
  S  S38  1  0.23998652  0.48624647  0.29027455  1
  S  S39  1  0.76567539  0.41025117  0.70572063  1
  S  S40  1  0.66495849  0.99494198  0.44011748  1
  S  S41  1  0.32607772  0.00027030  0.54155181  1
