# generated using pymatgen
data_Pr2Mn3(SbS3)4
_symmetry_space_group_name_H-M   'P 1'
_cell_length_a   20.02960800
_cell_length_b   3.90410600
_cell_length_c   14.95364829
_cell_angle_alpha   90.00000000
_cell_angle_beta   126.33350609
_cell_angle_gamma   90.00000000
_symmetry_Int_Tables_number   1
_chemical_formula_structural   Pr2Mn3(SbS3)4
_chemical_formula_sum   'Pr4 Mn6 Sb8 S24'
_cell_volume   942.00006694
_cell_formula_units_Z   2
loop_
 _symmetry_equiv_pos_site_id
 _symmetry_equiv_pos_as_xyz
  1  'x, y, z'
loop_
 _atom_site_type_symbol
 _atom_site_label
 _atom_site_symmetry_multiplicity
 _atom_site_fract_x
 _atom_site_fract_y
 _atom_site_fract_z
 _atom_site_occupancy
  Pr  Pr0  1  0.26225884  0.51919794  0.85725827  1
  Pr  Pr1  1  0.73246624  0.52014702  0.13990571  1
  Pr  Pr2  1  0.76541072  0.97056052  0.87585281  1
  Pr  Pr3  1  0.24398397  0.98294347  0.14571029  1
  Mn  Mn4  1  0.29063849  0.49522854  0.59280768  1
  Mn  Mn5  1  0.69623886  0.47321960  0.37298664  1
  Mn  Mn6  1  0.99947561  0.97862975  0.99904295  1
  Mn  Mn7  1  0.79587002  0.96408247  0.59340674  1
  Mn  Mn8  1  0.19745891  0.93186465  0.40765822  1
  Mn  Mn9  1  0.49575558  0.53848355  0.00318999  1
  Sb  Sb10  1  0.89964519  0.98784889  0.45498672  1
  Sb  Sb11  1  0.10643399  0.03394955  0.55652946  1
  Sb  Sb12  1  0.03070176  0.54870015  0.81199486  1
  Sb  Sb13  1  0.96848242  0.51096128  0.19357283  1
  Sb  Sb14  1  0.39223710  0.49987388  0.45387159  1
  Sb  Sb15  1  0.62201224  0.47584029  0.57720892  1
  Sb  Sb16  1  0.54158224  0.03350632  0.82121578  1
  Sb  Sb17  1  0.45286989  0.00006011  0.18330824  1
  S  S18  1  0.93856357  0.99038138  0.79805835  1
  S  S19  1  0.06333471  0.99085798  0.20905202  1
  S  S20  1  0.41762632  0.97088232  0.99033908  1
  S  S21  1  0.58073956  0.01843999  0.02240921  1
  S  S22  1  0.17600937  0.97346667  0.90501057  1
  S  S23  1  0.83127118  0.01832701  0.11878270  1
  S  S24  1  0.09526681  0.51370176  0.66260434  1
  S  S25  1  0.89692310  0.49373455  0.34048433  1
  S  S26  1  0.74166440  0.01910924  0.31050342  1
  S  S27  1  0.26064975  0.00228609  0.68749693  1
  S  S28  1  0.15922932  0.41016175  0.45081938  1
  S  S29  1  0.81680569  0.48168023  0.52796538  1
  S  S30  1  0.43153517  0.51890513  0.80333878  1
  S  S31  1  0.55863612  0.48695542  0.19734042  1
  S  S32  1  0.91968321  0.51955485  0.99858023  1
  S  S33  1  0.08175940  0.48620517  0.01247520  1
  S  S34  1  0.67409624  0.46381051  0.90767137  1
  S  S35  1  0.32468646  0.51248361  0.08775215  1
  S  S36  1  0.59639570  0.97172503  0.66755877  1
  S  S37  1  0.40552135  0.01457946  0.35898309  1
  S  S38  1  0.23996135  0.48513811  0.28999174  1
  S  S39  1  0.76556480  0.40957305  0.70586242  1
  S  S40  1  0.66526276  0.99372590  0.44079408  1
  S  S41  1  0.32616455  0.00136714  0.54162616  1
