# generated using pymatgen
data_Pr2Mn3(SbS3)4
_symmetry_space_group_name_H-M   'P 1'
_cell_length_a   20.02960800
_cell_length_b   3.90410600
_cell_length_c   14.95364829
_cell_angle_alpha   90.00000000
_cell_angle_beta   126.33350609
_cell_angle_gamma   90.00000000
_symmetry_Int_Tables_number   1
_chemical_formula_structural   Pr2Mn3(SbS3)4
_chemical_formula_sum   'Pr4 Mn6 Sb8 S24'
_cell_volume   942.00006694
_cell_formula_units_Z   2
loop_
 _symmetry_equiv_pos_site_id
 _symmetry_equiv_pos_as_xyz
  1  'x, y, z'
loop_
 _atom_site_type_symbol
 _atom_site_label
 _atom_site_symmetry_multiplicity
 _atom_site_fract_x
 _atom_site_fract_y
 _atom_site_fract_z
 _atom_site_occupancy
  Pr  Pr0  1  0.26238184  0.51904105  0.85748638  1
  Pr  Pr1  1  0.73228686  0.52078540  0.13973635  1
  Pr  Pr2  1  0.76554447  0.97068318  0.87590073  1
  Pr  Pr3  1  0.24398479  0.98275788  0.14572175  1
  Mn  Mn4  1  0.29094509  0.49551381  0.59287772  1
  Mn  Mn5  1  0.69657106  0.47297277  0.37341213  1
  Mn  Mn6  1  0.99982121  0.97812769  0.99974488  1
  Mn  Mn7  1  0.79572912  0.96454606  0.59347921  1
  Mn  Mn8  1  0.19745708  0.93108263  0.40761141  1
  Mn  Mn9  1  0.49592417  0.53712411  0.00349603  1
  Sb  Sb10  1  0.89964178  0.98795364  0.45517507  1
  Sb  Sb11  1  0.10633870  0.03337619  0.55649382  1
  Sb  Sb12  1  0.03073928  0.54879280  0.81199922  1
  Sb  Sb13  1  0.96843143  0.51084812  0.19351329  1
  Sb  Sb14  1  0.39206393  0.49943847  0.45382909  1
  Sb  Sb15  1  0.62205179  0.47572582  0.57721693  1
  Sb  Sb16  1  0.54151437  0.03307734  0.82136588  1
  Sb  Sb17  1  0.45284368  0.99975010  0.18321168  1
  S  S18  1  0.93870946  0.99197518  0.79782206  1
  S  S19  1  0.06327159  0.99007623  0.20890810  1
  S  S20  1  0.41766307  0.97023227  0.99053313  1
  S  S21  1  0.58075398  0.01878301  0.02223960  1
  S  S22  1  0.17593140  0.97312246  0.90473380  1
  S  S23  1  0.83148061  0.01827015  0.11885503  1
  S  S24  1  0.09535073  0.51222345  0.66245897  1
  S  S25  1  0.89651481  0.49311103  0.34017748  1
  S  S26  1  0.74227795  0.01754737  0.31131818  1
  S  S27  1  0.26070217  0.00202836  0.68738034  1
  S  S28  1  0.15941921  0.41037431  0.45087793  1
  S  S29  1  0.81671978  0.48034749  0.52753405  1
  S  S30  1  0.43151607  0.51769051  0.80341698  1
  S  S31  1  0.55812801  0.48727058  0.19708358  1
  S  S32  1  0.91968937  0.52032143  0.99854479  1
  S  S33  1  0.08184414  0.48793476  0.01282858  1
  S  S34  1  0.67396313  0.46193711  0.90730794  1
  S  S35  1  0.32483291  0.51228547  0.08829267  1
  S  S36  1  0.59644838  0.97082755  0.66752582  1
  S  S37  1  0.40560583  0.01416064  0.35854998  1
  S  S38  1  0.23998878  0.48306526  0.28980175  1
  S  S39  1  0.76546146  0.40963649  0.70594161  1
  S  S40  1  0.66565725  0.99196827  0.44154345  1
  S  S41  1  0.32633086  0.00242150  0.54189624  1
