# generated using pymatgen
data_Pr2Mn3(SbS3)4
_symmetry_space_group_name_H-M   'P 1'
_cell_length_a   20.02960800
_cell_length_b   3.90410600
_cell_length_c   14.95364829
_cell_angle_alpha   90.00000000
_cell_angle_beta   126.33350609
_cell_angle_gamma   90.00000000
_symmetry_Int_Tables_number   1
_chemical_formula_structural   Pr2Mn3(SbS3)4
_chemical_formula_sum   'Pr4 Mn6 Sb8 S24'
_cell_volume   942.00006694
_cell_formula_units_Z   2
loop_
 _symmetry_equiv_pos_site_id
 _symmetry_equiv_pos_as_xyz
  1  'x, y, z'
loop_
 _atom_site_type_symbol
 _atom_site_label
 _atom_site_symmetry_multiplicity
 _atom_site_fract_x
 _atom_site_fract_y
 _atom_site_fract_z
 _atom_site_occupancy
  Pr  Pr0  1  0.26255670  0.51909120  0.85772047  1
  Pr  Pr1  1  0.73220229  0.52140168  0.13960815  1
  Pr  Pr2  1  0.76572393  0.97061741  0.87602808  1
  Pr  Pr3  1  0.24392671  0.98222494  0.14566377  1
  Mn  Mn4  1  0.29128852  0.49551306  0.59307897  1
  Mn  Mn5  1  0.69683386  0.47244716  0.37357856  1
  Mn  Mn6  1  0.00007541  0.97790055  0.00015495  1
  Mn  Mn7  1  0.79558809  0.96543208  0.59355964  1
  Mn  Mn8  1  0.19743442  0.93023203  0.40747628  1
  Mn  Mn9  1  0.49605091  0.53578574  0.00379626  1
  Sb  Sb10  1  0.89968787  0.98804485  0.45526388  1
  Sb  Sb11  1  0.10625049  0.03270725  0.55650275  1
  Sb  Sb12  1  0.03080354  0.54877725  0.81200458  1
  Sb  Sb13  1  0.96841532  0.51082015  0.19348128  1
  Sb  Sb14  1  0.39200505  0.49880637  0.45381658  1
  Sb  Sb15  1  0.62209006  0.47542511  0.57712064  1
  Sb  Sb16  1  0.54147744  0.03301251  0.82157930  1
  Sb  Sb17  1  0.45280974  0.99968806  0.18317929  1
  S  S18  1  0.93889441  0.99349364  0.79766461  1
  S  S19  1  0.06322294  0.98950618  0.20862749  1
  S  S20  1  0.41769444  0.96968550  0.99066218  1
  S  S21  1  0.58093620  0.01904128  0.02238087  1
  S  S22  1  0.17569066  0.97197419  0.90418531  1
  S  S23  1  0.83163921  0.01741526  0.11902271  1
  S  S24  1  0.09551504  0.51148712  0.66235165  1
  S  S25  1  0.89625990  0.49249994  0.33985216  1
  S  S26  1  0.74281886  0.01576214  0.31195544  1
  S  S27  1  0.26086645  0.00151376  0.68747078  1
  S  S28  1  0.15945690  0.41096893  0.45071136  1
  S  S29  1  0.81670627  0.47969991  0.52736274  1
  S  S30  1  0.43159126  0.51618020  0.80371290  1
  S  S31  1  0.55757845  0.48741749  0.19679025  1
  S  S32  1  0.91966497  0.52130776  0.99831314  1
  S  S33  1  0.08183508  0.48893403  0.01320754  1
  S  S34  1  0.67385123  0.46005976  0.90714457  1
  S  S35  1  0.32505648  0.51185528  0.08889466  1
  S  S36  1  0.59637045  0.96997269  0.66728826  1
  S  S37  1  0.40573172  0.01322380  0.35811343  1
  S  S38  1  0.24000518  0.48095215  0.28961770  1
  S  S39  1  0.76541127  0.40924902  0.70626412  1
  S  S40  1  0.66593967  0.98991231  0.44224904  1
  S  S41  1  0.32663418  0.00353453  0.54232779  1
