# generated using pymatgen
data_Pr2Mn3(SbS3)4
_symmetry_space_group_name_H-M   'P 1'
_cell_length_a   20.02960800
_cell_length_b   3.90410600
_cell_length_c   14.95364829
_cell_angle_alpha   90.00000000
_cell_angle_beta   126.33350609
_cell_angle_gamma   90.00000000
_symmetry_Int_Tables_number   1
_chemical_formula_structural   Pr2Mn3(SbS3)4
_chemical_formula_sum   'Pr4 Mn6 Sb8 S24'
_cell_volume   942.00006694
_cell_formula_units_Z   2
loop_
 _symmetry_equiv_pos_site_id
 _symmetry_equiv_pos_as_xyz
  1  'x, y, z'
loop_
 _atom_site_type_symbol
 _atom_site_label
 _atom_site_symmetry_multiplicity
 _atom_site_fract_x
 _atom_site_fract_y
 _atom_site_fract_z
 _atom_site_occupancy
  Pr  Pr0  1  0.26274513  0.51937946  0.85802741  1
  Pr  Pr1  1  0.73214942  0.52203936  0.13950281  1
  Pr  Pr2  1  0.76599726  0.97070474  0.87621115  1
  Pr  Pr3  1  0.24386864  0.98212412  0.14562876  1
  Mn  Mn4  1  0.29165831  0.49576914  0.59333787  1
  Mn  Mn5  1  0.69706020  0.47132656  0.37373287  1
  Mn  Mn6  1  0.00023163  0.97808735  0.00054623  1
  Mn  Mn7  1  0.79547449  0.96655482  0.59366088  1
  Mn  Mn8  1  0.19747447  0.92909942  0.40745495  1
  Mn  Mn9  1  0.49609761  0.53429681  0.00412234  1
  Sb  Sb10  1  0.89966412  0.98821408  0.45526876  1
  Sb  Sb11  1  0.10616278  0.03219394  0.55657454  1
  Sb  Sb12  1  0.03080564  0.54866139  0.81196483  1
  Sb  Sb13  1  0.96838257  0.51073464  0.19351390  1
  Sb  Sb14  1  0.39190790  0.49817623  0.45372349  1
  Sb  Sb15  1  0.62212671  0.47485388  0.57706639  1
  Sb  Sb16  1  0.54141915  0.03274904  0.82178667  1
  Sb  Sb17  1  0.45281916  0.99967303  0.18319407  1
  S  S18  1  0.93899542  0.99498844  0.79750035  1
  S  S19  1  0.06311028  0.98889705  0.20850873  1
  S  S20  1  0.41780801  0.96992268  0.99082261  1
  S  S21  1  0.58116753  0.01935610  0.02249566  1
  S  S22  1  0.17539158  0.97023409  0.90360302  1
  S  S23  1  0.83182948  0.01712923  0.11909945  1
  S  S24  1  0.09563739  0.51106390  0.66226656  1
  S  S25  1  0.89595289  0.49237652  0.33956135  1
  S  S26  1  0.74338201  0.01424075  0.31240798  1
  S  S27  1  0.26110975  0.00079358  0.68754792  1
  S  S28  1  0.15945369  0.41266367  0.45065332  1
  S  S29  1  0.81669208  0.47943103  0.52721384  1
  S  S30  1  0.43177511  0.51497468  0.80418000  1
  S  S31  1  0.55704128  0.48744444  0.19653205  1
  S  S32  1  0.91956859  0.52246858  0.99794132  1
  S  S33  1  0.08189572  0.48998985  0.01361027  1
  S  S34  1  0.67383169  0.45843835  0.90721144  1
  S  S35  1  0.32529705  0.51112728  0.08953311  1
  S  S36  1  0.59619044  0.96957029  0.66699602  1
  S  S37  1  0.40575109  0.01221361  0.35749516  1
  S  S38  1  0.23988117  0.47978210  0.28937631  1
  S  S39  1  0.76541525  0.40876226  0.70651283  1
  S  S40  1  0.66625496  0.98782069  0.44293492  1
  S  S41  1  0.32697104  0.00467378  0.54251748  1
