# generated using pymatgen
data_Pr2Mn3(SbS3)4
_symmetry_space_group_name_H-M   'P 1'
_cell_length_a   20.02960800
_cell_length_b   3.90410600
_cell_length_c   14.95364829
_cell_angle_alpha   90.00000000
_cell_angle_beta   126.33350609
_cell_angle_gamma   90.00000000
_symmetry_Int_Tables_number   1
_chemical_formula_structural   Pr2Mn3(SbS3)4
_chemical_formula_sum   'Pr4 Mn6 Sb8 S24'
_cell_volume   942.00006694
_cell_formula_units_Z   2
loop_
 _symmetry_equiv_pos_site_id
 _symmetry_equiv_pos_as_xyz
  1  'x, y, z'
loop_
 _atom_site_type_symbol
 _atom_site_label
 _atom_site_symmetry_multiplicity
 _atom_site_fract_x
 _atom_site_fract_y
 _atom_site_fract_z
 _atom_site_occupancy
  Pr  Pr0  1  0.26291801  0.51982997  0.85829462  1
  Pr  Pr1  1  0.73203034  0.52250305  0.13934470  1
  Pr  Pr2  1  0.76623620  0.97054689  0.87632756  1
  Pr  Pr3  1  0.24385354  0.98203548  0.14565449  1
  Mn  Mn4  1  0.29193395  0.49607594  0.59366264  1
  Mn  Mn5  1  0.69727035  0.47018445  0.37385994  1
  Mn  Mn6  1  0.00034908  0.97830612  0.00076322  1
  Mn  Mn7  1  0.79529451  0.96747543  0.59389893  1
  Mn  Mn8  1  0.19745799  0.92789168  0.40737044  1
  Mn  Mn9  1  0.49612151  0.53300029  0.00442232  1
  Sb  Sb10  1  0.89962092  0.98811740  0.45523770  1
  Sb  Sb11  1  0.10608373  0.03204365  0.55654545  1
  Sb  Sb12  1  0.03081800  0.54882488  0.81192021  1
  Sb  Sb13  1  0.96829146  0.51105217  0.19341014  1
  Sb  Sb14  1  0.39184285  0.49780895  0.45363989  1
  Sb  Sb15  1  0.62216193  0.47378965  0.57707991  1
  Sb  Sb16  1  0.54139696  0.03245895  0.82207643  1
  Sb  Sb17  1  0.45281575  0.99984477  0.18309606  1
  S  S18  1  0.93898854  0.99631811  0.79711118  1
  S  S19  1  0.06295890  0.98810153  0.20846867  1
  S  S20  1  0.41798804  0.96989603  0.99078637  1
  S  S21  1  0.58143910  0.01957540  0.02262326  1
  S  S22  1  0.17512930  0.96840451  0.90316246  1
  S  S23  1  0.83179971  0.01601918  0.11907563  1
  S  S24  1  0.09574828  0.51083601  0.66203353  1
  S  S25  1  0.89561651  0.49292824  0.33916704  1
  S  S26  1  0.74376469  0.01323745  0.31273052  1
  S  S27  1  0.26129428  0.00018661  0.68751025  1
  S  S28  1  0.15949490  0.41468602  0.45064173  1
  S  S29  1  0.81653799  0.47935522  0.52697436  1
  S  S30  1  0.43207848  0.51404308  0.80471352  1
  S  S31  1  0.55650194  0.48733693  0.19622024  1
  S  S32  1  0.91955012  0.52343995  0.99779342  1
  S  S33  1  0.08198036  0.49089782  0.01408933  1
  S  S34  1  0.67379708  0.45686745  0.90717424  1
  S  S35  1  0.32549208  0.51090421  0.09018781  1
  S  S36  1  0.59605594  0.96923513  0.66682519  1
  S  S37  1  0.40585383  0.01111528  0.35702668  1
  S  S38  1  0.23980010  0.47927375  0.28905468  1
  S  S39  1  0.76543288  0.40854646  0.70670086  1
  S  S40  1  0.66647279  0.98603018  0.44367424  1
  S  S41  1  0.32719614  0.00626094  0.54264073  1
