# generated using pymatgen
data_Pr2Mn3(SbS3)4
_symmetry_space_group_name_H-M   'P 1'
_cell_length_a   20.02960800
_cell_length_b   3.90410600
_cell_length_c   14.95364829
_cell_angle_alpha   90.00000000
_cell_angle_beta   126.33350609
_cell_angle_gamma   90.00000000
_symmetry_Int_Tables_number   1
_chemical_formula_structural   Pr2Mn3(SbS3)4
_chemical_formula_sum   'Pr4 Mn6 Sb8 S24'
_cell_volume   942.00006694
_cell_formula_units_Z   2
loop_
 _symmetry_equiv_pos_site_id
 _symmetry_equiv_pos_as_xyz
  1  'x, y, z'
loop_
 _atom_site_type_symbol
 _atom_site_label
 _atom_site_symmetry_multiplicity
 _atom_site_fract_x
 _atom_site_fract_y
 _atom_site_fract_z
 _atom_site_occupancy
  Pr  Pr0  1  0.26654463  0.49686363  0.86403004  1
  Pr  Pr1  1  0.73533884  0.51103416  0.13557279  1
  Pr  Pr2  1  0.76335120  0.01344056  0.86102391  1
  Pr  Pr3  1  0.23479452  0.99598242  0.13459776  1
  Mn  Mn4  1  0.28848942  0.48014165  0.58923305  1
  Mn  Mn5  1  0.68576548  0.47026437  0.36659926  1
  Mn  Mn6  1  0.00876585  0.99310455  0.01948015  1
  Mn  Mn7  1  0.80398733  0.01439567  0.61923302  1
  Mn  Mn8  1  0.19847861  0.97562572  0.37333463  1
  Mn  Mn9  1  0.49107520  0.47703454  0.99037666  1
  Sb  Sb10  1  0.89047842  0.98449530  0.45129326  1
  Sb  Sb11  1  0.11169283  0.98124568  0.54465538  1
  Sb  Sb12  1  0.03760990  0.52014161  0.82100353  1
  Sb  Sb13  1  0.96288366  0.50133243  0.18472476  1
  Sb  Sb14  1  0.39528695  0.50043478  0.45101568  1
  Sb  Sb15  1  0.60671440  0.46641615  0.55033325  1
  Sb  Sb16  1  0.53373726  0.99318879  0.80819672  1
  Sb  Sb17  1  0.46529508  0.02117119  0.19079648  1
  S  S18  1  0.93875936  0.00964772  0.80981737  1
  S  S19  1  0.06389653  0.97272728  0.20029269  1
  S  S20  1  0.41904935  0.95616720  0.98360221  1
  S  S21  1  0.58132507  0.03431062  0.01408727  1
  S  S22  1  0.17197929  0.05528241  0.90255312  1
  S  S23  1  0.82930690  0.05071595  0.10002235  1
  S  S24  1  0.09390927  0.48304239  0.64757442  1
  S  S25  1  0.91463712  0.48962471  0.35665998  1
  S  S26  1  0.73614983  0.95615890  0.29988266  1
  S  S27  1  0.26268762  0.01036350  0.70852095  1
  S  S28  1  0.16061420  0.51219266  0.42458165  1
  S  S29  1  0.82346245  0.48803914  0.55126289  1
  S  S30  1  0.42993688  0.49036019  0.79788351  1
  S  S31  1  0.55241965  0.52640271  0.18071167  1
  S  S32  1  0.91284116  0.48881661  0.98795307  1
  S  S33  1  0.09262126  0.49970371  0.03417720  1
  S  S34  1  0.66217928  0.52384173  0.88608940  1
  S  S35  1  0.33066838  0.50759169  0.09957983  1
  S  S36  1  0.60054298  0.99697301  0.65894228  1
  S  S37  1  0.40111809  0.98518682  0.34192811  1
  S  S38  1  0.23976067  0.47230541  0.31187954  1
  S  S39  1  0.76151882  0.51194206  0.69189983  1
  S  S40  1  0.66683536  0.02998271  0.44920710  1
  S  S41  1  0.32999899  0.97825345  0.55726357  1
