# generated using pymatgen
data_Pr2Mn3(SbS3)4
_symmetry_space_group_name_H-M   'P 1'
_cell_length_a   20.02960800
_cell_length_b   3.90410600
_cell_length_c   14.95364829
_cell_angle_alpha   90.00000000
_cell_angle_beta   126.33350609
_cell_angle_gamma   90.00000000
_symmetry_Int_Tables_number   1
_chemical_formula_structural   Pr2Mn3(SbS3)4
_chemical_formula_sum   'Pr4 Mn6 Sb8 S24'
_cell_volume   942.00006694
_cell_formula_units_Z   2
loop_
 _symmetry_equiv_pos_site_id
 _symmetry_equiv_pos_as_xyz
  1  'x, y, z'
loop_
 _atom_site_type_symbol
 _atom_site_label
 _atom_site_symmetry_multiplicity
 _atom_site_fract_x
 _atom_site_fract_y
 _atom_site_fract_z
 _atom_site_occupancy
  Pr  Pr0  1  0.26316326  0.52037476  0.85862273  1
  Pr  Pr1  1  0.73196188  0.52273475  0.13917970  1
  Pr  Pr2  1  0.76650789  0.97030632  0.87652997  1
  Pr  Pr3  1  0.24386317  0.98220123  0.14568267  1
  Mn  Mn4  1  0.29214967  0.49665050  0.59382855  1
  Mn  Mn5  1  0.69739898  0.46882938  0.37399792  1
  Mn  Mn6  1  0.00050142  0.97828019  0.00110308  1
  Mn  Mn7  1  0.79524944  0.96839853  0.59419336  1
  Mn  Mn8  1  0.19749333  0.92691485  0.40729125  1
  Mn  Mn9  1  0.49605896  0.53208089  0.00451139  1
  Sb  Sb10  1  0.89961637  0.98800618  0.45524149  1
  Sb  Sb11  1  0.10602603  0.03219565  0.55656321  1
  Sb  Sb12  1  0.03084337  0.54884220  0.81187438  1
  Sb  Sb13  1  0.96821636  0.51159445  0.19330616  1
  Sb  Sb14  1  0.39180615  0.49742906  0.45355268  1
  Sb  Sb15  1  0.62217552  0.47303066  0.57700865  1
  Sb  Sb16  1  0.54133212  0.03224228  0.82237902  1
  Sb  Sb17  1  0.45286772  0.00011533  0.18303012  1
  S  S18  1  0.93882368  0.99788527  0.79647121  1
  S  S19  1  0.06280916  0.98716334  0.20846708  1
  S  S20  1  0.41808253  0.96962205  0.99077018  1
  S  S21  1  0.58159239  0.01944276  0.02265929  1
  S  S22  1  0.17495622  0.96647540  0.90261399  1
  S  S23  1  0.83182114  0.01514845  0.11905736  1
  S  S24  1  0.09592418  0.51001302  0.66191378  1
  S  S25  1  0.89517678  0.49305654  0.33880366  1
  S  S26  1  0.74401991  0.01232750  0.31300308  1
  S  S27  1  0.26139130  0.00014041  0.68740733  1
  S  S28  1  0.15956017  0.41636445  0.45065500  1
  S  S29  1  0.81647844  0.47937396  0.52663498  1
  S  S30  1  0.43236541  0.51324244  0.80532488  1
  S  S31  1  0.55588766  0.48796220  0.19576089  1
  S  S32  1  0.91949359  0.52454946  0.99740868  1
  S  S33  1  0.08193004  0.49156234  0.01425581  1
  S  S34  1  0.67369065  0.45520208  0.90698945  1
  S  S35  1  0.32580964  0.51035355  0.09087585  1
  S  S36  1  0.59588988  0.96899384  0.66673453  1
  S  S37  1  0.40578810  0.00975808  0.35650493  1
  S  S38  1  0.23961423  0.47876584  0.28855482  1
  S  S39  1  0.76541388  0.40904559  0.70696788  1
  S  S40  1  0.66683794  0.98474722  0.44458906  1
  S  S41  1  0.32756542  0.00807308  0.54290969  1
