# generated using pymatgen
data_Pr2Mn3(SbS3)4
_symmetry_space_group_name_H-M   'P 1'
_cell_length_a   20.02960800
_cell_length_b   3.90410600
_cell_length_c   14.95364829
_cell_angle_alpha   90.00000000
_cell_angle_beta   126.33350609
_cell_angle_gamma   90.00000000
_symmetry_Int_Tables_number   1
_chemical_formula_structural   Pr2Mn3(SbS3)4
_chemical_formula_sum   'Pr4 Mn6 Sb8 S24'
_cell_volume   942.00006694
_cell_formula_units_Z   2
loop_
 _symmetry_equiv_pos_site_id
 _symmetry_equiv_pos_as_xyz
  1  'x, y, z'
loop_
 _atom_site_type_symbol
 _atom_site_label
 _atom_site_symmetry_multiplicity
 _atom_site_fract_x
 _atom_site_fract_y
 _atom_site_fract_z
 _atom_site_occupancy
  Pr  Pr0  1  0.26342033  0.52077456  0.85887597  1
  Pr  Pr1  1  0.73185035  0.52332919  0.13907139  1
  Pr  Pr2  1  0.76666463  0.97002197  0.87669772  1
  Pr  Pr3  1  0.24389649  0.98202517  0.14573317  1
  Mn  Mn4  1  0.29235033  0.49752860  0.59402153  1
  Mn  Mn5  1  0.69737806  0.46779053  0.37413111  1
  Mn  Mn6  1  0.00068727  0.97815777  0.00144759  1
  Mn  Mn7  1  0.79515696  0.96937962  0.59449444  1
  Mn  Mn8  1  0.19748325  0.92612657  0.40725261  1
  Mn  Mn9  1  0.49611962  0.53113241  0.00459644  1
  Sb  Sb10  1  0.89952873  0.98816491  0.45518818  1
  Sb  Sb11  1  0.10596600  0.03240633  0.55654500  1
  Sb  Sb12  1  0.03087468  0.54881986  0.81180550  1
  Sb  Sb13  1  0.96815866  0.51208397  0.19314807  1
  Sb  Sb14  1  0.39186784  0.49678027  0.45359089  1
  Sb  Sb15  1  0.62211405  0.47247817  0.57682568  1
  Sb  Sb16  1  0.54125045  0.03189311  0.82259100  1
  Sb  Sb17  1  0.45295923  0.00046340  0.18299096  1
  S  S18  1  0.93893470  0.99914446  0.79597730  1
  S  S19  1  0.06230230  0.98551424  0.20819408  1
  S  S20  1  0.41817799  0.96952589  0.99078322  1
  S  S21  1  0.58172973  0.01931621  0.02260841  1
  S  S22  1  0.17460581  0.96515474  0.90191307  1
  S  S23  1  0.83173447  0.01428852  0.11890622  1
  S  S24  1  0.09622932  0.50899452  0.66183229  1
  S  S25  1  0.89474574  0.49298050  0.33837473  1
  S  S26  1  0.74423909  0.01202588  0.31334521  1
  S  S27  1  0.26139759  0.00004387  0.68726996  1
  S  S28  1  0.15958227  0.41818910  0.45039931  1
  S  S29  1  0.81627934  0.47933173  0.52628914  1
  S  S30  1  0.43266534  0.51201376  0.80593636  1
  S  S31  1  0.55529581  0.48894703  0.19516784  1
  S  S32  1  0.91942843  0.52496760  0.99704287  1
  S  S33  1  0.08182875  0.49212064  0.01412468  1
  S  S34  1  0.67355549  0.45350172  0.90664679  1
  S  S35  1  0.32612493  0.50998039  0.09150952  1
  S  S36  1  0.59574315  0.96826440  0.66655505  1
  S  S37  1  0.40584458  0.00875059  0.35632402  1
  S  S38  1  0.23937365  0.47798640  0.28814343  1
  S  S39  1  0.76525529  0.40939164  0.70713458  1
  S  S40  1  0.66727402  0.98386549  0.44552757  1
  S  S41  1  0.32795500  0.00992958  0.54308201  1
