# generated using pymatgen
data_Pr2Mn3(SbS3)4
_symmetry_space_group_name_H-M   'P 1'
_cell_length_a   20.02960800
_cell_length_b   3.90410600
_cell_length_c   14.95364829
_cell_angle_alpha   90.00000000
_cell_angle_beta   126.33350609
_cell_angle_gamma   90.00000000
_symmetry_Int_Tables_number   1
_chemical_formula_structural   Pr2Mn3(SbS3)4
_chemical_formula_sum   'Pr4 Mn6 Sb8 S24'
_cell_volume   942.00006694
_cell_formula_units_Z   2
loop_
 _symmetry_equiv_pos_site_id
 _symmetry_equiv_pos_as_xyz
  1  'x, y, z'
loop_
 _atom_site_type_symbol
 _atom_site_label
 _atom_site_symmetry_multiplicity
 _atom_site_fract_x
 _atom_site_fract_y
 _atom_site_fract_z
 _atom_site_occupancy
  Pr  Pr0  1  0.26373719  0.52119267  0.85928587  1
  Pr  Pr1  1  0.73179722  0.52357821  0.13892588  1
  Pr  Pr2  1  0.76680274  0.96989139  0.87679256  1
  Pr  Pr3  1  0.24395992  0.98191823  0.14580949  1
  Mn  Mn4  1  0.29257995  0.49829737  0.59415832  1
  Mn  Mn5  1  0.69741526  0.46622174  0.37432305  1
  Mn  Mn6  1  0.00078356  0.97818460  0.00172262  1
  Mn  Mn7  1  0.79499574  0.97005921  0.59466124  1
  Mn  Mn8  1  0.19749300  0.92532691  0.40747987  1
  Mn  Mn9  1  0.49632580  0.53060391  0.00484147  1
  Sb  Sb10  1  0.89934745  0.98830148  0.45508258  1
  Sb  Sb11  1  0.10586402  0.03235326  0.55646771  1
  Sb  Sb12  1  0.03094390  0.54888128  0.81175615  1
  Sb  Sb13  1  0.96818437  0.51271183  0.19304478  1
  Sb  Sb14  1  0.39192673  0.49649542  0.45369580  1
  Sb  Sb15  1  0.62203053  0.47216077  0.57671116  1
  Sb  Sb16  1  0.54119922  0.03177222  0.82277489  1
  Sb  Sb17  1  0.45302473  0.00064732  0.18289510  1
  S  S18  1  0.93896171  0.99952023  0.79552088  1
  S  S19  1  0.06183805  0.98435339  0.20800621  1
  S  S20  1  0.41808990  0.96909976  0.99074881  1
  S  S21  1  0.58179142  0.01935210  0.02239280  1
  S  S22  1  0.17424506  0.96429523  0.90108683  1
  S  S23  1  0.83152325  0.01357210  0.11877025  1
  S  S24  1  0.09649719  0.50853557  0.66152699  1
  S  S25  1  0.89420662  0.49329673  0.33790029  1
  S  S26  1  0.74457970  0.01196061  0.31362282  1
  S  S27  1  0.26145065  0.99989312  0.68721244  1
  S  S28  1  0.15968826  0.41951225  0.45018640  1
  S  S29  1  0.81611115  0.47953022  0.52582789  1
  S  S30  1  0.43286963  0.51117530  0.80627402  1
  S  S31  1  0.55482345  0.48981651  0.19475193  1
  S  S32  1  0.91940526  0.52542264  0.99670943  1
  S  S33  1  0.08179990  0.49235725  0.01407698  1
  S  S34  1  0.67349757  0.45143138  0.90647254  1
  S  S35  1  0.32655407  0.50906357  0.09221532  1
  S  S36  1  0.59568054  0.96776133  0.66658385  1
  S  S37  1  0.40574138  0.00775500  0.35600773  1
  S  S38  1  0.23926894  0.47677061  0.28766252  1
  S  S39  1  0.76532546  0.40960255  0.70764652  1
  S  S40  1  0.66780592  0.98360202  0.44645189  1
  S  S41  1  0.32820375  0.01206626  0.54317634  1
