# generated using pymatgen
data_Pr2Mn3(SbS3)4
_symmetry_space_group_name_H-M   'P 1'
_cell_length_a   20.02960800
_cell_length_b   3.90410600
_cell_length_c   14.95364829
_cell_angle_alpha   90.00000000
_cell_angle_beta   126.33350609
_cell_angle_gamma   90.00000000
_symmetry_Int_Tables_number   1
_chemical_formula_structural   Pr2Mn3(SbS3)4
_chemical_formula_sum   'Pr4 Mn6 Sb8 S24'
_cell_volume   942.00006694
_cell_formula_units_Z   2
loop_
 _symmetry_equiv_pos_site_id
 _symmetry_equiv_pos_as_xyz
  1  'x, y, z'
loop_
 _atom_site_type_symbol
 _atom_site_label
 _atom_site_symmetry_multiplicity
 _atom_site_fract_x
 _atom_site_fract_y
 _atom_site_fract_z
 _atom_site_occupancy
  Pr  Pr0  1  0.26400808  0.52171587  0.85960192  1
  Pr  Pr1  1  0.73175755  0.52391881  0.13872972  1
  Pr  Pr2  1  0.76697162  0.96992623  0.87691513  1
  Pr  Pr3  1  0.24400295  0.98198900  0.14589837  1
  Mn  Mn4  1  0.29274304  0.49932980  0.59429198  1
  Mn  Mn5  1  0.69735101  0.46463422  0.37441574  1
  Mn  Mn6  1  0.00095407  0.97885226  0.00198581  1
  Mn  Mn7  1  0.79494503  0.97074215  0.59476036  1
  Mn  Mn8  1  0.19751619  0.92447983  0.40770471  1
  Mn  Mn9  1  0.49646176  0.52975868  0.00516172  1
  Sb  Sb10  1  0.89914881  0.98840794  0.45490326  1
  Sb  Sb11  1  0.10568904  0.03238934  0.55625935  1
  Sb  Sb12  1  0.03108562  0.54903249  0.81172208  1
  Sb  Sb13  1  0.96819595  0.51374964  0.19288216  1
  Sb  Sb14  1  0.39187015  0.49616583  0.45370131  1
  Sb  Sb15  1  0.62195442  0.47181377  0.57659673  1
  Sb  Sb16  1  0.54118835  0.03168476  0.82302205  1
  Sb  Sb17  1  0.45309469  0.00070186  0.18286693  1
  S  S18  1  0.93889362  0.99905649  0.79514568  1
  S  S19  1  0.06131821  0.98319968  0.20782620  1
  S  S20  1  0.41792736  0.96887325  0.99062993  1
  S  S21  1  0.58185181  0.01941863  0.02228895  1
  S  S22  1  0.17410477  0.96345368  0.90040796  1
  S  S23  1  0.83137227  0.01274893  0.11866161  1
  S  S24  1  0.09689634  0.50775986  0.66118066  1
  S  S25  1  0.89370486  0.49392149  0.33754308  1
  S  S26  1  0.74487345  0.01187946  0.31376009  1
  S  S27  1  0.26152137  0.99952223  0.68736646  1
  S  S28  1  0.15971103  0.42064162  0.44996580  1
  S  S29  1  0.81585318  0.47918568  0.52538890  1
  S  S30  1  0.43308502  0.50983965  0.80658854  1
  S  S31  1  0.55436566  0.49026480  0.19435177  1
  S  S32  1  0.91919799  0.52553039  0.99609161  1
  S  S33  1  0.08176597  0.49277859  0.01412465  1
  S  S34  1  0.67334629  0.45036460  0.90628510  1
  S  S35  1  0.32730719  0.50792182  0.09340245  1
  S  S36  1  0.59556210  0.96727410  0.66667622  1
  S  S37  1  0.40566091  0.00738707  0.35565417  1
  S  S38  1  0.23912653  0.47570513  0.28717826  1
  S  S39  1  0.76553295  0.40996099  0.70806007  1
  S  S40  1  0.66827241  0.98336942  0.44743066  1
  S  S41  1  0.32835946  0.01320754  0.54311563  1
