# generated using pymatgen
data_Pr2Mn3(SbS3)4
_symmetry_space_group_name_H-M   'P 1'
_cell_length_a   20.02960800
_cell_length_b   3.90410600
_cell_length_c   14.95364829
_cell_angle_alpha   90.00000000
_cell_angle_beta   126.33350609
_cell_angle_gamma   90.00000000
_symmetry_Int_Tables_number   1
_chemical_formula_structural   Pr2Mn3(SbS3)4
_chemical_formula_sum   'Pr4 Mn6 Sb8 S24'
_cell_volume   942.00006694
_cell_formula_units_Z   2
loop_
 _symmetry_equiv_pos_site_id
 _symmetry_equiv_pos_as_xyz
  1  'x, y, z'
loop_
 _atom_site_type_symbol
 _atom_site_label
 _atom_site_symmetry_multiplicity
 _atom_site_fract_x
 _atom_site_fract_y
 _atom_site_fract_z
 _atom_site_occupancy
  Pr  Pr0  1  0.26431156  0.52195608  0.85986983  1
  Pr  Pr1  1  0.73166836  0.52416222  0.13850491  1
  Pr  Pr2  1  0.76706593  0.96971640  0.87695120  1
  Pr  Pr3  1  0.24399173  0.98193277  0.14586694  1
  Mn  Mn4  1  0.29286596  0.49994075  0.59447117  1
  Mn  Mn5  1  0.69718457  0.46305771  0.37418428  1
  Mn  Mn6  1  0.00110353  0.97960171  0.00223861  1
  Mn  Mn7  1  0.79494148  0.97105529  0.59478814  1
  Mn  Mn8  1  0.19751321  0.92415682  0.40802693  1
  Mn  Mn9  1  0.49664991  0.52917878  0.00546183  1
  Sb  Sb10  1  0.89899574  0.98871002  0.45474343  1
  Sb  Sb11  1  0.10547558  0.03219667  0.55598766  1
  Sb  Sb12  1  0.03108880  0.54883644  0.81153486  1
  Sb  Sb13  1  0.96815874  0.51470245  0.19268627  1
  Sb  Sb14  1  0.39184505  0.49626397  0.45370582  1
  Sb  Sb15  1  0.62187639  0.47154391  0.57656942  1
  Sb  Sb16  1  0.54116791  0.03158352  0.82318890  1
  Sb  Sb17  1  0.45321548  0.00070473  0.18294057  1
  S  S18  1  0.93860522  0.99774070  0.79478008  1
  S  S19  1  0.06101491  0.98179112  0.20777371  1
  S  S20  1  0.41772231  0.96874168  0.99036486  1
  S  S21  1  0.58197399  0.01958862  0.02218956  1
  S  S22  1  0.17407776  0.96266796  0.89981675  1
  S  S23  1  0.83128371  0.01249622  0.11851413  1
  S  S24  1  0.09724004  0.50708570  0.66074850  1
  S  S25  1  0.89311791  0.49449167  0.33693040  1
  S  S26  1  0.74511797  0.01201906  0.31371326  1
  S  S27  1  0.26142041  0.00008823  0.68724625  1
  S  S28  1  0.15968174  0.42101960  0.44983746  1
  S  S29  1  0.81558276  0.47852805  0.52493980  1
  S  S30  1  0.43323640  0.50835844  0.80678914  1
  S  S31  1  0.55401576  0.49111271  0.19418911  1
  S  S32  1  0.91912550  0.52615417  0.99562135  1
  S  S33  1  0.08172380  0.49367889  0.01416379  1
  S  S34  1  0.67349781  0.44938125  0.90647566  1
  S  S35  1  0.32789820  0.50658613  0.09452917  1
  S  S36  1  0.59536199  0.96712969  0.66664481  1
  S  S37  1  0.40555032  0.00702770  0.35537851  1
  S  S38  1  0.23908058  0.47520072  0.28667804  1
  S  S39  1  0.76588297  0.41069813  0.70875670  1
  S  S40  1  0.66887356  0.98353379  0.44848442  1
  S  S41  1  0.32853062  0.01458514  0.54303908  1
