# generated using pymatgen
data_Pr2Mn3(SbS3)4
_symmetry_space_group_name_H-M   'P 1'
_cell_length_a   20.02960800
_cell_length_b   3.90410600
_cell_length_c   14.95364829
_cell_angle_alpha   90.00000000
_cell_angle_beta   126.33350609
_cell_angle_gamma   90.00000000
_symmetry_Int_Tables_number   1
_chemical_formula_structural   Pr2Mn3(SbS3)4
_chemical_formula_sum   'Pr4 Mn6 Sb8 S24'
_cell_volume   942.00006694
_cell_formula_units_Z   2
loop_
 _symmetry_equiv_pos_site_id
 _symmetry_equiv_pos_as_xyz
  1  'x, y, z'
loop_
 _atom_site_type_symbol
 _atom_site_label
 _atom_site_symmetry_multiplicity
 _atom_site_fract_x
 _atom_site_fract_y
 _atom_site_fract_z
 _atom_site_occupancy
  Pr  Pr0  1  0.26456789  0.52259902  0.86015387  1
  Pr  Pr1  1  0.73155074  0.52439345  0.13831263  1
  Pr  Pr2  1  0.76712580  0.96968581  0.87701975  1
  Pr  Pr3  1  0.24396510  0.98170588  0.14581749  1
  Mn  Mn4  1  0.29293090  0.50014464  0.59460736  1
  Mn  Mn5  1  0.69687610  0.46138751  0.37390713  1
  Mn  Mn6  1  0.00125330  0.98069947  0.00241122  1
  Mn  Mn7  1  0.79493090  0.97134970  0.59488563  1
  Mn  Mn8  1  0.19741047  0.92417507  0.40820916  1
  Mn  Mn9  1  0.49680529  0.52832826  0.00568905  1
  Sb  Sb10  1  0.89887093  0.98876783  0.45453859  1
  Sb  Sb11  1  0.10526660  0.03173299  0.55567181  1
  Sb  Sb12  1  0.03105636  0.54833577  0.81128131  1
  Sb  Sb13  1  0.96818901  0.51566794  0.19248084  1
  Sb  Sb14  1  0.39174634  0.49612828  0.45374710  1
  Sb  Sb15  1  0.62174241  0.47106973  0.57643676  1
  Sb  Sb16  1  0.54102802  0.03201102  0.82325788  1
  Sb  Sb17  1  0.45329937  0.00089158  0.18295326  1
  S  S18  1  0.93841497  0.99651310  0.79439279  1
  S  S19  1  0.06070398  0.98030727  0.20767470  1
  S  S20  1  0.41756547  0.96870760  0.99008727  1
  S  S21  1  0.58198788  0.01961609  0.02209787  1
  S  S22  1  0.17404154  0.96211363  0.89917919  1
  S  S23  1  0.83114621  0.01282803  0.11847982  1
  S  S24  1  0.09757496  0.50727968  0.66032460  1
  S  S25  1  0.89254888  0.49439934  0.33635427  1
  S  S26  1  0.74541521  0.01137028  0.31364678  1
  S  S27  1  0.26125996  0.00033117  0.68707847  1
  S  S28  1  0.15975706  0.42189289  0.44971173  1
  S  S29  1  0.81536403  0.47791288  0.52448191  1
  S  S30  1  0.43353806  0.50724202  0.80712000  1
  S  S31  1  0.55402106  0.49196180  0.19416907  1
  S  S32  1  0.91896312  0.52645096  0.99513501  1
  S  S33  1  0.08157429  0.49475615  0.01425977  1
  S  S34  1  0.67374413  0.44865930  0.90661249  1
  S  S35  1  0.32857827  0.50566897  0.09570545  1
  S  S36  1  0.59518729  0.96829370  0.66644433  1
  S  S37  1  0.40563386  0.00666435  0.35537458  1
  S  S38  1  0.23888986  0.47410139  0.28617686  1
  S  S39  1  0.76612641  0.41167393  0.70930510  1
  S  S40  1  0.66939151  0.98354523  0.44944501  1
  S  S41  1  0.32888557  0.01622369  0.54309126  1
