# generated using pymatgen
data_Pr2Mn3(SbS3)4
_symmetry_space_group_name_H-M   'P 1'
_cell_length_a   20.02960800
_cell_length_b   3.90410600
_cell_length_c   14.95364829
_cell_angle_alpha   90.00000000
_cell_angle_beta   126.33350609
_cell_angle_gamma   90.00000000
_symmetry_Int_Tables_number   1
_chemical_formula_structural   Pr2Mn3(SbS3)4
_chemical_formula_sum   'Pr4 Mn6 Sb8 S24'
_cell_volume   942.00006694
_cell_formula_units_Z   2
loop_
 _symmetry_equiv_pos_site_id
 _symmetry_equiv_pos_as_xyz
  1  'x, y, z'
loop_
 _atom_site_type_symbol
 _atom_site_label
 _atom_site_symmetry_multiplicity
 _atom_site_fract_x
 _atom_site_fract_y
 _atom_site_fract_z
 _atom_site_occupancy
  Pr  Pr0  1  0.26474583  0.52307787  0.86040992  1
  Pr  Pr1  1  0.73145729  0.52487604  0.13821824  1
  Pr  Pr2  1  0.76718846  0.96968464  0.87708993  1
  Pr  Pr3  1  0.24391865  0.98157164  0.14583661  1
  Mn  Mn4  1  0.29300143  0.50022384  0.59481450  1
  Mn  Mn5  1  0.69661351  0.45975890  0.37373465  1
  Mn  Mn6  1  0.00136048  0.98228881  0.00261728  1
  Mn  Mn7  1  0.79485014  0.97159586  0.59492076  1
  Mn  Mn8  1  0.19720899  0.92391083  0.40834424  1
  Mn  Mn9  1  0.49695404  0.52735865  0.00586177  1
  Sb  Sb10  1  0.89872959  0.98849672  0.45435440  1
  Sb  Sb11  1  0.10503593  0.03136569  0.55529588  1
  Sb  Sb12  1  0.03103248  0.54744284  0.81103952  1
  Sb  Sb13  1  0.96819388  0.51659744  0.19225479  1
  Sb  Sb14  1  0.39154973  0.49583172  0.45362017  1
  Sb  Sb15  1  0.62164100  0.47051394  0.57640934  1
  Sb  Sb16  1  0.54089615  0.03224052  0.82327186  1
  Sb  Sb17  1  0.45337884  0.00111249  0.18301581  1
  S  S18  1  0.93801000  0.99507680  0.79392842  1
  S  S19  1  0.06043963  0.97903734  0.20777932  1
  S  S20  1  0.41738576  0.96876060  0.98982643  1
  S  S21  1  0.58191987  0.01980324  0.02198335  1
  S  S22  1  0.17406158  0.96215382  0.89878938  1
  S  S23  1  0.83102307  0.01323113  0.11832261  1
  S  S24  1  0.09781119  0.50742211  0.65997172  1
  S  S25  1  0.89207644  0.49422930  0.33589612  1
  S  S26  1  0.74567246  0.01150720  0.31362686  1
  S  S27  1  0.26116429  0.99953338  0.68706539  1
  S  S28  1  0.15993028  0.42261126  0.44976409  1
  S  S29  1  0.81521760  0.47734015  0.52419509  1
  S  S30  1  0.43389111  0.50569251  0.80757050  1
  S  S31  1  0.55406092  0.49187519  0.19408730  1
  S  S32  1  0.91870917  0.52691723  0.99457314  1
  S  S33  1  0.08148196  0.49568880  0.01424137  1
  S  S34  1  0.67393934  0.44734945  0.90666593  1
  S  S35  1  0.32940054  0.50471979  0.09708274  1
  S  S36  1  0.59489035  0.96889868  0.66605737  1
  S  S37  1  0.40565059  0.00582557  0.35535337  1
  S  S38  1  0.23858454  0.47290642  0.28570037  1
  S  S39  1  0.76629151  0.41243024  0.70979662  1
  S  S40  1  0.67001764  0.98440421  0.45057821  1
  S  S41  1  0.32920377  0.01800729  0.54324438  1
