# generated using pymatgen
data_Pr2Mn3(SbS3)4
_symmetry_space_group_name_H-M   'P 1'
_cell_length_a   20.02960800
_cell_length_b   3.90410600
_cell_length_c   14.95364829
_cell_angle_alpha   90.00000000
_cell_angle_beta   126.33350609
_cell_angle_gamma   90.00000000
_symmetry_Int_Tables_number   1
_chemical_formula_structural   Pr2Mn3(SbS3)4
_chemical_formula_sum   'Pr4 Mn6 Sb8 S24'
_cell_volume   942.00006694
_cell_formula_units_Z   2
loop_
 _symmetry_equiv_pos_site_id
 _symmetry_equiv_pos_as_xyz
  1  'x, y, z'
loop_
 _atom_site_type_symbol
 _atom_site_label
 _atom_site_symmetry_multiplicity
 _atom_site_fract_x
 _atom_site_fract_y
 _atom_site_fract_z
 _atom_site_occupancy
  Pr  Pr0  1  0.26484302  0.52342596  0.86051626  1
  Pr  Pr1  1  0.73136868  0.52526938  0.13812473  1
  Pr  Pr2  1  0.76717183  0.96959745  0.87710321  1
  Pr  Pr3  1  0.24391255  0.98142907  0.14586788  1
  Mn  Mn4  1  0.29306365  0.50017990  0.59498345  1
  Mn  Mn5  1  0.69641785  0.45826638  0.37369755  1
  Mn  Mn6  1  0.00139634  0.98342133  0.00273533  1
  Mn  Mn7  1  0.79470133  0.97164122  0.59487844  1
  Mn  Mn8  1  0.19708741  0.92394790  0.40850555  1
  Mn  Mn9  1  0.49695472  0.52606421  0.00589957  1
  Sb  Sb10  1  0.89860588  0.98844780  0.45424261  1
  Sb  Sb11  1  0.10490924  0.03078933  0.55503830  1
  Sb  Sb12  1  0.03099992  0.54673397  0.81080388  1
  Sb  Sb13  1  0.96814132  0.51729744  0.19205677  1
  Sb  Sb14  1  0.39134894  0.49522344  0.45344269  1
  Sb  Sb15  1  0.62147421  0.46972814  0.57621469  1
  Sb  Sb16  1  0.54081275  0.03240330  0.82326730  1
  Sb  Sb17  1  0.45349474  0.00174915  0.18323224  1
  S  S18  1  0.93752118  0.99420195  0.79342649  1
  S  S19  1  0.06027936  0.97791223  0.20792539  1
  S  S20  1  0.41737404  0.96862509  0.98969016  1
  S  S21  1  0.58186295  0.01997849  0.02180651  1
  S  S22  1  0.17390051  0.96228811  0.89845688  1
  S  S23  1  0.83095112  0.01363504  0.11815487  1
  S  S24  1  0.09799156  0.50735145  0.65957768  1
  S  S25  1  0.89171666  0.49372062  0.33552570  1
  S  S26  1  0.74588184  0.01148277  0.31371148  1
  S  S27  1  0.26106435  0.99865130  0.68701566  1
  S  S28  1  0.16004608  0.42312742  0.44979448  1
  S  S29  1  0.81514562  0.47714705  0.52408431  1
  S  S30  1  0.43420051  0.50467530  0.80823427  1
  S  S31  1  0.55407233  0.49185568  0.19408116  1
  S  S32  1  0.91835204  0.52663652  0.99404646  1
  S  S33  1  0.08133220  0.49639785  0.01413275  1
  S  S34  1  0.67420794  0.44563845  0.90683584  1
  S  S35  1  0.33015058  0.50383622  0.09834748  1
  S  S36  1  0.59468632  0.96873242  0.66573877  1
  S  S37  1  0.40568567  0.00578356  0.35536944  1
  S  S38  1  0.23810625  0.47157816  0.28503946  1
  S  S39  1  0.76635027  0.41306011  0.71007933  1
  S  S40  1  0.67034492  0.98548662  0.45132822  1
  S  S41  1  0.32948043  0.01880594  0.54337403  1
