# generated using pymatgen
data_Pr2Mn3(SbS3)4
_symmetry_space_group_name_H-M   'P 1'
_cell_length_a   20.02960800
_cell_length_b   3.90410600
_cell_length_c   14.95364829
_cell_angle_alpha   90.00000000
_cell_angle_beta   126.33350609
_cell_angle_gamma   90.00000000
_symmetry_Int_Tables_number   1
_chemical_formula_structural   Pr2Mn3(SbS3)4
_chemical_formula_sum   'Pr4 Mn6 Sb8 S24'
_cell_volume   942.00006694
_cell_formula_units_Z   2
loop_
 _symmetry_equiv_pos_site_id
 _symmetry_equiv_pos_as_xyz
  1  'x, y, z'
loop_
 _atom_site_type_symbol
 _atom_site_label
 _atom_site_symmetry_multiplicity
 _atom_site_fract_x
 _atom_site_fract_y
 _atom_site_fract_z
 _atom_site_occupancy
  Pr  Pr0  1  0.26495313  0.52387296  0.86062169  1
  Pr  Pr1  1  0.73134307  0.52578297  0.13809640  1
  Pr  Pr2  1  0.76707540  0.96941827  0.87707368  1
  Pr  Pr3  1  0.24387450  0.98108458  0.14584355  1
  Mn  Mn4  1  0.29322928  0.50066436  0.59520172  1
  Mn  Mn5  1  0.69636192  0.45678207  0.37368862  1
  Mn  Mn6  1  0.00141431  0.98445783  0.00273515  1
  Mn  Mn7  1  0.79456341  0.97134857  0.59487227  1
  Mn  Mn8  1  0.19701026  0.92412536  0.40861262  1
  Mn  Mn9  1  0.49688707  0.52501275  0.00578188  1
  Sb  Sb10  1  0.89852688  0.98823927  0.45420415  1
  Sb  Sb11  1  0.10478740  0.03010401  0.55482607  1
  Sb  Sb12  1  0.03103134  0.54611224  0.81069085  1
  Sb  Sb13  1  0.96810890  0.51780466  0.19190258  1
  Sb  Sb14  1  0.39108527  0.49473925  0.45326276  1
  Sb  Sb15  1  0.62131097  0.46883505  0.57607847  1
  Sb  Sb16  1  0.54077484  0.03263505  0.82324565  1
  Sb  Sb17  1  0.45360785  0.00239607  0.18346809  1
  S  S18  1  0.93713311  0.99344646  0.79294383  1
  S  S19  1  0.06010145  0.97742325  0.20807912  1
  S  S20  1  0.41728333  0.96841075  0.98955145  1
  S  S21  1  0.58193058  0.01979576  0.02188216  1
  S  S22  1  0.17390002  0.96226051  0.89818320  1
  S  S23  1  0.83090679  0.01451947  0.11798996  1
  S  S24  1  0.09816650  0.50751703  0.65924312  1
  S  S25  1  0.89135852  0.49305196  0.33524995  1
  S  S26  1  0.74616638  0.01136838  0.31388366  1
  S  S27  1  0.26106064  0.99717599  0.68702485  1
  S  S28  1  0.16016208  0.42396957  0.44981371  1
  S  S29  1  0.81508406  0.47738644  0.52402194  1
  S  S30  1  0.43440224  0.50356738  0.80875773  1
  S  S31  1  0.55399535  0.49192397  0.19391982  1
  S  S32  1  0.91792849  0.52614474  0.99357228  1
  S  S33  1  0.08134455  0.49738958  0.01433634  1
  S  S34  1  0.67436285  0.44405945  0.90710915  1
  S  S35  1  0.33082848  0.50324483  0.09954548  1
  S  S36  1  0.59453777  0.96772490  0.66550169  1
  S  S37  1  0.40590370  0.00555173  0.35558836  1
  S  S38  1  0.23757760  0.46979247  0.28442617  1
  S  S39  1  0.76630220  0.41322916  0.71005790  1
  S  S40  1  0.67064687  0.98636532  0.45202551  1
  S  S41  1  0.32977232  0.01974214  0.54350650  1
