# generated using pymatgen
data_Pr2Mn3(SbS3)4
_symmetry_space_group_name_H-M   'P 1'
_cell_length_a   20.02960800
_cell_length_b   3.90410600
_cell_length_c   14.95364829
_cell_angle_alpha   90.00000000
_cell_angle_beta   126.33350609
_cell_angle_gamma   90.00000000
_symmetry_Int_Tables_number   1
_chemical_formula_structural   Pr2Mn3(SbS3)4
_chemical_formula_sum   'Pr4 Mn6 Sb8 S24'
_cell_volume   942.00006694
_cell_formula_units_Z   2
loop_
 _symmetry_equiv_pos_site_id
 _symmetry_equiv_pos_as_xyz
  1  'x, y, z'
loop_
 _atom_site_type_symbol
 _atom_site_label
 _atom_site_symmetry_multiplicity
 _atom_site_fract_x
 _atom_site_fract_y
 _atom_site_fract_z
 _atom_site_occupancy
  Pr  Pr0  1  0.26502720  0.52393634  0.86065379  1
  Pr  Pr1  1  0.73127047  0.52620180  0.13799737  1
  Pr  Pr2  1  0.76702587  0.96917128  0.87710148  1
  Pr  Pr3  1  0.24386054  0.98057745  0.14586556  1
  Mn  Mn4  1  0.29334877  0.50082599  0.59542030  1
  Mn  Mn5  1  0.69624501  0.45527986  0.37366071  1
  Mn  Mn6  1  0.00152475  0.98538160  0.00286648  1
  Mn  Mn7  1  0.79445097  0.97163148  0.59484633  1
  Mn  Mn8  1  0.19692084  0.92475048  0.40859455  1
  Mn  Mn9  1  0.49685460  0.52341129  0.00577510  1
  Sb  Sb10  1  0.89851353  0.98789490  0.45418559  1
  Sb  Sb11  1  0.10470828  0.02938969  0.55458543  1
  Sb  Sb12  1  0.03106707  0.54507206  0.81067644  1
  Sb  Sb13  1  0.96806661  0.51835469  0.19179427  1
  Sb  Sb14  1  0.39080779  0.49465728  0.45307129  1
  Sb  Sb15  1  0.62115670  0.46794360  0.57602528  1
  Sb  Sb16  1  0.54079659  0.03309984  0.82326844  1
  Sb  Sb17  1  0.45374484  0.00275951  0.18379079  1
  S  S18  1  0.93669145  0.99346226  0.79235193  1
  S  S19  1  0.05992196  0.97692661  0.20844086  1
  S  S20  1  0.41693669  0.96825862  0.98925995  1
  S  S21  1  0.58192857  0.01980146  0.02216732  1
  S  S22  1  0.17394380  0.96197615  0.89791816  1
  S  S23  1  0.83079655  0.01503499  0.11772708  1
  S  S24  1  0.09823456  0.50746484  0.65877057  1
  S  S25  1  0.89105897  0.49219123  0.33486743  1
  S  S26  1  0.74637287  0.01103239  0.31371922  1
  S  S27  1  0.26110549  0.99659695  0.68703787  1
  S  S28  1  0.16033612  0.42440840  0.44977824  1
  S  S29  1  0.81506715  0.47728704  0.52396527  1
  S  S30  1  0.43446994  0.50261125  0.80919424  1
  S  S31  1  0.55402393  0.49179690  0.19364082  1
  S  S32  1  0.91751034  0.52549861  0.99317692  1
  S  S33  1  0.08124238  0.49792439  0.01451113  1
  S  S34  1  0.67441712  0.44167918  0.90717612  1
  S  S35  1  0.33136942  0.50283167  0.10055053  1
  S  S36  1  0.59447007  0.96739710  0.66536354  1
  S  S37  1  0.40590047  0.00485363  0.35559679  1
  S  S38  1  0.23710050  0.46832048  0.28396893  1
  S  S39  1  0.76627019  0.41317832  0.71000965  1
  S  S40  1  0.67074496  0.98796788  0.45235619  1
  S  S41  1  0.33008478  0.02041209  0.54367520  1
