# generated using pymatgen
data_Pr2Mn3(SbS3)4
_symmetry_space_group_name_H-M   'P 1'
_cell_length_a   20.02960800
_cell_length_b   3.90410600
_cell_length_c   14.95364829
_cell_angle_alpha   90.00000000
_cell_angle_beta   126.33350609
_cell_angle_gamma   90.00000000
_symmetry_Int_Tables_number   1
_chemical_formula_structural   Pr2Mn3(SbS3)4
_chemical_formula_sum   'Pr4 Mn6 Sb8 S24'
_cell_volume   942.00006694
_cell_formula_units_Z   2
loop_
 _symmetry_equiv_pos_site_id
 _symmetry_equiv_pos_as_xyz
  1  'x, y, z'
loop_
 _atom_site_type_symbol
 _atom_site_label
 _atom_site_symmetry_multiplicity
 _atom_site_fract_x
 _atom_site_fract_y
 _atom_site_fract_z
 _atom_site_occupancy
  Pr  Pr0  1  0.26657710  0.49686959  0.86410298  1
  Pr  Pr1  1  0.73529689  0.51093651  0.13552716  1
  Pr  Pr2  1  0.76332143  0.01372567  0.86099566  1
  Pr  Pr3  1  0.23470779  0.99603699  0.13446392  1
  Mn  Mn4  1  0.28875205  0.47978541  0.58948909  1
  Mn  Mn5  1  0.68578209  0.47062891  0.36641693  1
  Mn  Mn6  1  0.00874707  0.99358651  0.01940270  1
  Mn  Mn7  1  0.80395196  0.01449123  0.61927050  1
  Mn  Mn8  1  0.19836088  0.97528796  0.37324927  1
  Mn  Mn9  1  0.49103717  0.47567745  0.99034197  1
  Sb  Sb10  1  0.89061273  0.98432975  0.45141886  1
  Sb  Sb11  1  0.11165462  0.98119573  0.54462948  1
  Sb  Sb12  1  0.03741865  0.51998148  0.82092460  1
  Sb  Sb13  1  0.96307249  0.50127797  0.18495154  1
  Sb  Sb14  1  0.39536476  0.49960833  0.45112604  1
  Sb  Sb15  1  0.60664497  0.46612580  0.55018313  1
  Sb  Sb16  1  0.53378011  0.99285770  0.80821547  1
  Sb  Sb17  1  0.46534915  0.02178780  0.19091423  1
  S  S18  1  0.93884533  0.00990803  0.81010631  1
  S  S19  1  0.06395910  0.97320858  0.20028611  1
  S  S20  1  0.41943264  0.95660663  0.98419961  1
  S  S21  1  0.58181651  0.03392998  0.01456513  1
  S  S22  1  0.17206858  0.05600636  0.90280980  1
  S  S23  1  0.82947603  0.05117251  0.10038706  1
  S  S24  1  0.09391842  0.48335330  0.64761649  1
  S  S25  1  0.91473355  0.49009666  0.35678421  1
  S  S26  1  0.73594403  0.95643610  0.29962054  1
  S  S27  1  0.26269708  0.01055238  0.70843817  1
  S  S28  1  0.16055478  0.51236005  0.42511671  1
  S  S29  1  0.82349505  0.48795597  0.55139912  1
  S  S30  1  0.42973497  0.48993938  0.79766975  1
  S  S31  1  0.55228098  0.52640541  0.18070793  1
  S  S32  1  0.91309084  0.48865257  0.98813997  1
  S  S33  1  0.09250931  0.50088493  0.03404526  1
  S  S34  1  0.66231608  0.52479823  0.88603527  1
  S  S35  1  0.33047992  0.50799819  0.09912648  1
  S  S36  1  0.60059493  0.99751663  0.65891957  1
  S  S37  1  0.40102144  0.98445923  0.34181952  1
  S  S38  1  0.23985792  0.47263037  0.31213543  1
  S  S39  1  0.76161034  0.51171736  0.69176631  1
  S  S40  1  0.66664089  0.02820108  0.44905680  1
  S  S41  1  0.33017307  0.97743405  0.55743187  1
