# generated using pymatgen
data_Pr2Mn3(SbS3)4
_symmetry_space_group_name_H-M   'P 1'
_cell_length_a   20.02960800
_cell_length_b   3.90410600
_cell_length_c   14.95364829
_cell_angle_alpha   90.00000000
_cell_angle_beta   126.33350609
_cell_angle_gamma   90.00000000
_symmetry_Int_Tables_number   1
_chemical_formula_structural   Pr2Mn3(SbS3)4
_chemical_formula_sum   'Pr4 Mn6 Sb8 S24'
_cell_volume   942.00006694
_cell_formula_units_Z   2
loop_
 _symmetry_equiv_pos_site_id
 _symmetry_equiv_pos_as_xyz
  1  'x, y, z'
loop_
 _atom_site_type_symbol
 _atom_site_label
 _atom_site_symmetry_multiplicity
 _atom_site_fract_x
 _atom_site_fract_y
 _atom_site_fract_z
 _atom_site_occupancy
  Pr  Pr0  1  0.26514880  0.52401426  0.86074731  1
  Pr  Pr1  1  0.73122237  0.52649178  0.13789799  1
  Pr  Pr2  1  0.76698387  0.96869696  0.87714384  1
  Pr  Pr3  1  0.24393479  0.97997574  0.14594855  1
  Mn  Mn4  1  0.29339227  0.50100933  0.59542189  1
  Mn  Mn5  1  0.69609737  0.45404341  0.37366170  1
  Mn  Mn6  1  0.00159644  0.98600782  0.00301925  1
  Mn  Mn7  1  0.79442448  0.97218836  0.59488921  1
  Mn  Mn8  1  0.19689165  0.92523716  0.40858712  1
  Mn  Mn9  1  0.49678400  0.52150126  0.00571330  1
  Sb  Sb10  1  0.89852336  0.98777847  0.45410684  1
  Sb  Sb11  1  0.10469247  0.02848259  0.55436751  1
  Sb  Sb12  1  0.03117588  0.54412563  0.81071201  1
  Sb  Sb13  1  0.96802351  0.51869509  0.19169706  1
  Sb  Sb14  1  0.39061583  0.49474100  0.45294810  1
  Sb  Sb15  1  0.62090389  0.46770150  0.57598655  1
  Sb  Sb16  1  0.54080213  0.03314748  0.82323483  1
  Sb  Sb17  1  0.45383051  0.00309411  0.18409784  1
  S  S18  1  0.93610822  0.99319815  0.79169107  1
  S  S19  1  0.05952039  0.97626999  0.20857822  1
  S  S20  1  0.41652005  0.96791226  0.98888002  1
  S  S21  1  0.58205158  0.01986548  0.02274092  1
  S  S22  1  0.17400664  0.96107389  0.89774845  1
  S  S23  1  0.83060937  0.01568417  0.11748128  1
  S  S24  1  0.09821786  0.50751294  0.65838071  1
  S  S25  1  0.89083231  0.49231719  0.33444095  1
  S  S26  1  0.74672996  0.01155678  0.31367383  1
  S  S27  1  0.26117341  0.99572366  0.68706941  1
  S  S28  1  0.16052624  0.42518079  0.44988565  1
  S  S29  1  0.81510244  0.47709703  0.52423755  1
  S  S30  1  0.43436471  0.50168046  0.80943595  1
  S  S31  1  0.55411680  0.49091255  0.19348693  1
  S  S32  1  0.91720167  0.52448040  0.99284979  1
  S  S33  1  0.08107456  0.49827955  0.01447232  1
  S  S34  1  0.67437194  0.43882138  0.90713253  1
  S  S35  1  0.33210542  0.50258902  0.10165028  1
  S  S36  1  0.59434784  0.96706158  0.66524639  1
  S  S37  1  0.40587109  0.00408689  0.35559705  1
  S  S38  1  0.23671325  0.46760383  0.28362737  1
  S  S39  1  0.76631220  0.41351771  0.70997783  1
  S  S40  1  0.67088223  0.98974007  0.45266460  1
  S  S41  1  0.33021597  0.02107807  0.54375457  1
