# generated using pymatgen
data_Pr2Mn3(SbS3)4
_symmetry_space_group_name_H-M   'P 1'
_cell_length_a   20.02960800
_cell_length_b   3.90410600
_cell_length_c   14.95364829
_cell_angle_alpha   90.00000000
_cell_angle_beta   126.33350609
_cell_angle_gamma   90.00000000
_symmetry_Int_Tables_number   1
_chemical_formula_structural   Pr2Mn3(SbS3)4
_chemical_formula_sum   'Pr4 Mn6 Sb8 S24'
_cell_volume   942.00006694
_cell_formula_units_Z   2
loop_
 _symmetry_equiv_pos_site_id
 _symmetry_equiv_pos_as_xyz
  1  'x, y, z'
loop_
 _atom_site_type_symbol
 _atom_site_label
 _atom_site_symmetry_multiplicity
 _atom_site_fract_x
 _atom_site_fract_y
 _atom_site_fract_z
 _atom_site_occupancy
  Pr  Pr0  1  0.26526339  0.52405821  0.86081838  1
  Pr  Pr1  1  0.73116137  0.52678922  0.13783673  1
  Pr  Pr2  1  0.76691807  0.96837620  0.87718212  1
  Pr  Pr3  1  0.24406263  0.97937518  0.14610300  1
  Mn  Mn4  1  0.29331075  0.50106331  0.59526903  1
  Mn  Mn5  1  0.69595447  0.45284284  0.37374930  1
  Mn  Mn6  1  0.00152002  0.98654979  0.00296164  1
  Mn  Mn7  1  0.79442354  0.97300286  0.59488093  1
  Mn  Mn8  1  0.19683507  0.92579735  0.40852849  1
  Mn  Mn9  1  0.49674430  0.51955838  0.00567896  1
  Sb  Sb10  1  0.89858944  0.98759779  0.45399234  1
  Sb  Sb11  1  0.10473338  0.02783039  0.55423448  1
  Sb  Sb12  1  0.03121768  0.54362639  0.81066175  1
  Sb  Sb13  1  0.96794682  0.51888400  0.19156363  1
  Sb  Sb14  1  0.39042334  0.49468797  0.45283722  1
  Sb  Sb15  1  0.62066328  0.46734459  0.57583335  1
  Sb  Sb16  1  0.54075433  0.03330726  0.82308031  1
  Sb  Sb17  1  0.45386248  0.00334263  0.18444556  1
  S  S18  1  0.93552821  0.99259347  0.79111294  1
  S  S19  1  0.05911675  0.97593398  0.20857186  1
  S  S20  1  0.41613537  0.96790661  0.98852308  1
  S  S21  1  0.58212104  0.01966596  0.02324728  1
  S  S22  1  0.17407532  0.96024164  0.89770580  1
  S  S23  1  0.83043705  0.01588003  0.11734318  1
  S  S24  1  0.09832030  0.50696610  0.65809536  1
  S  S25  1  0.89061684  0.49336267  0.33409189  1
  S  S26  1  0.74704480  0.01217067  0.31365399  1
  S  S27  1  0.26113666  0.99485546  0.68706525  1
  S  S28  1  0.16058252  0.42639029  0.44980939  1
  S  S29  1  0.81515739  0.47759626  0.52456516  1
  S  S30  1  0.43432359  0.50035225  0.80981398  1
  S  S31  1  0.55420688  0.49029012  0.19336190  1
  S  S32  1  0.91687417  0.52321367  0.99230387  1
  S  S33  1  0.08098413  0.49853595  0.01462762  1
  S  S34  1  0.67435791  0.43592260  0.90703011  1
  S  S35  1  0.33274054  0.50260622  0.10252837  1
  S  S36  1  0.59431254  0.96647309  0.66546704  1
  S  S37  1  0.40571327  0.00415359  0.35548934  1
  S  S38  1  0.23622379  0.46680027  0.28340347  1
  S  S39  1  0.76626094  0.41391738  0.70983793  1
  S  S40  1  0.67114180  0.99175496  0.45318375  1
  S  S41  1  0.33032322  0.02105580  0.54381061  1
