# generated using pymatgen
data_Pr2Mn3(SbS3)4
_symmetry_space_group_name_H-M   'P 1'
_cell_length_a   20.02960800
_cell_length_b   3.90410600
_cell_length_c   14.95364829
_cell_angle_alpha   90.00000000
_cell_angle_beta   126.33350609
_cell_angle_gamma   90.00000000
_symmetry_Int_Tables_number   1
_chemical_formula_structural   Pr2Mn3(SbS3)4
_chemical_formula_sum   'Pr4 Mn6 Sb8 S24'
_cell_volume   942.00006694
_cell_formula_units_Z   2
loop_
 _symmetry_equiv_pos_site_id
 _symmetry_equiv_pos_as_xyz
  1  'x, y, z'
loop_
 _atom_site_type_symbol
 _atom_site_label
 _atom_site_symmetry_multiplicity
 _atom_site_fract_x
 _atom_site_fract_y
 _atom_site_fract_z
 _atom_site_occupancy
  Pr  Pr0  1  0.26537667  0.52388318  0.86090856  1
  Pr  Pr1  1  0.73108175  0.52732358  0.13780176  1
  Pr  Pr2  1  0.76686409  0.96820182  0.87726841  1
  Pr  Pr3  1  0.24414256  0.97853082  0.14621803  1
  Mn  Mn4  1  0.29325036  0.50112090  0.59522118  1
  Mn  Mn5  1  0.69590109  0.45222522  0.37403839  1
  Mn  Mn6  1  0.00155402  0.98727734  0.00318256  1
  Mn  Mn7  1  0.79445446  0.97369227  0.59511658  1
  Mn  Mn8  1  0.19675579  0.92652669  0.40825590  1
  Mn  Mn9  1  0.49669558  0.51804727  0.00566482  1
  Sb  Sb10  1  0.89870551  0.98760256  0.45400060  1
  Sb  Sb11  1  0.10477272  0.02729577  0.55418628  1
  Sb  Sb12  1  0.03129593  0.54290938  0.81059946  1
  Sb  Sb13  1  0.96785105  0.51927892  0.19138708  1
  Sb  Sb14  1  0.39036145  0.49486647  0.45282608  1
  Sb  Sb15  1  0.62047849  0.46732303  0.57566210  1
  Sb  Sb16  1  0.54073976  0.03339631  0.82300848  1
  Sb  Sb17  1  0.45389417  0.00318244  0.18478588  1
  S  S18  1  0.93501731  0.99225257  0.79053215  1
  S  S19  1  0.05878591  0.97571355  0.20850766  1
  S  S20  1  0.41588652  0.96888971  0.98821469  1
  S  S21  1  0.58209960  0.01952570  0.02347623  1
  S  S22  1  0.17419310  0.95937792  0.89761786  1
  S  S23  1  0.83032872  0.01601767  0.11709748  1
  S  S24  1  0.09835246  0.50616933  0.65770110  1
  S  S25  1  0.89042861  0.49418023  0.33386990  1
  S  S26  1  0.74730053  0.01228640  0.31346331  1
  S  S27  1  0.26103802  0.99429765  0.68689258  1
  S  S28  1  0.16054757  0.42709219  0.44980449  1
  S  S29  1  0.81520605  0.47817140  0.52479092  1
  S  S30  1  0.43428014  0.49816307  0.81015227  1
  S  S31  1  0.55439266  0.49022084  0.19330153  1
  S  S32  1  0.91670973  0.52195343  0.99199173  1
  S  S33  1  0.08075223  0.49789085  0.01455567  1
  S  S34  1  0.67412975  0.43264976  0.90657495  1
  S  S35  1  0.33331401  0.50242340  0.10324616  1
  S  S36  1  0.59425276  0.96574876  0.66547483  1
  S  S37  1  0.40557669  0.00432655  0.35550174  1
  S  S38  1  0.23584784  0.46544858  0.28320434  1
  S  S39  1  0.76632369  0.41368602  0.70977131  1
  S  S40  1  0.67136850  0.99407367  0.45369495  1
  S  S41  1  0.33043292  0.02122282  0.54385110  1
