# generated using pymatgen
data_Pr2Mn3(SbS3)4
_symmetry_space_group_name_H-M   'P 1'
_cell_length_a   20.02960800
_cell_length_b   3.90410600
_cell_length_c   14.95364829
_cell_angle_alpha   90.00000000
_cell_angle_beta   126.33350609
_cell_angle_gamma   90.00000000
_symmetry_Int_Tables_number   1
_chemical_formula_structural   Pr2Mn3(SbS3)4
_chemical_formula_sum   'Pr4 Mn6 Sb8 S24'
_cell_volume   942.00006694
_cell_formula_units_Z   2
loop_
 _symmetry_equiv_pos_site_id
 _symmetry_equiv_pos_as_xyz
  1  'x, y, z'
loop_
 _atom_site_type_symbol
 _atom_site_label
 _atom_site_symmetry_multiplicity
 _atom_site_fract_x
 _atom_site_fract_y
 _atom_site_fract_z
 _atom_site_occupancy
  Pr  Pr0  1  0.26539129  0.52393141  0.86092876  1
  Pr  Pr1  1  0.73097738  0.52795886  0.13770239  1
  Pr  Pr2  1  0.76680220  0.96839228  0.87728854  1
  Pr  Pr3  1  0.24429588  0.97765862  0.14636379  1
  Mn  Mn4  1  0.29322337  0.50120179  0.59521674  1
  Mn  Mn5  1  0.69584504  0.45206482  0.37416543  1
  Mn  Mn6  1  0.00152951  0.98838427  0.00344841  1
  Mn  Mn7  1  0.79443123  0.97448770  0.59525009  1
  Mn  Mn8  1  0.19667190  0.92721975  0.40795741  1
  Mn  Mn9  1  0.49675852  0.51690904  0.00568722  1
  Sb  Sb10  1  0.89880055  0.98789326  0.45397108  1
  Sb  Sb11  1  0.10482443  0.02673381  0.55412304  1
  Sb  Sb12  1  0.03130777  0.54211369  0.81044559  1
  Sb  Sb13  1  0.96777933  0.52008139  0.19120401  1
  Sb  Sb14  1  0.39033089  0.49515254  0.45288264  1
  Sb  Sb15  1  0.62027904  0.46733303  0.57550314  1
  Sb  Sb16  1  0.54073147  0.03337756  0.82297607  1
  Sb  Sb17  1  0.45391505  0.00332002  0.18508574  1
  S  S18  1  0.93456719  0.99151838  0.78998578  1
  S  S19  1  0.05831057  0.97568361  0.20811353  1
  S  S20  1  0.41576314  0.97028121  0.98794365  1
  S  S21  1  0.58216154  0.01935891  0.02363367  1
  S  S22  1  0.17431694  0.95872605  0.89759713  1
  S  S23  1  0.83026738  0.01626135  0.11703405  1
  S  S24  1  0.09850704  0.50530963  0.65768621  1
  S  S25  1  0.89024172  0.49534018  0.33378551  1
  S  S26  1  0.74758495  0.01260848  0.31346131  1
  S  S27  1  0.26089669  0.99341325  0.68672216  1
  S  S28  1  0.16050056  0.42747854  0.44951707  1
  S  S29  1  0.81529265  0.47858163  0.52508230  1
  S  S30  1  0.43405778  0.49621862  0.81003531  1
  S  S31  1  0.55441457  0.48978113  0.19303928  1
  S  S32  1  0.91660195  0.52025066  0.99188274  1
  S  S33  1  0.08041795  0.49740395  0.01435607  1
  S  S34  1  0.67403028  0.42930513  0.90621033  1
  S  S35  1  0.33391428  0.50197051  0.10395703  1
  S  S36  1  0.59420899  0.96531595  0.66553517  1
  S  S37  1  0.40553993  0.00418484  0.35568993  1
  S  S38  1  0.23551984  0.46433116  0.28288184  1
  S  S39  1  0.76644611  0.41359339  0.70994172  1
  S  S40  1  0.67155187  0.99661195  0.45418234  1
  S  S41  1  0.33066355  0.02066760  0.54416169  1
