# generated using pymatgen
data_Pr2Mn3(SbS3)4
_symmetry_space_group_name_H-M   'P 1'
_cell_length_a   20.02960800
_cell_length_b   3.90410600
_cell_length_c   14.95364829
_cell_angle_alpha   90.00000000
_cell_angle_beta   126.33350609
_cell_angle_gamma   90.00000000
_symmetry_Int_Tables_number   1
_chemical_formula_structural   Pr2Mn3(SbS3)4
_chemical_formula_sum   'Pr4 Mn6 Sb8 S24'
_cell_volume   942.00006694
_cell_formula_units_Z   2
loop_
 _symmetry_equiv_pos_site_id
 _symmetry_equiv_pos_as_xyz
  1  'x, y, z'
loop_
 _atom_site_type_symbol
 _atom_site_label
 _atom_site_symmetry_multiplicity
 _atom_site_fract_x
 _atom_site_fract_y
 _atom_site_fract_z
 _atom_site_occupancy
  Pr  Pr0  1  0.26545936  0.52382456  0.86104806  1
  Pr  Pr1  1  0.73082214  0.52843265  0.13758151  1
  Pr  Pr2  1  0.76673235  0.96852869  0.87729893  1
  Pr  Pr3  1  0.24439206  0.97695535  0.14652576  1
  Mn  Mn4  1  0.29317301  0.50090003  0.59522936  1
  Mn  Mn5  1  0.69577520  0.45177306  0.37428082  1
  Mn  Mn6  1  0.00159553  0.98909464  0.00376383  1
  Mn  Mn7  1  0.79454399  0.97508549  0.59545388  1
  Mn  Mn8  1  0.19665321  0.92740227  0.40777313  1
  Mn  Mn9  1  0.49679130  0.51557078  0.00566598  1
  Sb  Sb10  1  0.89881515  0.98801349  0.45384651  1
  Sb  Sb11  1  0.10485108  0.02609171  0.55398400  1
  Sb  Sb12  1  0.03135878  0.54105945  0.81026966  1
  Sb  Sb13  1  0.96776302  0.52086558  0.19108005  1
  Sb  Sb14  1  0.39033402  0.49520593  0.45289718  1
  Sb  Sb15  1  0.62012244  0.46748102  0.57533659  1
  Sb  Sb16  1  0.54067876  0.03366437  0.82293418  1
  Sb  Sb17  1  0.45391525  0.00313451  0.18539749  1
  S  S18  1  0.93413517  0.99074955  0.78948770  1
  S  S19  1  0.05785973  0.97572514  0.20760126  1
  S  S20  1  0.41567281  0.97122412  0.98775238  1
  S  S21  1  0.58231466  0.01915516  0.02386338  1
  S  S22  1  0.17440561  0.95807744  0.89744486  1
  S  S23  1  0.83012468  0.01651750  0.11684581  1
  S  S24  1  0.09866742  0.50388797  0.65751716  1
  S  S25  1  0.89003682  0.49608228  0.33366488  1
  S  S26  1  0.74791248  0.01277817  0.31330960  1
  S  S27  1  0.26076093  0.99181002  0.68654086  1
  S  S28  1  0.16053883  0.42788671  0.44918331  1
  S  S29  1  0.81543975  0.47931787  0.52544650  1
  S  S30  1  0.43385865  0.49417995  0.80984961  1
  S  S31  1  0.55454420  0.48973805  0.19294222  1
  S  S32  1  0.91657408  0.51920202  0.99180155  1
  S  S33  1  0.07990870  0.49794014  0.01410419  1
  S  S34  1  0.67387187  0.42690724  0.90589578  1
  S  S35  1  0.33441453  0.50194344  0.10467123  1
  S  S36  1  0.59416028  0.96454227  0.66568039  1
  S  S37  1  0.40541172  0.00390171  0.35598361  1
  S  S38  1  0.23525989  0.46302933  0.28262962  1
  S  S39  1  0.76675866  0.41334449  0.71035250  1
  S  S40  1  0.67175498  0.99917881  0.45461975  1
  S  S41  1  0.33089402  0.02081462  0.54443111  1
