# generated using pymatgen
data_Pr2Mn3(SbS3)4
_symmetry_space_group_name_H-M   'P 1'
_cell_length_a   20.02960800
_cell_length_b   3.90410600
_cell_length_c   14.95364829
_cell_angle_alpha   90.00000000
_cell_angle_beta   126.33350609
_cell_angle_gamma   90.00000000
_symmetry_Int_Tables_number   1
_chemical_formula_structural   Pr2Mn3(SbS3)4
_chemical_formula_sum   'Pr4 Mn6 Sb8 S24'
_cell_volume   942.00006694
_cell_formula_units_Z   2
loop_
 _symmetry_equiv_pos_site_id
 _symmetry_equiv_pos_as_xyz
  1  'x, y, z'
loop_
 _atom_site_type_symbol
 _atom_site_label
 _atom_site_symmetry_multiplicity
 _atom_site_fract_x
 _atom_site_fract_y
 _atom_site_fract_z
 _atom_site_occupancy
  Pr  Pr0  1  0.26551282  0.52386151  0.86117008  1
  Pr  Pr1  1  0.73068943  0.52869136  0.13747118  1
  Pr  Pr2  1  0.76668852  0.96863995  0.87732297  1
  Pr  Pr3  1  0.24454844  0.97637594  0.14670621  1
  Mn  Mn4  1  0.29303913  0.50059469  0.59515429  1
  Mn  Mn5  1  0.69573568  0.45169830  0.37432486  1
  Mn  Mn6  1  0.00163040  0.98962984  0.00400540  1
  Mn  Mn7  1  0.79469205  0.97535743  0.59576161  1
  Mn  Mn8  1  0.19658719  0.92741314  0.40743106  1
  Mn  Mn9  1  0.49688421  0.51450235  0.00575988  1
  Sb  Sb10  1  0.89883519  0.98852245  0.45376759  1
  Sb  Sb11  1  0.10485882  0.02534798  0.55384145  1
  Sb  Sb12  1  0.03147437  0.54017356  0.81012197  1
  Sb  Sb13  1  0.96767386  0.52142542  0.19097130  1
  Sb  Sb14  1  0.39030907  0.49549598  0.45294665  1
  Sb  Sb15  1  0.61989888  0.46748716  0.57510253  1
  Sb  Sb16  1  0.54067091  0.03395969  0.82293073  1
  Sb  Sb17  1  0.45402113  0.00318781  0.18575455  1
  S  S18  1  0.93379813  0.99069507  0.78898322  1
  S  S19  1  0.05740049  0.97632067  0.20724937  1
  S  S20  1  0.41568821  0.97242230  0.98775211  1
  S  S21  1  0.58241395  0.01841273  0.02399512  1
  S  S22  1  0.17439494  0.95706166  0.89705172  1
  S  S23  1  0.82990395  0.01665012  0.11650640  1
  S  S24  1  0.09885541  0.50274421  0.65736867  1
  S  S25  1  0.88980822  0.49769608  0.33363350  1
  S  S26  1  0.74805383  0.01279869  0.31306993  1
  S  S27  1  0.26062566  0.98970872  0.68633563  1
  S  S28  1  0.16049934  0.42853713  0.44892491  1
  S  S29  1  0.81565724  0.47971753  0.52583195  1
  S  S30  1  0.43378005  0.49175340  0.80966205  1
  S  S31  1  0.55476572  0.48976531  0.19300827  1
  S  S32  1  0.91655616  0.51863538  0.99176314  1
  S  S33  1  0.07930311  0.49816367  0.01372295  1
  S  S34  1  0.67371615  0.42464213  0.90564171  1
  S  S35  1  0.33472339  0.50116468  0.10498524  1
  S  S36  1  0.59404141  0.96398310  0.66573231  1
  S  S37  1  0.40535840  0.00392493  0.35614691  1
  S  S38  1  0.23511745  0.46285771  0.28229144  1
  S  S39  1  0.76710789  0.41300928  0.71087238  1
  S  S40  1  0.67196919  0.00055368  0.45514920  1
  S  S41  1  0.33107884  0.02152926  0.54464909  1
