# generated using pymatgen
data_Pr2Mn3(SbS3)4
_symmetry_space_group_name_H-M   'P 1'
_cell_length_a   20.02960800
_cell_length_b   3.90410600
_cell_length_c   14.95364829
_cell_angle_alpha   90.00000000
_cell_angle_beta   126.33350609
_cell_angle_gamma   90.00000000
_symmetry_Int_Tables_number   1
_chemical_formula_structural   Pr2Mn3(SbS3)4
_chemical_formula_sum   'Pr4 Mn6 Sb8 S24'
_cell_volume   942.00006694
_cell_formula_units_Z   2
loop_
 _symmetry_equiv_pos_site_id
 _symmetry_equiv_pos_as_xyz
  1  'x, y, z'
loop_
 _atom_site_type_symbol
 _atom_site_label
 _atom_site_symmetry_multiplicity
 _atom_site_fract_x
 _atom_site_fract_y
 _atom_site_fract_z
 _atom_site_occupancy
  Pr  Pr0  1  0.26557752  0.52372697  0.86142012  1
  Pr  Pr1  1  0.73051756  0.52915064  0.13729790  1
  Pr  Pr2  1  0.76667240  0.96872205  0.87733027  1
  Pr  Pr3  1  0.24465497  0.97575085  0.14685737  1
  Mn  Mn4  1  0.29291445  0.50026248  0.59511717  1
  Mn  Mn5  1  0.69580367  0.45155093  0.37444540  1
  Mn  Mn6  1  0.00184023  0.99030952  0.00438471  1
  Mn  Mn7  1  0.79478235  0.97566287  0.59603966  1
  Mn  Mn8  1  0.19651330  0.92722050  0.40709960  1
  Mn  Mn9  1  0.49696646  0.51356210  0.00575832  1
  Sb  Sb10  1  0.89884002  0.98907493  0.45370022  1
  Sb  Sb11  1  0.10487033  0.02475914  0.55370306  1
  Sb  Sb12  1  0.03165053  0.53957009  0.81009908  1
  Sb  Sb13  1  0.96754680  0.52209999  0.19082998  1
  Sb  Sb14  1  0.39032286  0.49560673  0.45297369  1
  Sb  Sb15  1  0.61970234  0.46772900  0.57497387  1
  Sb  Sb16  1  0.54065843  0.03425111  0.82294233  1
  Sb  Sb17  1  0.45409916  0.00329810  0.18606516  1
  S  S18  1  0.93368378  0.99026555  0.78868621  1
  S  S19  1  0.05689616  0.97651249  0.20704566  1
  S  S20  1  0.41568197  0.97404745  0.98781984  1
  S  S21  1  0.58256301  0.01709760  0.02411937  1
  S  S22  1  0.17429472  0.95658596  0.89651223  1
  S  S23  1  0.82974306  0.01632257  0.11620293  1
  S  S24  1  0.09887210  0.50168799  0.65712183  1
  S  S25  1  0.88953499  0.49891834  0.33357529  1
  S  S26  1  0.74822572  0.01319183  0.31275315  1
  S  S27  1  0.26053673  0.98774368  0.68627605  1
  S  S28  1  0.16043365  0.42949499  0.44872053  1
  S  S29  1  0.81582972  0.48055212  0.52613369  1
  S  S30  1  0.43390154  0.48987041  0.80968156  1
  S  S31  1  0.55501751  0.48977023  0.19294212  1
  S  S32  1  0.91644409  0.51841693  0.99168859  1
  S  S33  1  0.07880315  0.49841755  0.01362562  1
  S  S34  1  0.67360370  0.42298388  0.90544762  1
  S  S35  1  0.33514163  0.50065616  0.10520549  1
  S  S36  1  0.59374651  0.96354889  0.66552659  1
  S  S37  1  0.40531255  0.00413276  0.35628135  1
  S  S38  1  0.23505717  0.46350414  0.28213615  1
  S  S39  1  0.76738140  0.41284830  0.71131075  1
  S  S40  1  0.67214499  0.00182713  0.45562188  1
  S  S41  1  0.33122340  0.02290425  0.54478246  1
