# generated using pymatgen
data_Pr2Mn3(SbS3)4
_symmetry_space_group_name_H-M   'P 1'
_cell_length_a   20.02960800
_cell_length_b   3.90410600
_cell_length_c   14.95364829
_cell_angle_alpha   90.00000000
_cell_angle_beta   126.33350609
_cell_angle_gamma   90.00000000
_symmetry_Int_Tables_number   1
_chemical_formula_structural   Pr2Mn3(SbS3)4
_chemical_formula_sum   'Pr4 Mn6 Sb8 S24'
_cell_volume   942.00006694
_cell_formula_units_Z   2
loop_
 _symmetry_equiv_pos_site_id
 _symmetry_equiv_pos_as_xyz
  1  'x, y, z'
loop_
 _atom_site_type_symbol
 _atom_site_label
 _atom_site_symmetry_multiplicity
 _atom_site_fract_x
 _atom_site_fract_y
 _atom_site_fract_z
 _atom_site_occupancy
  Pr  Pr0  1  0.26570484  0.52388837  0.86163108  1
  Pr  Pr1  1  0.73036056  0.52943169  0.13712065  1
  Pr  Pr2  1  0.76665690  0.96834368  0.87731906  1
  Pr  Pr3  1  0.24474513  0.97526864  0.14688917  1
  Mn  Mn4  1  0.29285042  0.49999114  0.59521691  1
  Mn  Mn5  1  0.69592413  0.45128441  0.37457614  1
  Mn  Mn6  1  0.00199539  0.99133825  0.00486921  1
  Mn  Mn7  1  0.79483851  0.97585396  0.59624577  1
  Mn  Mn8  1  0.19639797  0.92728290  0.40692385  1
  Mn  Mn9  1  0.49707314  0.51255684  0.00582233  1
  Sb  Sb10  1  0.89884911  0.98946253  0.45378621  1
  Sb  Sb11  1  0.10480553  0.02440807  0.55346333  1
  Sb  Sb12  1  0.03181232  0.53933147  0.81005425  1
  Sb  Sb13  1  0.96738066  0.52265571  0.19063979  1
  Sb  Sb14  1  0.39036119  0.49520103  0.45296430  1
  Sb  Sb15  1  0.61946511  0.46799766  0.57482678  1
  Sb  Sb16  1  0.54068820  0.03484168  0.82302274  1
  Sb  Sb17  1  0.45418528  0.00322702  0.18649280  1
  S  S18  1  0.93372006  0.98979806  0.78844337  1
  S  S19  1  0.05641926  0.97658183  0.20689279  1
  S  S20  1  0.41578042  0.97548494  0.98778065  1
  S  S21  1  0.58283362  0.01593051  0.02433491  1
  S  S22  1  0.17411636  0.95649555  0.89600774  1
  S  S23  1  0.82965077  0.01519188  0.11603882  1
  S  S24  1  0.09896935  0.50025251  0.65700187  1
  S  S25  1  0.88920376  0.50049952  0.33354545  1
  S  S26  1  0.74826309  0.01338519  0.31236537  1
  S  S27  1  0.26033907  0.98636867  0.68623532  1
  S  S28  1  0.16058447  0.43064544  0.44880612  1
  S  S29  1  0.81615751  0.48104290  0.52673088  1
  S  S30  1  0.43405857  0.48739844  0.80967158  1
  S  S31  1  0.55512683  0.48954258  0.19280651  1
  S  S32  1  0.91623874  0.51805645  0.99151024  1
  S  S33  1  0.07828943  0.49915179  0.01347176  1
  S  S34  1  0.67335221  0.42152531  0.90500526  1
  S  S35  1  0.33564030  0.50047429  0.10550457  1
  S  S36  1  0.59356500  0.96338627  0.66538903  1
  S  S37  1  0.40525350  0.00495305  0.35647955  1
  S  S38  1  0.23495764  0.46412797  0.28202897  1
  S  S39  1  0.76757172  0.41286253  0.71162855  1
  S  S40  1  0.67228712  0.00283477  0.45590970  1
  S  S41  1  0.33136333  0.02417609  0.54487559  1
