# generated using pymatgen
data_Pr2Mn3(SbS3)4
_symmetry_space_group_name_H-M   'P 1'
_cell_length_a   20.02960800
_cell_length_b   3.90410600
_cell_length_c   14.95364829
_cell_angle_alpha   90.00000000
_cell_angle_beta   126.33350609
_cell_angle_gamma   90.00000000
_symmetry_Int_Tables_number   1
_chemical_formula_structural   Pr2Mn3(SbS3)4
_chemical_formula_sum   'Pr4 Mn6 Sb8 S24'
_cell_volume   942.00006694
_cell_formula_units_Z   2
loop_
 _symmetry_equiv_pos_site_id
 _symmetry_equiv_pos_as_xyz
  1  'x, y, z'
loop_
 _atom_site_type_symbol
 _atom_site_label
 _atom_site_symmetry_multiplicity
 _atom_site_fract_x
 _atom_site_fract_y
 _atom_site_fract_z
 _atom_site_occupancy
  Pr  Pr0  1  0.26578153  0.52403555  0.86182060  1
  Pr  Pr1  1  0.73024408  0.52955716  0.13698975  1
  Pr  Pr2  1  0.76664598  0.96766806  0.87731096  1
  Pr  Pr3  1  0.24483991  0.97496331  0.14700622  1
  Mn  Mn4  1  0.29272961  0.50008681  0.59517785  1
  Mn  Mn5  1  0.69606001  0.45033923  0.37473623  1
  Mn  Mn6  1  0.00205563  0.99196600  0.00526222  1
  Mn  Mn7  1  0.79485866  0.97605631  0.59636733  1
  Mn  Mn8  1  0.19622268  0.92726797  0.40663035  1
  Mn  Mn9  1  0.49708686  0.51119172  0.00586913  1
  Sb  Sb10  1  0.89886941  0.98981372  0.45388277  1
  Sb  Sb11  1  0.10476637  0.02414861  0.55326495  1
  Sb  Sb12  1  0.03199251  0.53900392  0.80989521  1
  Sb  Sb13  1  0.96724118  0.52309556  0.19056052  1
  Sb  Sb14  1  0.39036984  0.49466203  0.45293487  1
  Sb  Sb15  1  0.61922938  0.46839436  0.57472240  1
  Sb  Sb16  1  0.54066006  0.03517703  0.82303227  1
  Sb  Sb17  1  0.45426078  0.00351458  0.18682358  1
  S  S18  1  0.93372746  0.98964342  0.78831657  1
  S  S19  1  0.05610725  0.97629392  0.20687109  1
  S  S20  1  0.41595143  0.97677373  0.98772657  1
  S  S21  1  0.58307830  0.01455390  0.02447182  1
  S  S22  1  0.17376380  0.95646018  0.89532418  1
  S  S23  1  0.82948501  0.01474250  0.11583740  1
  S  S24  1  0.09918995  0.49860039  0.65707069  1
  S  S25  1  0.88872286  0.50192858  0.33337481  1
  S  S26  1  0.74818205  0.01347343  0.31193782  1
  S  S27  1  0.26012727  0.98576129  0.68620252  1
  S  S28  1  0.16076311  0.43115508  0.44888650  1
  S  S29  1  0.81633031  0.48107385  0.52720416  1
  S  S30  1  0.43412407  0.48439932  0.80946845  1
  S  S31  1  0.55526281  0.48948089  0.19286194  1
  S  S32  1  0.91628465  0.51760594  0.99144677  1
  S  S33  1  0.07774889  0.49915863  0.01308087  1
  S  S34  1  0.67317601  0.41955429  0.90463837  1
  S  S35  1  0.33622983  0.49998218  0.10573365  1
  S  S36  1  0.59337116  0.96321650  0.66530462  1
  S  S37  1  0.40517452  0.00572597  0.35656973  1
  S  S38  1  0.23485189  0.46455804  0.28192399  1
  S  S39  1  0.76782722  0.41251524  0.71208967  1
  S  S40  1  0.67234242  0.00331869  0.45607845  1
  S  S41  1  0.33140874  0.02565207  0.54504049  1
