# generated using pymatgen
data_Pr2Mn3(SbS3)4
_symmetry_space_group_name_H-M   'P 1'
_cell_length_a   20.02960800
_cell_length_b   3.90410600
_cell_length_c   14.95364829
_cell_angle_alpha   90.00000000
_cell_angle_beta   126.33350609
_cell_angle_gamma   90.00000000
_symmetry_Int_Tables_number   1
_chemical_formula_structural   Pr2Mn3(SbS3)4
_chemical_formula_sum   'Pr4 Mn6 Sb8 S24'
_cell_volume   942.00006694
_cell_formula_units_Z   2
loop_
 _symmetry_equiv_pos_site_id
 _symmetry_equiv_pos_as_xyz
  1  'x, y, z'
loop_
 _atom_site_type_symbol
 _atom_site_label
 _atom_site_symmetry_multiplicity
 _atom_site_fract_x
 _atom_site_fract_y
 _atom_site_fract_z
 _atom_site_occupancy
  Pr  Pr0  1  0.26580733  0.52407716  0.86203918  1
  Pr  Pr1  1  0.73014606  0.52959676  0.13696405  1
  Pr  Pr2  1  0.76661506  0.96707313  0.87730375  1
  Pr  Pr3  1  0.24492265  0.97471354  0.14715448  1
  Mn  Mn4  1  0.29253902  0.50039017  0.59498546  1
  Mn  Mn5  1  0.69610864  0.44945622  0.37477599  1
  Mn  Mn6  1  0.00196655  0.99307701  0.00559580  1
  Mn  Mn7  1  0.79474371  0.97639989  0.59633696  1
  Mn  Mn8  1  0.19604520  0.92749837  0.40647013  1
  Mn  Mn9  1  0.49706615  0.51007388  0.00603630  1
  Sb  Sb10  1  0.89889722  0.99001403  0.45405648  1
  Sb  Sb11  1  0.10469450  0.02387847  0.55308890  1
  Sb  Sb12  1  0.03210843  0.53900227  0.80975901  1
  Sb  Sb13  1  0.96706754  0.52351821  0.19042128  1
  Sb  Sb14  1  0.39034991  0.49436112  0.45295650  1
  Sb  Sb15  1  0.61900180  0.46895903  0.57462557  1
  Sb  Sb16  1  0.54055574  0.03566679  0.82299202  1
  Sb  Sb17  1  0.45441231  0.00391716  0.18705113  1
  S  S18  1  0.93379731  0.98924874  0.78820038  1
  S  S19  1  0.05588284  0.97576976  0.20673759  1
  S  S20  1  0.41606785  0.97730428  0.98758619  1
  S  S21  1  0.58326333  0.01339319  0.02452740  1
  S  S22  1  0.17343421  0.95589942  0.89446941  1
  S  S23  1  0.82930658  0.01418774  0.11557688  1
  S  S24  1  0.09956231  0.49745773  0.65743648  1
  S  S25  1  0.88839873  0.50349106  0.33313169  1
  S  S26  1  0.74794618  0.01331308  0.31144015  1
  S  S27  1  0.25987569  0.98554599  0.68621535  1
  S  S28  1  0.16098465  0.43152913  0.44902273  1
  S  S29  1  0.81651693  0.48143395  0.52760090  1
  S  S30  1  0.43411866  0.48222225  0.80918579  1
  S  S31  1  0.55543284  0.48917327  0.19298790  1
  S  S32  1  0.91639024  0.51670976  0.99142742  1
  S  S33  1  0.07720590  0.49925565  0.01266772  1
  S  S34  1  0.67309573  0.41787593  0.90447371  1
  S  S35  1  0.33667498  0.49969587  0.10592878  1
  S  S36  1  0.59314682  0.96319771  0.66545024  1
  S  S37  1  0.40512585  0.00642811  0.35666164  1
  S  S38  1  0.23458261  0.46483204  0.28173011  1
  S  S39  1  0.76799793  0.41199893  0.71228877  1
  S  S40  1  0.67250205  0.00387331  0.45633004  1
  S  S41  1  0.33129232  0.02695428  0.54513761  1
