# generated using pymatgen
data_Pr2Mn3(SbS3)4
_symmetry_space_group_name_H-M   'P 1'
_cell_length_a   20.02960800
_cell_length_b   3.90410600
_cell_length_c   14.95364829
_cell_angle_alpha   90.00000000
_cell_angle_beta   126.33350609
_cell_angle_gamma   90.00000000
_symmetry_Int_Tables_number   1
_chemical_formula_structural   Pr2Mn3(SbS3)4
_chemical_formula_sum   'Pr4 Mn6 Sb8 S24'
_cell_volume   942.00006694
_cell_formula_units_Z   2
loop_
 _symmetry_equiv_pos_site_id
 _symmetry_equiv_pos_as_xyz
  1  'x, y, z'
loop_
 _atom_site_type_symbol
 _atom_site_label
 _atom_site_symmetry_multiplicity
 _atom_site_fract_x
 _atom_site_fract_y
 _atom_site_fract_z
 _atom_site_occupancy
  Pr  Pr0  1  0.26659505  0.49701015  0.86417118  1
  Pr  Pr1  1  0.73524440  0.51086518  0.13542270  1
  Pr  Pr2  1  0.76332459  0.01409323  0.86099772  1
  Pr  Pr3  1  0.23469775  0.99615353  0.13435643  1
  Mn  Mn4  1  0.28906133  0.47902977  0.58978505  1
  Mn  Mn5  1  0.68572482  0.47064165  0.36614969  1
  Mn  Mn6  1  0.00864147  0.99434608  0.01928779  1
  Mn  Mn7  1  0.80393754  0.01463270  0.61927394  1
  Mn  Mn8  1  0.19830671  0.97484069  0.37320913  1
  Mn  Mn9  1  0.49100133  0.47437510  0.99031714  1
  Sb  Sb10  1  0.89073660  0.98405832  0.45158353  1
  Sb  Sb11  1  0.11165601  0.98133410  0.54461409  1
  Sb  Sb12  1  0.03723242  0.51961078  0.82081073  1
  Sb  Sb13  1  0.96330587  0.50128323  0.18525340  1
  Sb  Sb14  1  0.39539298  0.49907115  0.45121277  1
  Sb  Sb15  1  0.60659729  0.46594424  0.54999785  1
  Sb  Sb16  1  0.53383140  0.99241940  0.80820304  1
  Sb  Sb17  1  0.46539873  0.02229502  0.19097552  1
  S  S18  1  0.93885359  0.01008868  0.81042462  1
  S  S19  1  0.06399890  0.97426945  0.20015730  1
  S  S20  1  0.41974708  0.95745241  0.98472971  1
  S  S21  1  0.58208177  0.03378601  0.01474480  1
  S  S22  1  0.17229687  0.05652413  0.90308846  1
  S  S23  1  0.82970038  0.05138458  0.10084884  1
  S  S24  1  0.09402943  0.48375073  0.64774097  1
  S  S25  1  0.91471241  0.49024334  0.35684515  1
  S  S26  1  0.73578607  0.95668310  0.29934680  1
  S  S27  1  0.26252867  0.01049547  0.70835307  1
  S  S28  1  0.16053338  0.51290898  0.42568722  1
  S  S29  1  0.82342442  0.48804426  0.55143676  1
  S  S30  1  0.42956090  0.48967221  0.79737801  1
  S  S31  1  0.55208514  0.52665852  0.18070991  1
  S  S32  1  0.91338265  0.48821148  0.98836072  1
  S  S33  1  0.09225338  0.50114591  0.03381702  1
  S  S34  1  0.66246259  0.52610767  0.88621924  1
  S  S35  1  0.33034186  0.50823960  0.09881263  1
  S  S36  1  0.60060230  0.99798543  0.65885736  1
  S  S37  1  0.40106978  0.98379947  0.34188217  1
  S  S38  1  0.23987901  0.47287708  0.31237281  1
  S  S39  1  0.76168433  0.51216838  0.69166620  1
  S  S40  1  0.66640708  0.02652301  0.44893945  1
  S  S41  1  0.33040444  0.97687518  0.55746769  1
