# generated using pymatgen
data_Pr2Mn3(SbS3)4
_symmetry_space_group_name_H-M   'P 1'
_cell_length_a   20.02960800
_cell_length_b   3.90410600
_cell_length_c   14.95364829
_cell_angle_alpha   90.00000000
_cell_angle_beta   126.33350609
_cell_angle_gamma   90.00000000
_symmetry_Int_Tables_number   1
_chemical_formula_structural   Pr2Mn3(SbS3)4
_chemical_formula_sum   'Pr4 Mn6 Sb8 S24'
_cell_volume   942.00006694
_cell_formula_units_Z   2
loop_
 _symmetry_equiv_pos_site_id
 _symmetry_equiv_pos_as_xyz
  1  'x, y, z'
loop_
 _atom_site_type_symbol
 _atom_site_label
 _atom_site_symmetry_multiplicity
 _atom_site_fract_x
 _atom_site_fract_y
 _atom_site_fract_z
 _atom_site_occupancy
  Pr  Pr0  1  0.26585540  0.52404814  0.86224491  1
  Pr  Pr1  1  0.73009145  0.52960787  0.13699353  1
  Pr  Pr2  1  0.76663026  0.96640783  0.87737622  1
  Pr  Pr3  1  0.24500621  0.97444333  0.14730915  1
  Mn  Mn4  1  0.29221081  0.50108735  0.59470582  1
  Mn  Mn5  1  0.69614394  0.44814334  0.37483811  1
  Mn  Mn6  1  0.00191798  0.99413852  0.00592831  1
  Mn  Mn7  1  0.79472178  0.97706723  0.59650360  1
  Mn  Mn8  1  0.19578414  0.92794223  0.40616948  1
  Mn  Mn9  1  0.49697092  0.50903904  0.00605879  1
  Sb  Sb10  1  0.89893281  0.98975016  0.45422904  1
  Sb  Sb11  1  0.10458285  0.02349258  0.55290896  1
  Sb  Sb12  1  0.03222013  0.53896823  0.80958648  1
  Sb  Sb13  1  0.96689271  0.52384581  0.19036106  1
  Sb  Sb14  1  0.39029956  0.49402135  0.45295953  1
  Sb  Sb15  1  0.61885513  0.46949096  0.57462601  1
  Sb  Sb16  1  0.54046632  0.03607752  0.82297802  1
  Sb  Sb17  1  0.45453643  0.00421736  0.18726235  1
  S  S18  1  0.93373595  0.98908986  0.78804660  1
  S  S19  1  0.05567044  0.97515218  0.20664912  1
  S  S20  1  0.41610519  0.97775994  0.98735532  1
  S  S21  1  0.58340132  0.01189554  0.02451477  1
  S  S22  1  0.17325623  0.95556932  0.89398619  1
  S  S23  1  0.82916450  0.01355161  0.11527655  1
  S  S24  1  0.09987966  0.49663739  0.65784421  1
  S  S25  1  0.88821608  0.50521402  0.33332214  1
  S  S26  1  0.74775142  0.01258113  0.31096106  1
  S  S27  1  0.25971874  0.98551489  0.68613737  1
  S  S28  1  0.16107078  0.43197310  0.44917374  1
  S  S29  1  0.81670369  0.48202523  0.52800610  1
  S  S30  1  0.43399714  0.48010205  0.80881863  1
  S  S31  1  0.55562040  0.48903758  0.19311855  1
  S  S32  1  0.91645612  0.51543952  0.99129123  1
  S  S33  1  0.07667473  0.49933799  0.01207443  1
  S  S34  1  0.67297678  0.41687004  0.90433592  1
  S  S35  1  0.33715386  0.49914451  0.10620628  1
  S  S36  1  0.59279467  0.96360169  0.66540245  1
  S  S37  1  0.40526716  0.00720107  0.35686496  1
  S  S38  1  0.23423404  0.46532767  0.28149238  1
  S  S39  1  0.76821868  0.41059671  0.71245323  1
  S  S40  1  0.67255175  0.00451216  0.45654125  1
  S  S41  1  0.33109963  0.02771013  0.54526498  1
