# generated using pymatgen
data_Pr2Mn3(SbS3)4
_symmetry_space_group_name_H-M   'P 1'
_cell_length_a   20.02960800
_cell_length_b   3.90410600
_cell_length_c   14.95364829
_cell_angle_alpha   90.00000000
_cell_angle_beta   126.33350609
_cell_angle_gamma   90.00000000
_symmetry_Int_Tables_number   1
_chemical_formula_structural   Pr2Mn3(SbS3)4
_chemical_formula_sum   'Pr4 Mn6 Sb8 S24'
_cell_volume   942.00006694
_cell_formula_units_Z   2
loop_
 _symmetry_equiv_pos_site_id
 _symmetry_equiv_pos_as_xyz
  1  'x, y, z'
loop_
 _atom_site_type_symbol
 _atom_site_label
 _atom_site_symmetry_multiplicity
 _atom_site_fract_x
 _atom_site_fract_y
 _atom_site_fract_z
 _atom_site_occupancy
  Pr  Pr0  1  0.26586006  0.52429690  0.86240665  1
  Pr  Pr1  1  0.73009522  0.52955576  0.13706300  1
  Pr  Pr2  1  0.76669024  0.96582537  0.87742768  1
  Pr  Pr3  1  0.24506950  0.97418406  0.14744609  1
  Mn  Mn4  1  0.29186188  0.50202091  0.59439663  1
  Mn  Mn5  1  0.69617364  0.44738363  0.37480614  1
  Mn  Mn6  1  0.00186967  0.99530997  0.00626924  1
  Mn  Mn7  1  0.79467063  0.97755274  0.59667028  1
  Mn  Mn8  1  0.19557936  0.92838778  0.40589715  1
  Mn  Mn9  1  0.49692339  0.50823537  0.00608148  1
  Sb  Sb10  1  0.89897728  0.98957875  0.45433952  1
  Sb  Sb11  1  0.10447877  0.02345459  0.55270917  1
  Sb  Sb12  1  0.03241238  0.53924191  0.80955949  1
  Sb  Sb13  1  0.96679127  0.52393677  0.19025620  1
  Sb  Sb14  1  0.39020042  0.49397121  0.45294756  1
  Sb  Sb15  1  0.61864963  0.46990480  0.57453004  1
  Sb  Sb16  1  0.54046636  0.03629518  0.82300668  1
  Sb  Sb17  1  0.45466766  0.00456860  0.18738068  1
  S  S18  1  0.93363452  0.98889205  0.78789612  1
  S  S19  1  0.05548832  0.97498323  0.20649575  1
  S  S20  1  0.41633766  0.97854710  0.98724857  1
  S  S21  1  0.58358661  0.00989024  0.02450569  1
  S  S22  1  0.17304387  0.95572349  0.89369269  1
  S  S23  1  0.82890662  0.01315118  0.11486332  1
  S  S24  1  0.10006310  0.49539523  0.65799551  1
  S  S25  1  0.88814859  0.50686300  0.33337216  1
  S  S26  1  0.74761895  0.01187313  0.31050241  1
  S  S27  1  0.25960761  0.98552754  0.68627788  1
  S  S28  1  0.16106994  0.43134635  0.44910599  1
  S  S29  1  0.81689852  0.48237160  0.52840716  1
  S  S30  1  0.43384924  0.47827613  0.80852895  1
  S  S31  1  0.55592787  0.48855231  0.19336197  1
  S  S32  1  0.91651590  0.51348861  0.99101483  1
  S  S33  1  0.07601700  0.49961796  0.01132325  1
  S  S34  1  0.67284334  0.41584053  0.90405317  1
  S  S35  1  0.33746845  0.49855931  0.10634700  1
  S  S36  1  0.59255924  0.96416848  0.66541994  1
  S  S37  1  0.40535936  0.00842814  0.35696114  1
  S  S38  1  0.23384325  0.46576714  0.28130369  1
  S  S39  1  0.76834927  0.40976399  0.71245959  1
  S  S40  1  0.67269222  0.00487456  0.45668038  1
  S  S41  1  0.33081423  0.02857195  0.54543864  1
