# generated using pymatgen
data_Pr2Mn3(SbS3)4
_symmetry_space_group_name_H-M   'P 1'
_cell_length_a   20.02960800
_cell_length_b   3.90410600
_cell_length_c   14.95364829
_cell_angle_alpha   90.00000000
_cell_angle_beta   126.33350609
_cell_angle_gamma   90.00000000
_symmetry_Int_Tables_number   1
_chemical_formula_structural   Pr2Mn3(SbS3)4
_chemical_formula_sum   'Pr4 Mn6 Sb8 S24'
_cell_volume   942.00006694
_cell_formula_units_Z   2
loop_
 _symmetry_equiv_pos_site_id
 _symmetry_equiv_pos_as_xyz
  1  'x, y, z'
loop_
 _atom_site_type_symbol
 _atom_site_label
 _atom_site_symmetry_multiplicity
 _atom_site_fract_x
 _atom_site_fract_y
 _atom_site_fract_z
 _atom_site_occupancy
  Pr  Pr0  1  0.26589507  0.52485584  0.86261882  1
  Pr  Pr1  1  0.73014340  0.52934128  0.13718517  1
  Pr  Pr2  1  0.76674190  0.96487260  0.87745574  1
  Pr  Pr3  1  0.24510077  0.97418927  0.14764238  1
  Mn  Mn4  1  0.29141510  0.50325777  0.59403227  1
  Mn  Mn5  1  0.69620798  0.44684124  0.37477272  1
  Mn  Mn6  1  0.00178297  0.99589128  0.00652711  1
  Mn  Mn7  1  0.79466022  0.97837468  0.59682262  1
  Mn  Mn8  1  0.19555089  0.92834204  0.40591363  1
  Mn  Mn9  1  0.49689178  0.50775982  0.00604966  1
  Sb  Sb10  1  0.89898876  0.98958630  0.45450659  1
  Sb  Sb11  1  0.10442611  0.02344184  0.55260635  1
  Sb  Sb12  1  0.03263101  0.53957875  0.80944123  1
  Sb  Sb13  1  0.96672411  0.52386645  0.19022613  1
  Sb  Sb14  1  0.39014422  0.49378823  0.45302586  1
  Sb  Sb15  1  0.61843247  0.47021164  0.57446652  1
  Sb  Sb16  1  0.54044533  0.03604483  0.82312456  1
  Sb  Sb17  1  0.45486119  0.00466411  0.18753101  1
  S  S18  1  0.93363347  0.98904247  0.78806468  1
  S  S19  1  0.05526786  0.97481767  0.20626349  1
  S  S20  1  0.41654232  0.97911213  0.98718597  1
  S  S21  1  0.58379820  0.00810235  0.02438622  1
  S  S22  1  0.17280503  0.95591924  0.89340015  1
  S  S23  1  0.82882281  0.01335823  0.11481781  1
  S  S24  1  0.10016727  0.49474341  0.65800692  1
  S  S25  1  0.88808719  0.50871688  0.33343013  1
  S  S26  1  0.74734440  0.01131956  0.31000395  1
  S  S27  1  0.25963138  0.98514275  0.68637945  1
  S  S28  1  0.16103675  0.43108200  0.44910785  1
  S  S29  1  0.81698734  0.48268078  0.52859820  1
  S  S30  1  0.43369010  0.47676825  0.80826842  1
  S  S31  1  0.55636165  0.48784867  0.19362149  1
  S  S32  1  0.91651744  0.51141696  0.99080949  1
  S  S33  1  0.07542722  0.49999379  0.01061387  1
  S  S34  1  0.67271493  0.41478842  0.90381269  1
  S  S35  1  0.33753957  0.49798738  0.10619383  1
  S  S36  1  0.59243452  0.96455707  0.66558966  1
  S  S37  1  0.40544129  0.00856442  0.35699889  1
  S  S38  1  0.23338558  0.46587801  0.28114398  1
  S  S39  1  0.76851600  0.40965387  0.71256443  1
  S  S40  1  0.67274341  0.00552457  0.45671077  1
  S  S41  1  0.33062473  0.03001030  0.54565222  1
