# generated using pymatgen
data_Pr2Mn3(SbS3)4
_symmetry_space_group_name_H-M   'P 1'
_cell_length_a   20.02960800
_cell_length_b   3.90410600
_cell_length_c   14.95364829
_cell_angle_alpha   90.00000000
_cell_angle_beta   126.33350609
_cell_angle_gamma   90.00000000
_symmetry_Int_Tables_number   1
_chemical_formula_structural   Pr2Mn3(SbS3)4
_chemical_formula_sum   'Pr4 Mn6 Sb8 S24'
_cell_volume   942.00006694
_cell_formula_units_Z   2
loop_
 _symmetry_equiv_pos_site_id
 _symmetry_equiv_pos_as_xyz
  1  'x, y, z'
loop_
 _atom_site_type_symbol
 _atom_site_label
 _atom_site_symmetry_multiplicity
 _atom_site_fract_x
 _atom_site_fract_y
 _atom_site_fract_z
 _atom_site_occupancy
  Pr  Pr0  1  0.26592437  0.52568225  0.86284014  1
  Pr  Pr1  1  0.73021774  0.52922318  0.13733718  1
  Pr  Pr2  1  0.76676627  0.96371101  0.87744225  1
  Pr  Pr3  1  0.24518828  0.97406689  0.14786846  1
  Mn  Mn4  1  0.29096295  0.50418287  0.59358878  1
  Mn  Mn5  1  0.69627346  0.44651577  0.37471890  1
  Mn  Mn6  1  0.00161269  0.99685853  0.00660522  1
  Mn  Mn7  1  0.79453607  0.97905688  0.59692873  1
  Mn  Mn8  1  0.19551316  0.92814267  0.40593739  1
  Mn  Mn9  1  0.49685587  0.50717542  0.00585103  1
  Sb  Sb10  1  0.89904201  0.98965423  0.45460248  1
  Sb  Sb11  1  0.10437091  0.02319045  0.55251736  1
  Sb  Sb12  1  0.03279742  0.53965052  0.80931363  1
  Sb  Sb13  1  0.96666091  0.52379769  0.19023815  1
  Sb  Sb14  1  0.39010498  0.49374745  0.45315659  1
  Sb  Sb15  1  0.61812135  0.47060683  0.57420590  1
  Sb  Sb16  1  0.54040041  0.03591440  0.82326985  1
  Sb  Sb17  1  0.45508143  0.00496193  0.18767601  1
  S  S18  1  0.93368635  0.98901655  0.78815326  1
  S  S19  1  0.05513082  0.97506526  0.20609657  1
  S  S20  1  0.41676191  0.98002830  0.98711060  1
  S  S21  1  0.58400572  0.00597793  0.02434606  1
  S  S22  1  0.17247754  0.95640472  0.89309650  1
  S  S23  1  0.82873939  0.01390950  0.11484841  1
  S  S24  1  0.10040066  0.49413855  0.65809961  1
  S  S25  1  0.88819911  0.51078877  0.33360469  1
  S  S26  1  0.74694518  0.01084418  0.30942542  1
  S  S27  1  0.25980599  0.98474458  0.68645990  1
  S  S28  1  0.16098188  0.43018519  0.44900207  1
  S  S29  1  0.81716051  0.48302059  0.52867261  1
  S  S30  1  0.43353454  0.47501619  0.80822844  1
  S  S31  1  0.55668112  0.48679262  0.19381819  1
  S  S32  1  0.91678588  0.50882896  0.99075873  1
  S  S33  1  0.07486400  0.50034583  0.00980604  1
  S  S34  1  0.67262931  0.41306255  0.90372583  1
  S  S35  1  0.33763627  0.49728289  0.10611028  1
  S  S36  1  0.59239705  0.96475683  0.66575516  1
  S  S37  1  0.40563670  0.00877862  0.35722517  1
  S  S38  1  0.23296380  0.46644019  0.28118056  1
  S  S39  1  0.76872111  0.40921521  0.71276024  1
  S  S40  1  0.67260008  0.00558138  0.45666628  1
  S  S41  1  0.33053021  0.03088364  0.54599621  1
