# generated using pymatgen
data_Pr2Mn3(SbS3)4
_symmetry_space_group_name_H-M   'P 1'
_cell_length_a   20.02960800
_cell_length_b   3.90410600
_cell_length_c   14.95364829
_cell_angle_alpha   90.00000000
_cell_angle_beta   126.33350609
_cell_angle_gamma   90.00000000
_symmetry_Int_Tables_number   1
_chemical_formula_structural   Pr2Mn3(SbS3)4
_chemical_formula_sum   'Pr4 Mn6 Sb8 S24'
_cell_volume   942.00006694
_cell_formula_units_Z   2
loop_
 _symmetry_equiv_pos_site_id
 _symmetry_equiv_pos_as_xyz
  1  'x, y, z'
loop_
 _atom_site_type_symbol
 _atom_site_label
 _atom_site_symmetry_multiplicity
 _atom_site_fract_x
 _atom_site_fract_y
 _atom_site_fract_z
 _atom_site_occupancy
  Pr  Pr0  1  0.26597725  0.52632314  0.86306347  1
  Pr  Pr1  1  0.73025537  0.52913902  0.13749400  1
  Pr  Pr2  1  0.76676391  0.96250191  0.87741059  1
  Pr  Pr3  1  0.24529550  0.97359194  0.14814693  1
  Mn  Mn4  1  0.29053001  0.50510668  0.59319358  1
  Mn  Mn5  1  0.69637985  0.44656710  0.37461077  1
  Mn  Mn6  1  0.00153750  0.99821200  0.00664331  1
  Mn  Mn7  1  0.79441892  0.97952809  0.59709661  1
  Mn  Mn8  1  0.19545240  0.92755452  0.40589047  1
  Mn  Mn9  1  0.49682441  0.50704951  0.00562986  1
  Sb  Sb10  1  0.89909092  0.98968289  0.45469806  1
  Sb  Sb11  1  0.10430540  0.02296700  0.55239713  1
  Sb  Sb12  1  0.03289637  0.53975311  0.80913217  1
  Sb  Sb13  1  0.96658667  0.52322030  0.19022937  1
  Sb  Sb14  1  0.39009648  0.49358683  0.45325797  1
  Sb  Sb15  1  0.61782141  0.47120962  0.57403582  1
  Sb  Sb16  1  0.54041261  0.03570884  0.82348044  1
  Sb  Sb17  1  0.45533962  0.00555750  0.18792104  1
  S  S18  1  0.93373389  0.98874504  0.78821402  1
  S  S19  1  0.05505514  0.97531477  0.20598354  1
  S  S20  1  0.41694149  0.98057300  0.98688943  1
  S  S21  1  0.58415992  0.00395604  0.02434831  1
  S  S22  1  0.17222242  0.95737518  0.89290336  1
  S  S23  1  0.82870345  0.01396727  0.11506061  1
  S  S24  1  0.10054685  0.49378085  0.65834895  1
  S  S25  1  0.88836774  0.51298081  0.33373042  1
  S  S26  1  0.74666811  0.01082942  0.30894831  1
  S  S27  1  0.25991648  0.98437681  0.68654499  1
  S  S28  1  0.16102665  0.42908379  0.44888246  1
  S  S29  1  0.81726741  0.48377755  0.52887100  1
  S  S30  1  0.43338976  0.47347096  0.80815342  1
  S  S31  1  0.55691696  0.48544668  0.19410715  1
  S  S32  1  0.91704340  0.50651211  0.99091801  1
  S  S33  1  0.07438557  0.50055144  0.00913972  1
  S  S34  1  0.67248476  0.41177456  0.90350513  1
  S  S35  1  0.33777025  0.49618900  0.10620914  1
  S  S36  1  0.59238269  0.96505899  0.66586305  1
  S  S37  1  0.40584383  0.00923324  0.35736338  1
  S  S38  1  0.23245669  0.46701514  0.28109115  1
  S  S39  1  0.76879010  0.40837264  0.71249264  1
  S  S40  1  0.67258304  0.00602690  0.45667371  1
  S  S41  1  0.33049950  0.03116662  0.54624308  1
