# generated using pymatgen
data_Pr2Mn3(SbS3)4
_symmetry_space_group_name_H-M   'P 1'
_cell_length_a   20.02960800
_cell_length_b   3.90410600
_cell_length_c   14.95364829
_cell_angle_alpha   90.00000000
_cell_angle_beta   126.33350609
_cell_angle_gamma   90.00000000
_symmetry_Int_Tables_number   1
_chemical_formula_structural   Pr2Mn3(SbS3)4
_chemical_formula_sum   'Pr4 Mn6 Sb8 S24'
_cell_volume   942.00006694
_cell_formula_units_Z   2
loop_
 _symmetry_equiv_pos_site_id
 _symmetry_equiv_pos_as_xyz
  1  'x, y, z'
loop_
 _atom_site_type_symbol
 _atom_site_label
 _atom_site_symmetry_multiplicity
 _atom_site_fract_x
 _atom_site_fract_y
 _atom_site_fract_z
 _atom_site_occupancy
  Pr  Pr0  1  0.26603441  0.52681980  0.86328288  1
  Pr  Pr1  1  0.73040411  0.52885422  0.13772286  1
  Pr  Pr2  1  0.76680633  0.96141301  0.87747028  1
  Pr  Pr3  1  0.24530823  0.97320908  0.14830789  1
  Mn  Mn4  1  0.29018339  0.50604822  0.59289863  1
  Mn  Mn5  1  0.69644418  0.44640213  0.37442045  1
  Mn  Mn6  1  0.00148529  0.99954278  0.00663835  1
  Mn  Mn7  1  0.79440158  0.97979993  0.59725469  1
  Mn  Mn8  1  0.19541049  0.92739515  0.40578042  1
  Mn  Mn9  1  0.49677548  0.50700965  0.00535344  1
  Sb  Sb10  1  0.89910362  0.98995915  0.45479935  1
  Sb  Sb11  1  0.10423805  0.02259518  0.55227625  1
  Sb  Sb12  1  0.03301027  0.53993706  0.80900818  1
  Sb  Sb13  1  0.96645020  0.52268071  0.19021313  1
  Sb  Sb14  1  0.38999280  0.49375722  0.45312548  1
  Sb  Sb15  1  0.61757015  0.47176661  0.57382914  1
  Sb  Sb16  1  0.54048205  0.03561931  0.82365994  1
  Sb  Sb17  1  0.45559499  0.00641283  0.18812146  1
  S  S18  1  0.93371271  0.98857354  0.78818340  1
  S  S19  1  0.05511148  0.97556337  0.20581297  1
  S  S20  1  0.41722883  0.98109638  0.98679328  1
  S  S21  1  0.58434670  0.00220421  0.02440312  1
  S  S22  1  0.17188919  0.95884579  0.89255723  1
  S  S23  1  0.82863422  0.01376887  0.11523569  1
  S  S24  1  0.10066073  0.49325226  0.65878529  1
  S  S25  1  0.88858060  0.51489187  0.33382976  1
  S  S26  1  0.74647849  0.01064052  0.30846731  1
  S  S27  1  0.26003385  0.98388017  0.68667934  1
  S  S28  1  0.16113456  0.42802010  0.44866394  1
  S  S29  1  0.81740221  0.48391742  0.52910390  1
  S  S30  1  0.43327849  0.47241270  0.80801299  1
  S  S31  1  0.55701145  0.48468120  0.19414191  1
  S  S32  1  0.91714595  0.50448995  0.99085637  1
  S  S33  1  0.07387083  0.50029385  0.00829665  1
  S  S34  1  0.67230000  0.41061471  0.90320715  1
  S  S35  1  0.33782975  0.49543509  0.10639792  1
  S  S36  1  0.59233769  0.96506361  0.66592092  1
  S  S37  1  0.40607144  0.00961864  0.35762080  1
  S  S38  1  0.23200662  0.46720683  0.28111499  1
  S  S39  1  0.76905077  0.40818640  0.71230935  1
  S  S40  1  0.67251581  0.00649581  0.45665662  1
  S  S41  1  0.33052325  0.03107558  0.54645634  1
