# generated using pymatgen
data_Pr2Mn3(SbS3)4
_symmetry_space_group_name_H-M   'P 1'
_cell_length_a   20.02960800
_cell_length_b   3.90410600
_cell_length_c   14.95364829
_cell_angle_alpha   90.00000000
_cell_angle_beta   126.33350609
_cell_angle_gamma   90.00000000
_symmetry_Int_Tables_number   1
_chemical_formula_structural   Pr2Mn3(SbS3)4
_chemical_formula_sum   'Pr4 Mn6 Sb8 S24'
_cell_volume   942.00006694
_cell_formula_units_Z   2
loop_
 _symmetry_equiv_pos_site_id
 _symmetry_equiv_pos_as_xyz
  1  'x, y, z'
loop_
 _atom_site_type_symbol
 _atom_site_label
 _atom_site_symmetry_multiplicity
 _atom_site_fract_x
 _atom_site_fract_y
 _atom_site_fract_z
 _atom_site_occupancy
  Pr  Pr0  1  0.26610073  0.52743711  0.86357138  1
  Pr  Pr1  1  0.73051099  0.52830333  0.13783958  1
  Pr  Pr2  1  0.76683758  0.96066864  0.87761629  1
  Pr  Pr3  1  0.24528977  0.97322664  0.14846990  1
  Mn  Mn4  1  0.28972888  0.50660075  0.59251505  1
  Mn  Mn5  1  0.69645593  0.44615239  0.37420914  1
  Mn  Mn6  1  0.00154580  0.00045929  0.00657380  1
  Mn  Mn7  1  0.79435869  0.98043574  0.59746715  1
  Mn  Mn8  1  0.19538874  0.92749135  0.40569527  1
  Mn  Mn9  1  0.49679023  0.50703310  0.00524241  1
  Sb  Sb10  1  0.89915017  0.99012595  0.45488584  1
  Sb  Sb11  1  0.10410051  0.02254537  0.55204108  1
  Sb  Sb12  1  0.03309933  0.53957241  0.80883383  1
  Sb  Sb13  1  0.96633332  0.52224253  0.19014621  1
  Sb  Sb14  1  0.38985704  0.49385023  0.45308123  1
  Sb  Sb15  1  0.61730366  0.47247523  0.57371551  1
  Sb  Sb16  1  0.54050012  0.03570622  0.82380151  1
  Sb  Sb17  1  0.45579893  0.00706712  0.18821807  1
  S  S18  1  0.93359427  0.98854700  0.78827525  1
  S  S19  1  0.05519880  0.97558967  0.20582355  1
  S  S20  1  0.41754565  0.98121183  0.98676230  1
  S  S21  1  0.58462760  0.00055882  0.02459504  1
  S  S22  1  0.17163147  0.96017278  0.89258479  1
  S  S23  1  0.82864183  0.01358392  0.11550812  1
  S  S24  1  0.10080822  0.49299348  0.65915445  1
  S  S25  1  0.88889192  0.51681697  0.33404241  1
  S  S26  1  0.74636572  0.01051376  0.30816280  1
  S  S27  1  0.26030814  0.98307594  0.68682950  1
  S  S28  1  0.16123114  0.42676926  0.44843215  1
  S  S29  1  0.81759037  0.48446532  0.52936947  1
  S  S30  1  0.43318050  0.47116733  0.80793221  1
  S  S31  1  0.55718879  0.48464681  0.19415969  1
  S  S32  1  0.91728790  0.50258557  0.99076271  1
  S  S33  1  0.07321658  0.50018255  0.00747841  1
  S  S34  1  0.67232871  0.40959434  0.90301264  1
  S  S35  1  0.33781356  0.49512199  0.10646216  1
  S  S36  1  0.59226634  0.96457653  0.66601777  1
  S  S37  1  0.40635056  0.00976776  0.35799096  1
  S  S38  1  0.23176024  0.46748974  0.28123432  1
  S  S39  1  0.76925874  0.40820729  0.71217473  1
  S  S40  1  0.67217890  0.00735496  0.45634721  1
  S  S41  1  0.33043732  0.03093646  0.54667904  1
