# generated using pymatgen
data_Pr2Mn3(SbS3)4
_symmetry_space_group_name_H-M   'P 1'
_cell_length_a   20.02960800
_cell_length_b   3.90410600
_cell_length_c   14.95364829
_cell_angle_alpha   90.00000000
_cell_angle_beta   126.33350609
_cell_angle_gamma   90.00000000
_symmetry_Int_Tables_number   1
_chemical_formula_structural   Pr2Mn3(SbS3)4
_chemical_formula_sum   'Pr4 Mn6 Sb8 S24'
_cell_volume   942.00006694
_cell_formula_units_Z   2
loop_
 _symmetry_equiv_pos_site_id
 _symmetry_equiv_pos_as_xyz
  1  'x, y, z'
loop_
 _atom_site_type_symbol
 _atom_site_label
 _atom_site_symmetry_multiplicity
 _atom_site_fract_x
 _atom_site_fract_y
 _atom_site_fract_z
 _atom_site_occupancy
  Pr  Pr0  1  0.26615874  0.52765480  0.86392085  1
  Pr  Pr1  1  0.73061187  0.52805589  0.13796121  1
  Pr  Pr2  1  0.76689028  0.96007238  0.87783232  1
  Pr  Pr3  1  0.24529333  0.97326280  0.14864538  1
  Mn  Mn4  1  0.28923147  0.50782078  0.59227184  1
  Mn  Mn5  1  0.69649378  0.44569153  0.37407099  1
  Mn  Mn6  1  0.00168574  0.00122621  0.00666141  1
  Mn  Mn7  1  0.79426633  0.98099186  0.59750949  1
  Mn  Mn8  1  0.19542083  0.92744279  0.40568551  1
  Mn  Mn9  1  0.49687219  0.50730468  0.00515691  1
  Sb  Sb10  1  0.89921133  0.99051485  0.45495830  1
  Sb  Sb11  1  0.10402972  0.02269994  0.55182232  1
  Sb  Sb12  1  0.03323856  0.53887416  0.80864280  1
  Sb  Sb13  1  0.96616935  0.52148559  0.19012023  1
  Sb  Sb14  1  0.38971900  0.49399053  0.45298109  1
  Sb  Sb15  1  0.61704231  0.47281481  0.57357227  1
  Sb  Sb16  1  0.54058001  0.03616575  0.82398395  1
  Sb  Sb17  1  0.45606795  0.00790881  0.18837473  1
  S  S18  1  0.93343891  0.98822487  0.78827452  1
  S  S19  1  0.05525866  0.97550725  0.20583427  1
  S  S20  1  0.41785843  0.98099476  0.98687358  1
  S  S21  1  0.58500517  0.99892402  0.02477388  1
  S  S22  1  0.17136380  0.96176918  0.89254518  1
  S  S23  1  0.82860089  0.01383637  0.11568854  1
  S  S24  1  0.10108824  0.49308633  0.65968544  1
  S  S25  1  0.88921632  0.51914172  0.33420587  1
  S  S26  1  0.74622594  0.00985991  0.30802155  1
  S  S27  1  0.26067293  0.98264990  0.68707569  1
  S  S28  1  0.16138547  0.42652158  0.44831371  1
  S  S29  1  0.81769154  0.48542408  0.52947815  1
  S  S30  1  0.43314020  0.46892930  0.80791871  1
  S  S31  1  0.55742843  0.48473159  0.19439512  1
  S  S32  1  0.91738693  0.50087529  0.99079927  1
  S  S33  1  0.07250882  0.49965426  0.00675907  1
  S  S34  1  0.67237680  0.40843431  0.90287607  1
  S  S35  1  0.33774064  0.49484078  0.10658176  1
  S  S36  1  0.59209655  0.96349812  0.66602827  1
  S  S37  1  0.40649575  0.01021041  0.35821134  1
  S  S38  1  0.23159809  0.46815013  0.28141186  1
  S  S39  1  0.76957462  0.40852902  0.71221845  1
  S  S40  1  0.67183399  0.00815161  0.45602775  1
  S  S41  1  0.33036004  0.03081068  0.54675623  1
