# generated using pymatgen
data_Pr2Mn3(SbS3)4
_symmetry_space_group_name_H-M   'P 1'
_cell_length_a   20.02960800
_cell_length_b   3.90410600
_cell_length_c   14.95364829
_cell_angle_alpha   90.00000000
_cell_angle_beta   126.33350609
_cell_angle_gamma   90.00000000
_symmetry_Int_Tables_number   1
_chemical_formula_structural   Pr2Mn3(SbS3)4
_chemical_formula_sum   'Pr4 Mn6 Sb8 S24'
_cell_volume   942.00006694
_cell_formula_units_Z   2
loop_
 _symmetry_equiv_pos_site_id
 _symmetry_equiv_pos_as_xyz
  1  'x, y, z'
loop_
 _atom_site_type_symbol
 _atom_site_label
 _atom_site_symmetry_multiplicity
 _atom_site_fract_x
 _atom_site_fract_y
 _atom_site_fract_z
 _atom_site_occupancy
  Pr  Pr0  1  0.26624240  0.52775531  0.86425865  1
  Pr  Pr1  1  0.73061683  0.52786447  0.13802456  1
  Pr  Pr2  1  0.76689417  0.95953845  0.87795469  1
  Pr  Pr3  1  0.24521175  0.97306772  0.14873901  1
  Mn  Mn4  1  0.28883001  0.50884292  0.59201983  1
  Mn  Mn5  1  0.69645579  0.44548955  0.37399628  1
  Mn  Mn6  1  0.00185723  0.00240641  0.00675322  1
  Mn  Mn7  1  0.79417753  0.98162834  0.59757093  1
  Mn  Mn8  1  0.19541010  0.92756267  0.40558276  1
  Mn  Mn9  1  0.49693956  0.50725712  0.00509287  1
  Sb  Sb10  1  0.89931141  0.99105780  0.45505033  1
  Sb  Sb11  1  0.10398338  0.02269880  0.55158418  1
  Sb  Sb12  1  0.03341031  0.53820660  0.80855922  1
  Sb  Sb13  1  0.96597353  0.52086023  0.19000894  1
  Sb  Sb14  1  0.38963081  0.49434339  0.45294201  1
  Sb  Sb15  1  0.61677249  0.47296385  0.57337920  1
  Sb  Sb16  1  0.54067061  0.03691879  0.82414665  1
  Sb  Sb17  1  0.45631938  0.00848097  0.18851615  1
  S  S18  1  0.93326036  0.98830740  0.78832135  1
  S  S19  1  0.05528853  0.97478825  0.20569308  1
  S  S20  1  0.41823065  0.98035907  0.98708689  1
  S  S21  1  0.58531066  0.99798780  0.02499308  1
  S  S22  1  0.17102849  0.96280396  0.89236138  1
  S  S23  1  0.82857328  0.01440622  0.11585331  1
  S  S24  1  0.10153722  0.49347631  0.66021001  1
  S  S25  1  0.88939969  0.52146621  0.33413152  1
  S  S26  1  0.74613008  0.00912506  0.30786300  1
  S  S27  1  0.26099981  0.98215895  0.68726316  1
  S  S28  1  0.16143000  0.42595131  0.44814757  1
  S  S29  1  0.81771038  0.48670067  0.52951004  1
  S  S30  1  0.43303018  0.46649630  0.80784042  1
  S  S31  1  0.55767614  0.48491591  0.19477057  1
  S  S32  1  0.91759343  0.49930391  0.99103194  1
  S  S33  1  0.07187820  0.49920863  0.00608357  1
  S  S34  1  0.67234736  0.40747110  0.90272131  1
  S  S35  1  0.33763288  0.49467568  0.10661516  1
  S  S36  1  0.59194916  0.96277935  0.66627298  1
  S  S37  1  0.40669830  0.01075695  0.35868900  1
  S  S38  1  0.23142944  0.46848157  0.28156486  1
  S  S39  1  0.76987841  0.40838110  0.71242357  1
  S  S40  1  0.67154804  0.00904854  0.45588186  1
  S  S41  1  0.33035291  0.03056703  0.54711333  1
