# generated using pymatgen
data_Pr2Mn3(SbS3)4
_symmetry_space_group_name_H-M   'P 1'
_cell_length_a   20.02960800
_cell_length_b   3.90410600
_cell_length_c   14.95364829
_cell_angle_alpha   90.00000000
_cell_angle_beta   126.33350609
_cell_angle_gamma   90.00000000
_symmetry_Int_Tables_number   1
_chemical_formula_structural   Pr2Mn3(SbS3)4
_chemical_formula_sum   'Pr4 Mn6 Sb8 S24'
_cell_volume   942.00006694
_cell_formula_units_Z   2
loop_
 _symmetry_equiv_pos_site_id
 _symmetry_equiv_pos_as_xyz
  1  'x, y, z'
loop_
 _atom_site_type_symbol
 _atom_site_label
 _atom_site_symmetry_multiplicity
 _atom_site_fract_x
 _atom_site_fract_y
 _atom_site_fract_z
 _atom_site_occupancy
  Pr  Pr0  1  0.26635291  0.52807670  0.86453364  1
  Pr  Pr1  1  0.73052223  0.52737563  0.13801542  1
  Pr  Pr2  1  0.76693312  0.95887845  0.87814865  1
  Pr  Pr3  1  0.24505437  0.97318983  0.14873693  1
  Mn  Mn4  1  0.28851063  0.51016056  0.59197385  1
  Mn  Mn5  1  0.69633191  0.44527305  0.37382182  1
  Mn  Mn6  1  0.00199668  0.00347372  0.00677366  1
  Mn  Mn7  1  0.79407006  0.98212809  0.59761845  1
  Mn  Mn8  1  0.19541431  0.92773766  0.40548969  1
  Mn  Mn9  1  0.49691517  0.50688694  0.00498300  1
  Sb  Sb10  1  0.89939326  0.99152346  0.45507510  1
  Sb  Sb11  1  0.10393443  0.02269394  0.55138358  1
  Sb  Sb12  1  0.03359562  0.53747841  0.80847122  1
  Sb  Sb13  1  0.96583042  0.52029025  0.18994228  1
  Sb  Sb14  1  0.38948332  0.49496836  0.45286578  1
  Sb  Sb15  1  0.61653096  0.47310726  0.57320592  1
  Sb  Sb16  1  0.54073560  0.03756275  0.82431233  1
  Sb  Sb17  1  0.45647031  0.00888193  0.18864463  1
  S  S18  1  0.93308190  0.98822118  0.78813815  1
  S  S19  1  0.05520496  0.97353066  0.20555342  1
  S  S20  1  0.41834457  0.98015515  0.98731959  1
  S  S21  1  0.58572254  0.99745897  0.02529859  1
  S  S22  1  0.17068111  0.96372457  0.89209505  1
  S  S23  1  0.82858622  0.01428493  0.11593046  1
  S  S24  1  0.10180424  0.49388551  0.66057224  1
  S  S25  1  0.88957957  0.52362846  0.33421490  1
  S  S26  1  0.74606882  0.00902889  0.30778514  1
  S  S27  1  0.26119584  0.98150797  0.68742604  1
  S  S28  1  0.16149194  0.42549564  0.44796151  1
  S  S29  1  0.81778518  0.48794864  0.52945882  1
  S  S30  1  0.43311602  0.46397727  0.80805234  1
  S  S31  1  0.55790759  0.48527902  0.19506407  1
  S  S32  1  0.91774616  0.49715781  0.99125842  1
  S  S33  1  0.07133516  0.49948007  0.00565135  1
  S  S34  1  0.67235724  0.40564397  0.90260838  1
  S  S35  1  0.33743650  0.49463561  0.10669170  1
  S  S36  1  0.59185800  0.96226786  0.66640819  1
  S  S37  1  0.40686549  0.01121348  0.35922434  1
  S  S38  1  0.23129768  0.46929991  0.28171900  1
  S  S39  1  0.77017043  0.40871032  0.71272190  1
  S  S40  1  0.67113188  0.00963942  0.45559514  1
  S  S41  1  0.33066055  0.02992026  0.54759154  1
