# generated using pymatgen
data_Pr2Mn3(SbS3)4
_symmetry_space_group_name_H-M   'P 1'
_cell_length_a   20.02960800
_cell_length_b   3.90410600
_cell_length_c   14.95364829
_cell_angle_alpha   90.00000000
_cell_angle_beta   126.33350609
_cell_angle_gamma   90.00000000
_symmetry_Int_Tables_number   1
_chemical_formula_structural   Pr2Mn3(SbS3)4
_chemical_formula_sum   'Pr4 Mn6 Sb8 S24'
_cell_volume   942.00006694
_cell_formula_units_Z   2
loop_
 _symmetry_equiv_pos_site_id
 _symmetry_equiv_pos_as_xyz
  1  'x, y, z'
loop_
 _atom_site_type_symbol
 _atom_site_label
 _atom_site_symmetry_multiplicity
 _atom_site_fract_x
 _atom_site_fract_y
 _atom_site_fract_z
 _atom_site_occupancy
  Pr  Pr0  1  0.26662106  0.49760681  0.86427556  1
  Pr  Pr1  1  0.73515230  0.51070644  0.13528869  1
  Pr  Pr2  1  0.76335726  0.01442184  0.86105899  1
  Pr  Pr3  1  0.23472368  0.99620780  0.13428178  1
  Mn  Mn4  1  0.28934933  0.47847885  0.58997990  1
  Mn  Mn5  1  0.68569456  0.47054195  0.36592115  1
  Mn  Mn6  1  0.00848856  0.99469113  0.01911844  1
  Mn  Mn7  1  0.80395175  0.01474079  0.61934893  1
  Mn  Mn8  1  0.19824323  0.97421463  0.37319079  1
  Mn  Mn9  1  0.49096265  0.47300033  0.99033264  1
  Sb  Sb10  1  0.89084911  0.98396484  0.45181580  1
  Sb  Sb11  1  0.11161219  0.98139774  0.54463644  1
  Sb  Sb12  1  0.03706069  0.51930340  0.82059744  1
  Sb  Sb13  1  0.96348054  0.50117764  0.18556166  1
  Sb  Sb14  1  0.39535820  0.49846364  0.45114637  1
  Sb  Sb15  1  0.60652017  0.46609116  0.54975644  1
  Sb  Sb16  1  0.53389295  0.99231150  0.80821042  1
  Sb  Sb17  1  0.46546962  0.02258327  0.19111172  1
  S  S18  1  0.93882384  0.01036078  0.81065629  1
  S  S19  1  0.06409785  0.97520895  0.20003579  1
  S  S20  1  0.41992880  0.95788480  0.98512521  1
  S  S21  1  0.58238028  0.03338376  0.01499545  1
  S  S22  1  0.17249088  0.05693687  0.90333128  1
  S  S23  1  0.82979950  0.05070265  0.10123781  1
  S  S24  1  0.09408040  0.48407337  0.64790118  1
  S  S25  1  0.91478329  0.49036879  0.35711916  1
  S  S26  1  0.73562573  0.95702378  0.29903118  1
  S  S27  1  0.26229648  0.01020288  0.70827905  1
  S  S28  1  0.16048167  0.51357716  0.42614629  1
  S  S29  1  0.82336606  0.48792833  0.55135541  1
  S  S30  1  0.42937669  0.48938864  0.79703997  1
  S  S31  1  0.55191986  0.52665138  0.18057370  1
  S  S32  1  0.91358985  0.48752879  0.98849903  1
  S  S33  1  0.09195508  0.50126861  0.03343240  1
  S  S34  1  0.66262997  0.52737689  0.88652174  1
  S  S35  1  0.33021116  0.50905985  0.09840797  1
  S  S36  1  0.60066692  0.99854147  0.65897957  1
  S  S37  1  0.40114828  0.98334210  0.34189527  1
  S  S38  1  0.23986256  0.47294412  0.31242626  1
  S  S39  1  0.76184081  0.51290740  0.69163049  1
  S  S40  1  0.66614348  0.02459006  0.44873513  1
  S  S41  1  0.33054966  0.97631876  0.55751580  1
