# generated using pymatgen
data_Pr2Mn3(SbS3)4
_symmetry_space_group_name_H-M   'P 1'
_cell_length_a   20.02960800
_cell_length_b   3.90410600
_cell_length_c   14.95364829
_cell_angle_alpha   90.00000000
_cell_angle_beta   126.33350609
_cell_angle_gamma   90.00000000
_symmetry_Int_Tables_number   1
_chemical_formula_structural   Pr2Mn3(SbS3)4
_chemical_formula_sum   'Pr4 Mn6 Sb8 S24'
_cell_volume   942.00006694
_cell_formula_units_Z   2
loop_
 _symmetry_equiv_pos_site_id
 _symmetry_equiv_pos_as_xyz
  1  'x, y, z'
loop_
 _atom_site_type_symbol
 _atom_site_label
 _atom_site_symmetry_multiplicity
 _atom_site_fract_x
 _atom_site_fract_y
 _atom_site_fract_z
 _atom_site_occupancy
  Pr  Pr0  1  0.26653260  0.52828376  0.86489105  1
  Pr  Pr1  1  0.73042924  0.52714431  0.13800867  1
  Pr  Pr2  1  0.76694011  0.95838602  0.87842578  1
  Pr  Pr3  1  0.24481841  0.97300595  0.14863031  1
  Mn  Mn4  1  0.28821912  0.51157225  0.59189605  1
  Mn  Mn5  1  0.69641192  0.44584085  0.37376840  1
  Mn  Mn6  1  0.00210272  0.00429666  0.00685299  1
  Mn  Mn7  1  0.79397347  0.98258444  0.59756169  1
  Mn  Mn8  1  0.19545455  0.92787208  0.40546461  1
  Mn  Mn9  1  0.49682352  0.50701919  0.00490837  1
  Sb  Sb10  1  0.89950612  0.99148341  0.45513327  1
  Sb  Sb11  1  0.10388510  0.02263480  0.55124467  1
  Sb  Sb12  1  0.03377987  0.53690280  0.80850676  1
  Sb  Sb13  1  0.96566598  0.51942151  0.18986182  1
  Sb  Sb14  1  0.38936340  0.49536986  0.45279091  1
  Sb  Sb15  1  0.61638137  0.47299621  0.57301650  1
  Sb  Sb16  1  0.54085800  0.03770046  0.82450746  1
  Sb  Sb17  1  0.45658844  0.00953875  0.18872714  1
  S  S18  1  0.93281975  0.98752156  0.78787320  1
  S  S19  1  0.05505132  0.97269799  0.20535314  1
  S  S20  1  0.41834450  0.97971500  0.98739038  1
  S  S21  1  0.58611726  0.99607583  0.02573494  1
  S  S22  1  0.17044209  0.96433846  0.89189982  1
  S  S23  1  0.82863999  0.01418063  0.11593538  1
  S  S24  1  0.10189641  0.49376647  0.66084669  1
  S  S25  1  0.88987120  0.52524159  0.33425099  1
  S  S26  1  0.74605500  0.00860011  0.30759062  1
  S  S27  1  0.26131041  0.98116992  0.68740254  1
  S  S28  1  0.16146686  0.42553327  0.44766671  1
  S  S29  1  0.81794304  0.48946928  0.52945107  1
  S  S30  1  0.43322026  0.46155474  0.80841241  1
  S  S31  1  0.55789524  0.48563704  0.19523197  1
  S  S32  1  0.91797625  0.49509379  0.99139171  1
  S  S33  1  0.07079037  0.49983641  0.00543723  1
  S  S34  1  0.67234155  0.40369526  0.90247296  1
  S  S35  1  0.33722890  0.49432653  0.10667121  1
  S  S36  1  0.59181037  0.96139470  0.66642819  1
  S  S37  1  0.40710310  0.01113837  0.35969071  1
  S  S38  1  0.23136348  0.47001144  0.28203263  1
  S  S39  1  0.77035735  0.40884074  0.71291685  1
  S  S40  1  0.67079373  0.00965021  0.45526644  1
  S  S41  1  0.33088534  0.02982888  0.54791615  1
