# generated using pymatgen
data_Pr2Mn3(SbS3)4
_symmetry_space_group_name_H-M   'P 1'
_cell_length_a   20.02960800
_cell_length_b   3.90410600
_cell_length_c   14.95364829
_cell_angle_alpha   90.00000000
_cell_angle_beta   126.33350609
_cell_angle_gamma   90.00000000
_symmetry_Int_Tables_number   1
_chemical_formula_structural   Pr2Mn3(SbS3)4
_chemical_formula_sum   'Pr4 Mn6 Sb8 S24'
_cell_volume   942.00006694
_cell_formula_units_Z   2
loop_
 _symmetry_equiv_pos_site_id
 _symmetry_equiv_pos_as_xyz
  1  'x, y, z'
loop_
 _atom_site_type_symbol
 _atom_site_label
 _atom_site_symmetry_multiplicity
 _atom_site_fract_x
 _atom_site_fract_y
 _atom_site_fract_z
 _atom_site_occupancy
  Pr  Pr0  1  0.26667174  0.52832425  0.86518359  1
  Pr  Pr1  1  0.73032877  0.52681268  0.13811926  1
  Pr  Pr2  1  0.76695021  0.95773155  0.87871825  1
  Pr  Pr3  1  0.24459927  0.97301444  0.14853671  1
  Mn  Mn4  1  0.28792176  0.51323407  0.59180065  1
  Mn  Mn5  1  0.69652413  0.44610887  0.37359058  1
  Mn  Mn6  1  0.00226437  0.00501352  0.00697636  1
  Mn  Mn7  1  0.79391785  0.98267546  0.59752695  1
  Mn  Mn8  1  0.19531469  0.92740876  0.40529866  1
  Mn  Mn9  1  0.49670112  0.50704598  0.00487715  1
  Sb  Sb10  1  0.89957656  0.99170196  0.45521968  1
  Sb  Sb11  1  0.10385280  0.02227895  0.55114042  1
  Sb  Sb12  1  0.03396115  0.53639349  0.80856462  1
  Sb  Sb13  1  0.96546551  0.51816306  0.18978694  1
  Sb  Sb14  1  0.38926233  0.49581218  0.45274821  1
  Sb  Sb15  1  0.61634078  0.47276280  0.57298785  1
  Sb  Sb16  1  0.54095151  0.03796085  0.82471094  1
  Sb  Sb17  1  0.45675312  0.01018890  0.18879321  1
  S  S18  1  0.93256454  0.98678519  0.78751778  1
  S  S19  1  0.05503912  0.97144867  0.20518953  1
  S  S20  1  0.41829966  0.97936994  0.98747467  1
  S  S21  1  0.58648945  0.99462025  0.02615921  1
  S  S22  1  0.17026262  0.96431456  0.89170768  1
  S  S23  1  0.82876549  0.01419276  0.11613235  1
  S  S24  1  0.10202703  0.49339881  0.66112164  1
  S  S25  1  0.89023843  0.52643969  0.33423874  1
  S  S26  1  0.74616916  0.00781643  0.30756392  1
  S  S27  1  0.26158600  0.98112782  0.68755883  1
  S  S28  1  0.16166204  0.42528555  0.44758595  1
  S  S29  1  0.81812522  0.49092184  0.52950902  1
  S  S30  1  0.43334577  0.45872788  0.80877212  1
  S  S31  1  0.55787309  0.48574243  0.19547999  1
  S  S32  1  0.91807096  0.49335673  0.99128766  1
  S  S33  1  0.07047638  0.50117874  0.00525800  1
  S  S34  1  0.67230938  0.40226192  0.90226750  1
  S  S35  1  0.33704537  0.49354451  0.10669834  1
  S  S36  1  0.59169700  0.96096242  0.66636116  1
  S  S37  1  0.40725667  0.01110106  0.36017833  1
  S  S38  1  0.23155877  0.47053521  0.28236804  1
  S  S39  1  0.77050632  0.40883406  0.71312045  1
  S  S40  1  0.67058193  0.00964312  0.45502188  1
  S  S41  1  0.33103826  0.02926391  0.54817792  1
