# generated using pymatgen
data_Pr2Mn3(SbS3)4
_symmetry_space_group_name_H-M   'P 1'
_cell_length_a   20.02960800
_cell_length_b   3.90410600
_cell_length_c   14.95364829
_cell_angle_alpha   90.00000000
_cell_angle_beta   126.33350609
_cell_angle_gamma   90.00000000
_symmetry_Int_Tables_number   1
_chemical_formula_structural   Pr2Mn3(SbS3)4
_chemical_formula_sum   'Pr4 Mn6 Sb8 S24'
_cell_volume   942.00006694
_cell_formula_units_Z   2
loop_
 _symmetry_equiv_pos_site_id
 _symmetry_equiv_pos_as_xyz
  1  'x, y, z'
loop_
 _atom_site_type_symbol
 _atom_site_label
 _atom_site_symmetry_multiplicity
 _atom_site_fract_x
 _atom_site_fract_y
 _atom_site_fract_z
 _atom_site_occupancy
  Pr  Pr0  1  0.26681308  0.52843312  0.86549430  1
  Pr  Pr1  1  0.73022323  0.52639238  0.13818508  1
  Pr  Pr2  1  0.76696215  0.95716384  0.87901272  1
  Pr  Pr3  1  0.24438897  0.97308698  0.14840811  1
  Mn  Mn4  1  0.28759248  0.51465242  0.59172731  1
  Mn  Mn5  1  0.69658445  0.44643975  0.37347604  1
  Mn  Mn6  1  0.00233401  0.00600843  0.00698704  1
  Mn  Mn7  1  0.79380123  0.98267780  0.59747544  1
  Mn  Mn8  1  0.19528258  0.92660310  0.40520375  1
  Mn  Mn9  1  0.49642126  0.50688624  0.00472526  1
  Sb  Sb10  1  0.89960612  0.99207773  0.45525983  1
  Sb  Sb11  1  0.10380084  0.02171329  0.55098720  1
  Sb  Sb12  1  0.03414889  0.53592854  0.80863679  1
  Sb  Sb13  1  0.96527954  0.51694181  0.18975106  1
  Sb  Sb14  1  0.38913847  0.49617911  0.45266957  1
  Sb  Sb15  1  0.61629408  0.47254650  0.57293571  1
  Sb  Sb16  1  0.54101398  0.03816019  0.82495960  1
  Sb  Sb17  1  0.45689225  0.01081220  0.18883418  1
  S  S18  1  0.93229975  0.98580447  0.78717856  1
  S  S19  1  0.05505413  0.96980116  0.20488621  1
  S  S20  1  0.41813307  0.97916164  0.98739837  1
  S  S21  1  0.58670761  0.99320118  0.02655068  1
  S  S22  1  0.17014510  0.96370878  0.89131942  1
  S  S23  1  0.82893645  0.01408071  0.11636600  1
  S  S24  1  0.10225063  0.49395382  0.66151674  1
  S  S25  1  0.89051935  0.52799861  0.33408232  1
  S  S26  1  0.74630705  0.00715585  0.30768058  1
  S  S27  1  0.26173873  0.98171858  0.68772810  1
  S  S28  1  0.16175453  0.42555300  0.44747654  1
  S  S29  1  0.81840356  0.49217585  0.52968753  1
  S  S30  1  0.43341821  0.45590853  0.80904118  1
  S  S31  1  0.55781121  0.48668160  0.19570443  1
  S  S32  1  0.91806283  0.49205835  0.99115253  1
  S  S33  1  0.07015055  0.50280467  0.00504634  1
  S  S34  1  0.67227738  0.40125292  0.90217139  1
  S  S35  1  0.33682512  0.49252872  0.10672172  1
  S  S36  1  0.59161577  0.96074056  0.66616838  1
  S  S37  1  0.40744446  0.01087637  0.36063734  1
  S  S38  1  0.23178042  0.47130775  0.28290592  1
  S  S39  1  0.77062156  0.40914642  0.71320912  1
  S  S40  1  0.67026939  0.00951304  0.45468382  1
  S  S41  1  0.33123607  0.02875045  0.54834174  1
