# generated using pymatgen
data_Pr2Mn3(SbS3)4
_symmetry_space_group_name_H-M   'P 1'
_cell_length_a   20.02960800
_cell_length_b   3.90410600
_cell_length_c   14.95364829
_cell_angle_alpha   90.00000000
_cell_angle_beta   126.33350609
_cell_angle_gamma   90.00000000
_symmetry_Int_Tables_number   1
_chemical_formula_structural   Pr2Mn3(SbS3)4
_chemical_formula_sum   'Pr4 Mn6 Sb8 S24'
_cell_volume   942.00006694
_cell_formula_units_Z   2
loop_
 _symmetry_equiv_pos_site_id
 _symmetry_equiv_pos_as_xyz
  1  'x, y, z'
loop_
 _atom_site_type_symbol
 _atom_site_label
 _atom_site_symmetry_multiplicity
 _atom_site_fract_x
 _atom_site_fract_y
 _atom_site_fract_z
 _atom_site_occupancy
  Pr  Pr0  1  0.26685469  0.52884130  0.86566758  1
  Pr  Pr1  1  0.73016111  0.52621616  0.13824654  1
  Pr  Pr2  1  0.76694302  0.95675417  0.87925907  1
  Pr  Pr3  1  0.24430261  0.97359048  0.14837421  1
  Mn  Mn4  1  0.28729619  0.51537082  0.59174759  1
  Mn  Mn5  1  0.69662760  0.44693767  0.37330706  1
  Mn  Mn6  1  0.00251226  0.00607414  0.00707736  1
  Mn  Mn7  1  0.79360975  0.98253938  0.59744320  1
  Mn  Mn8  1  0.19530129  0.92609258  0.40519715  1
  Mn  Mn9  1  0.49620609  0.50670734  0.00445192  1
  Sb  Sb10  1  0.89969213  0.99221587  0.45535539  1
  Sb  Sb11  1  0.10371598  0.02158500  0.55073243  1
  Sb  Sb12  1  0.03426743  0.53509578  0.80868775  1
  Sb  Sb13  1  0.96513012  0.51578434  0.18963312  1
  Sb  Sb14  1  0.38896746  0.49612917  0.45255223  1
  Sb  Sb15  1  0.61618637  0.47230934  0.57279723  1
  Sb  Sb16  1  0.54105056  0.03825891  0.82515494  1
  Sb  Sb17  1  0.45702088  0.01145067  0.18882916  1
  S  S18  1  0.93213725  0.98505628  0.78704448  1
  S  S19  1  0.05507897  0.96789047  0.20453166  1
  S  S20  1  0.41789059  0.97876242  0.98706443  1
  S  S21  1  0.58677356  0.99154144  0.02683283  1
  S  S22  1  0.17013328  0.96382252  0.89121646  1
  S  S23  1  0.82907597  0.01409071  0.11672269  1
  S  S24  1  0.10247709  0.49450401  0.66176327  1
  S  S25  1  0.89092254  0.52964614  0.33400759  1
  S  S26  1  0.74642939  0.00623834  0.30784858  1
  S  S27  1  0.26201175  0.98267296  0.68820295  1
  S  S28  1  0.16171484  0.42643081  0.44734205  1
  S  S29  1  0.81870905  0.49375403  0.52982246  1
  S  S30  1  0.43330911  0.45461458  0.80909994  1
  S  S31  1  0.55765431  0.48760581  0.19592303  1
  S  S32  1  0.91814255  0.49175366  0.99091628  1
  S  S33  1  0.07004349  0.50415708  0.00512404  1
  S  S34  1  0.67225517  0.39967705  0.90213081  1
  S  S35  1  0.33666060  0.49162708  0.10683395  1
  S  S36  1  0.59153502  0.96066225  0.66586855  1
  S  S37  1  0.40762098  0.01090174  0.36112244  1
  S  S38  1  0.23199436  0.47178375  0.28343487  1
  S  S39  1  0.77073091  0.40919215  0.71332396  1
  S  S40  1  0.66988285  0.00929448  0.45427403  1
  S  S41  1  0.33127537  0.02834110  0.54827896  1
