# generated using pymatgen
data_Pr2Mn3(SbS3)4
_symmetry_space_group_name_H-M   'P 1'
_cell_length_a   20.02960800
_cell_length_b   3.90410600
_cell_length_c   14.95364829
_cell_angle_alpha   90.00000000
_cell_angle_beta   126.33350609
_cell_angle_gamma   90.00000000
_symmetry_Int_Tables_number   1
_chemical_formula_structural   Pr2Mn3(SbS3)4
_chemical_formula_sum   'Pr4 Mn6 Sb8 S24'
_cell_volume   942.00006694
_cell_formula_units_Z   2
loop_
 _symmetry_equiv_pos_site_id
 _symmetry_equiv_pos_as_xyz
  1  'x, y, z'
loop_
 _atom_site_type_symbol
 _atom_site_label
 _atom_site_symmetry_multiplicity
 _atom_site_fract_x
 _atom_site_fract_y
 _atom_site_fract_z
 _atom_site_occupancy
  Pr  Pr0  1  0.26689434  0.52933453  0.86577724  1
  Pr  Pr1  1  0.73013839  0.52611268  0.13831384  1
  Pr  Pr2  1  0.76690099  0.95625062  0.87943166  1
  Pr  Pr3  1  0.24420273  0.97440686  0.14842417  1
  Mn  Mn4  1  0.28701423  0.51591631  0.59168617  1
  Mn  Mn5  1  0.69669153  0.44763618  0.37321548  1
  Mn  Mn6  1  0.00270373  0.00615868  0.00724542  1
  Mn  Mn7  1  0.79340565  0.98263596  0.59753931  1
  Mn  Mn8  1  0.19519144  0.92627886  0.40521763  1
  Mn  Mn9  1  0.49596584  0.50651231  0.00413151  1
  Sb  Sb10  1  0.89981298  0.99224382  0.45547510  1
  Sb  Sb11  1  0.10366975  0.02106538  0.55055932  1
  Sb  Sb12  1  0.03426430  0.53441861  0.80854120  1
  Sb  Sb13  1  0.96510597  0.51474119  0.18965942  1
  Sb  Sb14  1  0.38875844  0.49620651  0.45230427  1
  Sb  Sb15  1  0.61599583  0.47210981  0.57257886  1
  Sb  Sb16  1  0.54099907  0.03810594  0.82517019  1
  Sb  Sb17  1  0.45721360  0.01205506  0.18885146  1
  S  S18  1  0.93205849  0.98385305  0.78677829  1
  S  S19  1  0.05521311  0.96686795  0.20396776  1
  S  S20  1  0.41763726  0.97886495  0.98660640  1
  S  S21  1  0.58675474  0.99008821  0.02708577  1
  S  S22  1  0.17030742  0.96340058  0.89117550  1
  S  S23  1  0.82923840  0.01387807  0.11706898  1
  S  S24  1  0.10277555  0.49527512  0.66209780  1
  S  S25  1  0.89146174  0.53099608  0.33399515  1
  S  S26  1  0.74655183  0.00604388  0.30810137  1
  S  S27  1  0.26234938  0.98282108  0.68872772  1
  S  S28  1  0.16179506  0.42726100  0.44721220  1
  S  S29  1  0.81896403  0.49530480  0.52996163  1
  S  S30  1  0.43327315  0.45334863  0.80923918  1
  S  S31  1  0.55755804  0.48871661  0.19612318  1
  S  S32  1  0.91814460  0.49167097  0.99067542  1
  S  S33  1  0.06989497  0.50503756  0.00510879  1
  S  S34  1  0.67228775  0.39824592  0.90208002  1
  S  S35  1  0.33657670  0.49025415  0.10696058  1
  S  S36  1  0.59137338  0.96017783  0.66565101  1
  S  S37  1  0.40785113  0.01108580  0.36164730  1
  S  S38  1  0.23220750  0.47224303  0.28396264  1
  S  S39  1  0.77067476  0.40910578  0.71329979  1
  S  S40  1  0.66960984  0.00911594  0.45399754  1
  S  S41  1  0.33127921  0.02745312  0.54819302  1
