# generated using pymatgen
data_Pr2Mn3(SbS3)4
_symmetry_space_group_name_H-M   'P 1'
_cell_length_a   20.02960800
_cell_length_b   3.90410600
_cell_length_c   14.95364829
_cell_angle_alpha   90.00000000
_cell_angle_beta   126.33350609
_cell_angle_gamma   90.00000000
_symmetry_Int_Tables_number   1
_chemical_formula_structural   Pr2Mn3(SbS3)4
_chemical_formula_sum   'Pr4 Mn6 Sb8 S24'
_cell_volume   942.00006694
_cell_formula_units_Z   2
loop_
 _symmetry_equiv_pos_site_id
 _symmetry_equiv_pos_as_xyz
  1  'x, y, z'
loop_
 _atom_site_type_symbol
 _atom_site_label
 _atom_site_symmetry_multiplicity
 _atom_site_fract_x
 _atom_site_fract_y
 _atom_site_fract_z
 _atom_site_occupancy
  Pr  Pr0  1  0.26691567  0.52986803  0.86585474  1
  Pr  Pr1  1  0.73008521  0.52604491  0.13826212  1
  Pr  Pr2  1  0.76683380  0.95602347  0.87962480  1
  Pr  Pr3  1  0.24411288  0.97519211  0.14843449  1
  Mn  Mn4  1  0.28671937  0.51658463  0.59174155  1
  Mn  Mn5  1  0.69681532  0.44827555  0.37325849  1
  Mn  Mn6  1  0.00279537  0.00616549  0.00736471  1
  Mn  Mn7  1  0.79321790  0.98234057  0.59767355  1
  Mn  Mn8  1  0.19508722  0.92660396  0.40503470  1
  Mn  Mn9  1  0.49584297  0.50623975  0.00399058  1
  Sb  Sb10  1  0.89994640  0.99232339  0.45560966  1
  Sb  Sb11  1  0.10357329  0.02068286  0.55044723  1
  Sb  Sb12  1  0.03422902  0.53395417  0.80845798  1
  Sb  Sb13  1  0.96503443  0.51355459  0.18968347  1
  Sb  Sb14  1  0.38858719  0.49625975  0.45208583  1
  Sb  Sb15  1  0.61578945  0.47206073  0.57223304  1
  Sb  Sb16  1  0.54093667  0.03766498  0.82526386  1
  Sb  Sb17  1  0.45742680  0.01281114  0.18895757  1
  S  S18  1  0.93202247  0.98302401  0.78658372  1
  S  S19  1  0.05548077  0.96651143  0.20366706  1
  S  S20  1  0.41741508  0.97914536  0.98613475  1
  S  S21  1  0.58660084  0.98817411  0.02725866  1
  S  S22  1  0.17043722  0.96312559  0.89112439  1
  S  S23  1  0.82928647  0.01349803  0.11723140  1
  S  S24  1  0.10307916  0.49613883  0.66248666  1
  S  S25  1  0.89193707  0.53218253  0.33393221  1
  S  S26  1  0.74660937  0.00567699  0.30850843  1
  S  S27  1  0.26266511  0.98245700  0.68912559  1
  S  S28  1  0.16179960  0.42817948  0.44709605  1
  S  S29  1  0.81918002  0.49665251  0.52999337  1
  S  S30  1  0.43324748  0.45243295  0.80936807  1
  S  S31  1  0.55758273  0.48947169  0.19639738  1
  S  S32  1  0.91816578  0.49076372  0.99060249  1
  S  S33  1  0.06979246  0.50575855  0.00506470  1
  S  S34  1  0.67232591  0.39754319  0.90216792  1
  S  S35  1  0.33640051  0.48952036  0.10697259  1
  S  S36  1  0.59127626  0.95975359  0.66568740  1
  S  S37  1  0.40817962  0.01167877  0.36224672  1
  S  S38  1  0.23239630  0.47330013  0.28434954  1
  S  S39  1  0.77054281  0.40876270  0.71318095  1
  S  S40  1  0.66913038  0.00879597  0.45368495  1
  S  S41  1  0.33119314  0.02620481  0.54801960  1
