# generated using pymatgen
data_Pr2Mn3(SbS3)4
_symmetry_space_group_name_H-M   'P 1'
_cell_length_a   20.02960800
_cell_length_b   3.90410600
_cell_length_c   14.95364829
_cell_angle_alpha   90.00000000
_cell_angle_beta   126.33350609
_cell_angle_gamma   90.00000000
_symmetry_Int_Tables_number   1
_chemical_formula_structural   Pr2Mn3(SbS3)4
_chemical_formula_sum   'Pr4 Mn6 Sb8 S24'
_cell_volume   942.00006694
_cell_formula_units_Z   2
loop_
 _symmetry_equiv_pos_site_id
 _symmetry_equiv_pos_as_xyz
  1  'x, y, z'
loop_
 _atom_site_type_symbol
 _atom_site_label
 _atom_site_symmetry_multiplicity
 _atom_site_fract_x
 _atom_site_fract_y
 _atom_site_fract_z
 _atom_site_occupancy
  Pr  Pr0  1  0.26694395  0.53042241  0.86596435  1
  Pr  Pr1  1  0.72999952  0.52616081  0.13818976  1
  Pr  Pr2  1  0.76674549  0.95575904  0.87981366  1
  Pr  Pr3  1  0.24395383  0.97614954  0.14843756  1
  Mn  Mn4  1  0.28632418  0.51666493  0.59164362  1
  Mn  Mn5  1  0.69695859  0.44916932  0.37335102  1
  Mn  Mn6  1  0.00290161  0.00623753  0.00754862  1
  Mn  Mn7  1  0.79310718  0.98260242  0.59778923  1
  Mn  Mn8  1  0.19499247  0.92691939  0.40498561  1
  Mn  Mn9  1  0.49577555  0.50612501  0.00389428  1
  Sb  Sb10  1  0.90004191  0.99230056  0.45555203  1
  Sb  Sb11  1  0.10345644  0.02043051  0.55031195  1
  Sb  Sb12  1  0.03421891  0.53362841  0.80838845  1
  Sb  Sb13  1  0.96492812  0.51229837  0.18961167  1
  Sb  Sb14  1  0.38848883  0.49603307  0.45187542  1
  Sb  Sb15  1  0.61563380  0.47209458  0.57189485  1
  Sb  Sb16  1  0.54092011  0.03728959  0.82537265  1
  Sb  Sb17  1  0.45759075  0.01320110  0.18907033  1
  S  S18  1  0.93197385  0.98216718  0.78623468  1
  S  S19  1  0.05580129  0.96594193  0.20338505  1
  S  S20  1  0.41733041  0.97905057  0.98576974  1
  S  S21  1  0.58641795  0.98608771  0.02758055  1
  S  S22  1  0.17060044  0.96276285  0.89113252  1
  S  S23  1  0.82940991  0.01307756  0.11763279  1
  S  S24  1  0.10326488  0.49754431  0.66293922  1
  S  S25  1  0.89241814  0.53255955  0.33410947  1
  S  S26  1  0.74668468  0.00527453  0.30887163  1
  S  S27  1  0.26302289  0.98233438  0.68963335  1
  S  S28  1  0.16180660  0.42919437  0.44690975  1
  S  S29  1  0.81935002  0.49770381  0.52986108  1
  S  S30  1  0.43300729  0.45227884  0.80943494  1
  S  S31  1  0.55752367  0.49018427  0.19647438  1
  S  S32  1  0.91814991  0.48973339  0.99059309  1
  S  S33  1  0.06960840  0.50605238  0.00498756  1
  S  S34  1  0.67245451  0.39695862  0.90240587  1
  S  S35  1  0.33643564  0.48865922  0.10704234  1
  S  S36  1  0.59131425  0.95998300  0.66586846  1
  S  S37  1  0.40854642  0.01236399  0.36281741  1
  S  S38  1  0.23260000  0.47431338  0.28477358  1
  S  S39  1  0.77040288  0.40890905  0.71312207  1
  S  S40  1  0.66850456  0.00800984  0.45321391  1
  S  S41  1  0.33107176  0.02468651  0.54751957  1
