# generated using pymatgen
data_Pr2Mn3(SbS3)4
_symmetry_space_group_name_H-M   'P 1'
_cell_length_a   20.02960800
_cell_length_b   3.90410600
_cell_length_c   14.95364829
_cell_angle_alpha   90.00000000
_cell_angle_beta   126.33350609
_cell_angle_gamma   90.00000000
_symmetry_Int_Tables_number   1
_chemical_formula_structural   Pr2Mn3(SbS3)4
_chemical_formula_sum   'Pr4 Mn6 Sb8 S24'
_cell_volume   942.00006694
_cell_formula_units_Z   2
loop_
 _symmetry_equiv_pos_site_id
 _symmetry_equiv_pos_as_xyz
  1  'x, y, z'
loop_
 _atom_site_type_symbol
 _atom_site_label
 _atom_site_symmetry_multiplicity
 _atom_site_fract_x
 _atom_site_fract_y
 _atom_site_fract_z
 _atom_site_occupancy
  Pr  Pr0  1  0.26693145  0.53063797  0.86597201  1
  Pr  Pr1  1  0.73008777  0.52626825  0.13820776  1
  Pr  Pr2  1  0.76674622  0.95572945  0.88011793  1
  Pr  Pr3  1  0.24375087  0.97708590  0.14837514  1
  Mn  Mn4  1  0.28591749  0.51720686  0.59168807  1
  Mn  Mn5  1  0.69699643  0.44990802  0.37343272  1
  Mn  Mn6  1  0.00300720  0.00590818  0.00774833  1
  Mn  Mn7  1  0.79306232  0.98254169  0.59803585  1
  Mn  Mn8  1  0.19484371  0.92762979  0.40496947  1
  Mn  Mn9  1  0.49571248  0.50635419  0.00379589  1
  Sb  Sb10  1  0.90015163  0.99204430  0.45555337  1
  Sb  Sb11  1  0.10342459  0.02029761  0.55016133  1
  Sb  Sb12  1  0.03420834  0.53324981  0.80834135  1
  Sb  Sb13  1  0.96483548  0.51115952  0.18952915  1
  Sb  Sb14  1  0.38837477  0.49562304  0.45164591  1
  Sb  Sb15  1  0.61549996  0.47210013  0.57159591  1
  Sb  Sb16  1  0.54092523  0.03641980  0.82537884  1
  Sb  Sb17  1  0.45777175  0.01343760  0.18921367  1
  S  S18  1  0.93209398  0.98117277  0.78611839  1
  S  S19  1  0.05602438  0.96518841  0.20291279  1
  S  S20  1  0.41734308  0.97959598  0.98556963  1
  S  S21  1  0.58626294  0.98432382  0.02793410  1
  S  S22  1  0.17063694  0.96251329  0.89106621  1
  S  S23  1  0.82935412  0.01237699  0.11797912  1
  S  S24  1  0.10333415  0.49868936  0.66329329  1
  S  S25  1  0.89284485  0.53317410  0.33434929  1
  S  S26  1  0.74668813  0.00516603  0.30908599  1
  S  S27  1  0.26331389  0.98216868  0.69001234  1
  S  S28  1  0.16152247  0.43039034  0.44636379  1
  S  S29  1  0.81955214  0.49816034  0.52965827  1
  S  S30  1  0.43288209  0.45168697  0.80954964  1
  S  S31  1  0.55757726  0.49125219  0.19649931  1
  S  S32  1  0.91821509  0.48836014  0.99068377  1
  S  S33  1  0.06963708  0.50653430  0.00482967  1
  S  S34  1  0.67252717  0.39640902  0.90255436  1
  S  S35  1  0.33647906  0.48793126  0.10716243  1
  S  S36  1  0.59129682  0.96068570  0.66590895  1
  S  S37  1  0.40896831  0.01339359  0.36337313  1
  S  S38  1  0.23277107  0.47489977  0.28504187  1
  S  S39  1  0.77027193  0.40849141  0.71338464  1
  S  S40  1  0.66799176  0.00731671  0.45282287  1
  S  S41  1  0.33083316  0.02264519  0.54688302  1
