# generated using pymatgen
data_Pr2Mn3(SbS3)4
_symmetry_space_group_name_H-M   'P 1'
_cell_length_a   20.02960800
_cell_length_b   3.90410600
_cell_length_c   14.95364829
_cell_angle_alpha   90.00000000
_cell_angle_beta   126.33350609
_cell_angle_gamma   90.00000000
_symmetry_Int_Tables_number   1
_chemical_formula_structural   Pr2Mn3(SbS3)4
_chemical_formula_sum   'Pr4 Mn6 Sb8 S24'
_cell_volume   942.00006694
_cell_formula_units_Z   2
loop_
 _symmetry_equiv_pos_site_id
 _symmetry_equiv_pos_as_xyz
  1  'x, y, z'
loop_
 _atom_site_type_symbol
 _atom_site_label
 _atom_site_symmetry_multiplicity
 _atom_site_fract_x
 _atom_site_fract_y
 _atom_site_fract_z
 _atom_site_occupancy
  Pr  Pr0  1  0.26688376  0.53093764  0.86599299  1
  Pr  Pr1  1  0.73015394  0.52651170  0.13821526  1
  Pr  Pr2  1  0.76668078  0.95572232  0.88025467  1
  Pr  Pr3  1  0.24351586  0.97812774  0.14821360  1
  Mn  Mn4  1  0.28551077  0.51813364  0.59159441  1
  Mn  Mn5  1  0.69681901  0.45039568  0.37339227  1
  Mn  Mn6  1  0.00304935  0.00548814  0.00779872  1
  Mn  Mn7  1  0.79290067  0.98311023  0.59812529  1
  Mn  Mn8  1  0.19466350  0.92826249  0.40490924  1
  Mn  Mn9  1  0.49569588  0.50650019  0.00369526  1
  Sb  Sb10  1  0.90028167  0.99180769  0.45559761  1
  Sb  Sb11  1  0.10340395  0.01998652  0.55005157  1
  Sb  Sb12  1  0.03430812  0.53298010  0.80837511  1
  Sb  Sb13  1  0.96469222  0.50993335  0.18948419  1
  Sb  Sb14  1  0.38817337  0.49473403  0.45133249  1
  Sb  Sb15  1  0.61538411  0.47224665  0.57132875  1
  Sb  Sb16  1  0.54093763  0.03540499  0.82537576  1
  Sb  Sb17  1  0.45801773  0.01339808  0.18946996  1
  S  S18  1  0.93210756  0.98071325  0.78603803  1
  S  S19  1  0.05611261  0.96457551  0.20244860  1
  S  S20  1  0.41731760  0.97936131  0.98564025  1
  S  S21  1  0.58602220  0.98265326  0.02809167  1
  S  S22  1  0.17066161  0.96208702  0.89101927  1
  S  S23  1  0.82935558  0.01161841  0.11836093  1
  S  S24  1  0.10349952  0.49942849  0.66384802  1
  S  S25  1  0.89311473  0.53430764  0.33450143  1
  S  S26  1  0.74659505  0.00540787  0.30927231  1
  S  S27  1  0.26365997  0.98224707  0.69032872  1
  S  S28  1  0.16120857  0.43114397  0.44604694  1
  S  S29  1  0.81979628  0.49763608  0.52952654  1
  S  S30  1  0.43275058  0.45171366  0.80957523  1
  S  S31  1  0.55772646  0.49173953  0.19662702  1
  S  S32  1  0.91856457  0.48715098  0.99099421  1
  S  S33  1  0.06967196  0.50640973  0.00461693  1
  S  S34  1  0.67250254  0.39601409  0.90225257  1
  S  S35  1  0.33651310  0.48778673  0.10738160  1
  S  S36  1  0.59112237  0.96106995  0.66566977  1
  S  S37  1  0.40933905  0.01378302  0.36383913  1
  S  S38  1  0.23276376  0.47539344  0.28520956  1
  S  S39  1  0.77032847  0.40781331  0.71380769  1
  S  S40  1  0.66755585  0.00637435  0.45246561  1
  S  S41  1  0.33052801  0.02019772  0.54618516  1
