# generated using pymatgen
data_Pr2Mn3(SbS3)4
_symmetry_space_group_name_H-M   'P 1'
_cell_length_a   20.02960800
_cell_length_b   3.90410600
_cell_length_c   14.95364829
_cell_angle_alpha   90.00000000
_cell_angle_beta   126.33350609
_cell_angle_gamma   90.00000000
_symmetry_Int_Tables_number   1
_chemical_formula_structural   Pr2Mn3(SbS3)4
_chemical_formula_sum   'Pr4 Mn6 Sb8 S24'
_cell_volume   942.00006694
_cell_formula_units_Z   2
loop_
 _symmetry_equiv_pos_site_id
 _symmetry_equiv_pos_as_xyz
  1  'x, y, z'
loop_
 _atom_site_type_symbol
 _atom_site_label
 _atom_site_symmetry_multiplicity
 _atom_site_fract_x
 _atom_site_fract_y
 _atom_site_fract_z
 _atom_site_occupancy
  Pr  Pr0  1  0.26689901  0.53097442  0.86600205  1
  Pr  Pr1  1  0.73027442  0.52667616  0.13829238  1
  Pr  Pr2  1  0.76659498  0.95555696  0.88036215  1
  Pr  Pr3  1  0.24328687  0.97901818  0.14804275  1
  Mn  Mn4  1  0.28508990  0.51920228  0.59146740  1
  Mn  Mn5  1  0.69668699  0.45086487  0.37342434  1
  Mn  Mn6  1  0.00308483  0.00534819  0.00787561  1
  Mn  Mn7  1  0.79277274  0.98329969  0.59823500  1
  Mn  Mn8  1  0.19453246  0.92859061  0.40497662  1
  Mn  Mn9  1  0.49573091  0.50664858  0.00367572  1
  Sb  Sb10  1  0.90035215  0.99166327  0.45559390  1
  Sb  Sb11  1  0.10337287  0.01942720  0.54994970  1
  Sb  Sb12  1  0.03434517  0.53297766  0.80842152  1
  Sb  Sb13  1  0.96459476  0.50892684  0.18945498  1
  Sb  Sb14  1  0.38794288  0.49386309  0.45096607  1
  Sb  Sb15  1  0.61528678  0.47233304  0.57115656  1
  Sb  Sb16  1  0.54097221  0.03461554  0.82545681  1
  Sb  Sb17  1  0.45823729  0.01319478  0.18970006  1
  S  S18  1  0.93193555  0.98041533  0.78579295  1
  S  S19  1  0.05620135  0.96440959  0.20207571  1
  S  S20  1  0.41722955  0.97921593  0.98582486  1
  S  S21  1  0.58570826  0.98051697  0.02830224  1
  S  S22  1  0.17083086  0.96223974  0.89114678  1
  S  S23  1  0.82946959  0.01072039  0.11889777  1
  S  S24  1  0.10362996  0.49955722  0.66422914  1
  S  S25  1  0.89342298  0.53550019  0.33481249  1
  S  S26  1  0.74643674  0.00565415  0.30927399  1
  S  S27  1  0.26382581  0.98281936  0.69043983  1
  S  S28  1  0.16093544  0.43227114  0.44576085  1
  S  S29  1  0.82004259  0.49620731  0.52952539  1
  S  S30  1  0.43263619  0.45189502  0.80962534  1
  S  S31  1  0.55786368  0.49201018  0.19687095  1
  S  S32  1  0.91888761  0.48593536  0.99139456  1
  S  S33  1  0.06959509  0.50567041  0.00414424  1
  S  S34  1  0.67255099  0.39596483  0.90191641  1
  S  S35  1  0.33655061  0.48783738  0.10768328  1
  S  S36  1  0.59098460  0.96180626  0.66553824  1
  S  S37  1  0.40987222  0.01444907  0.36451007  1
  S  S38  1  0.23266953  0.47589337  0.28524823  1
  S  S39  1  0.77034163  0.40737742  0.71430322  1
  S  S40  1  0.66720477  0.00500535  0.45219662  1
  S  S41  1  0.33021786  0.01875317  0.54542913  1
