# generated using pymatgen
data_Pr2Mn3(SbS3)4
_symmetry_space_group_name_H-M   'P 1'
_cell_length_a   20.02960800
_cell_length_b   3.90410600
_cell_length_c   14.95364829
_cell_angle_alpha   90.00000000
_cell_angle_beta   126.33350609
_cell_angle_gamma   90.00000000
_symmetry_Int_Tables_number   1
_chemical_formula_structural   Pr2Mn3(SbS3)4
_chemical_formula_sum   'Pr4 Mn6 Sb8 S24'
_cell_volume   942.00006694
_cell_formula_units_Z   2
loop_
 _symmetry_equiv_pos_site_id
 _symmetry_equiv_pos_as_xyz
  1  'x, y, z'
loop_
 _atom_site_type_symbol
 _atom_site_label
 _atom_site_symmetry_multiplicity
 _atom_site_fract_x
 _atom_site_fract_y
 _atom_site_fract_z
 _atom_site_occupancy
  Pr  Pr0  1  0.26173357  0.49658437  0.86568233  1
  Pr  Pr1  1  0.73999566  0.50191340  0.13724884  1
  Pr  Pr2  1  0.76052297  0.00623434  0.86210779  1
  Pr  Pr3  1  0.24003322  0.99225258  0.13822129  1
  Mn  Mn4  1  0.29951609  0.50587512  0.62034418  1
  Mn  Mn5  1  0.69690892  0.49818478  0.37890229  1
  Mn  Mn6  1  0.00070725  0.99873852  0.00130115  1
  Mn  Mn7  1  0.80268855  0.99410559  0.61932658  1
  Mn  Mn8  1  0.19909098  0.99352609  0.37905630  1
  Mn  Mn9  1  0.49982213  0.48586913  0.00115638  1
  Sb  Sb10  1  0.89501837  0.00605372  0.45407470  1
  Sb  Sb11  1  0.10659462  0.99292928  0.54958220  1
  Sb  Sb12  1  0.03781748  0.49295770  0.81394840  1
  Sb  Sb13  1  0.96254472  0.49786614  0.18786373  1
  Sb  Sb14  1  0.39456822  0.49134690  0.45563240  1
  Sb  Sb15  1  0.60580583  0.49643457  0.54794631  1
  Sb  Sb16  1  0.53827056  0.99923525  0.81451567  1
  Sb  Sb17  1  0.46302573  0.99911647  0.18525610  1
  S  S18  1  0.93911563  0.99506276  0.79751335  1
  S  S19  1  0.05756513  0.99214857  0.19425995  1
  S  S20  1  0.40262396  0.97943956  0.98028536  1
  S  S21  1  0.59806675  0.99561702  0.01841485  1
  S  S22  1  0.16874659  0.98841944  0.89934497  1
  S  S23  1  0.82828690  0.00428844  0.10390348  1
  S  S24  1  0.08830519  0.49227928  0.64780865  1
  S  S25  1  0.91019683  0.48652132  0.34964692  1
  S  S26  1  0.74414350  0.98002313  0.29624150  1
  S  S27  1  0.25591056  0.00922184  0.70110454  1
  S  S28  1  0.15844774  0.49311244  0.44849777  1
  S  S29  1  0.83660944  0.49823075  0.54639967  1
  S  S30  1  0.44008981  0.49559064  0.79855295  1
  S  S31  1  0.56085403  0.49162760  0.19943262  1
  S  S32  1  0.90253235  0.48478607  0.97859517  1
  S  S33  1  0.09463991  0.48865816  0.01936433  1
  S  S34  1  0.66562967  0.51277399  0.89566420  1
  S  S35  1  0.33430049  0.50178010  0.10719294  1
  S  S36  1  0.58933390  0.01704911  0.64777753  1
  S  S37  1  0.41345794  0.99216422  0.35673967  1
  S  S38  1  0.24297998  0.48151633  0.29162086  1
  S  S39  1  0.76223711  0.50065460  0.70611279  1
  S  S40  1  0.65897455  0.99917864  0.45588277  1
  S  S41  1  0.34074274  0.99156907  0.54507645  1
