# generated using pymatgen
data_Pr2Mn3(SbS3)4
_symmetry_space_group_name_H-M   'P 1'
_cell_length_a   20.02960800
_cell_length_b   3.90410600
_cell_length_c   14.95364829
_cell_angle_alpha   90.00000000
_cell_angle_beta   126.33350609
_cell_angle_gamma   90.00000000
_symmetry_Int_Tables_number   1
_chemical_formula_structural   Pr2Mn3(SbS3)4
_chemical_formula_sum   'Pr4 Mn6 Sb8 S24'
_cell_volume   942.00006694
_cell_formula_units_Z   2
loop_
 _symmetry_equiv_pos_site_id
 _symmetry_equiv_pos_as_xyz
  1  'x, y, z'
loop_
 _atom_site_type_symbol
 _atom_site_label
 _atom_site_symmetry_multiplicity
 _atom_site_fract_x
 _atom_site_fract_y
 _atom_site_fract_z
 _atom_site_occupancy
  Pr  Pr0  1  0.26667527  0.49818595  0.86439890  1
  Pr  Pr1  1  0.73510303  0.51056342  0.13519333  1
  Pr  Pr2  1  0.76341187  0.01484981  0.86110394  1
  Pr  Pr3  1  0.23469139  0.99637624  0.13414647  1
  Mn  Mn4  1  0.28962830  0.47773260  0.59019177  1
  Mn  Mn5  1  0.68565900  0.47064497  0.36573930  1
  Mn  Mn6  1  0.00836630  0.99471607  0.01895101  1
  Mn  Mn7  1  0.80394305  0.01458158  0.61936121  1
  Mn  Mn8  1  0.19816560  0.97387401  0.37312836  1
  Mn  Mn9  1  0.49087465  0.47177391  0.99027126  1
  Sb  Sb10  1  0.89094960  0.98404007  0.45202873  1
  Sb  Sb11  1  0.11158603  0.98141555  0.54465516  1
  Sb  Sb12  1  0.03696159  0.51911632  0.82039715  1
  Sb  Sb13  1  0.96363203  0.50102217  0.18587480  1
  Sb  Sb14  1  0.39527065  0.49785470  0.45103146  1
  Sb  Sb15  1  0.60639263  0.46615560  0.54949007  1
  Sb  Sb16  1  0.53395306  0.99230707  0.80825573  1
  Sb  Sb17  1  0.46557789  0.02285702  0.19126437  1
  S  S18  1  0.93884703  0.00988546  0.81087040  1
  S  S19  1  0.06410028  0.97579418  0.19977413  1
  S  S20  1  0.42014974  0.95865299  0.98564861  1
  S  S21  1  0.58271487  0.03262939  0.01523870  1
  S  S22  1  0.17262327  0.05761679  0.90350832  1
  S  S23  1  0.82969689  0.05029436  0.10146190  1
  S  S24  1  0.09408811  0.48466971  0.64806164  1
  S  S25  1  0.91481937  0.49039569  0.35727943  1
  S  S26  1  0.73546178  0.95762090  0.29876170  1
  S  S27  1  0.26216815  0.00969611  0.70826779  1
  S  S28  1  0.16049559  0.51396726  0.42656970  1
  S  S29  1  0.82321805  0.48778283  0.55125122  1
  S  S30  1  0.42916622  0.48905500  0.79663912  1
  S  S31  1  0.55194945  0.52650439  0.18043046  1
  S  S32  1  0.91384248  0.48713853  0.98850290  1
  S  S33  1  0.09173024  0.50146138  0.03314094  1
  S  S34  1  0.66274790  0.52917714  0.88683886  1
  S  S35  1  0.32997448  0.50965358  0.09780943  1
  S  S36  1  0.60061490  0.99955937  0.65913654  1
  S  S37  1  0.40136208  0.98315117  0.34198792  1
  S  S38  1  0.23990878  0.47293222  0.31241820  1
  S  S39  1  0.76198562  0.51307415  0.69157141  1
  S  S40  1  0.66584566  0.02278660  0.44862940  1
  S  S41  1  0.33063120  0.97557512  0.55746495  1
