# generated using pymatgen
data_Pr2Mn3(SbS3)4
_symmetry_space_group_name_H-M   'P 1'
_cell_length_a   20.02960800
_cell_length_b   3.90410600
_cell_length_c   14.95364829
_cell_angle_alpha   90.00000000
_cell_angle_beta   126.33350609
_cell_angle_gamma   90.00000000
_symmetry_Int_Tables_number   1
_chemical_formula_structural   Pr2Mn3(SbS3)4
_chemical_formula_sum   'Pr4 Mn6 Sb8 S24'
_cell_volume   942.00006694
_cell_formula_units_Z   2
loop_
 _symmetry_equiv_pos_site_id
 _symmetry_equiv_pos_as_xyz
  1  'x, y, z'
loop_
 _atom_site_type_symbol
 _atom_site_label
 _atom_site_symmetry_multiplicity
 _atom_site_fract_x
 _atom_site_fract_y
 _atom_site_fract_z
 _atom_site_occupancy
  Pr  Pr0  1  0.26697900  0.53088596  0.86607351  1
  Pr  Pr1  1  0.73035147  0.52704293  0.13829295  1
  Pr  Pr2  1  0.76652874  0.95536403  0.88047993  1
  Pr  Pr3  1  0.24307898  0.97965039  0.14794527  1
  Mn  Mn4  1  0.28459518  0.51997341  0.59120164  1
  Mn  Mn5  1  0.69670081  0.45089475  0.37365552  1
  Mn  Mn6  1  0.00300167  0.00556547  0.00791129  1
  Mn  Mn7  1  0.79266249  0.98358035  0.59834759  1
  Mn  Mn8  1  0.19439863  0.92915410  0.40495904  1
  Mn  Mn9  1  0.49571165  0.50668957  0.00359459  1
  Sb  Sb10  1  0.90047789  0.99174441  0.45574910  1
  Sb  Sb11  1  0.10322883  0.01853772  0.54974712  1
  Sb  Sb12  1  0.03438499  0.53282415  0.80853199  1
  Sb  Sb13  1  0.96444978  0.50831300  0.18926874  1
  Sb  Sb14  1  0.38782113  0.49302499  0.45071658  1
  Sb  Sb15  1  0.61524136  0.47216668  0.57099240  1
  Sb  Sb16  1  0.54100163  0.03389776  0.82551230  1
  Sb  Sb17  1  0.45838884  0.01291161  0.18982645  1
  S  S18  1  0.93178718  0.98021129  0.78561635  1
  S  S19  1  0.05631249  0.96428182  0.20183658  1
  S  S20  1  0.41723266  0.97915322  0.98606988  1
  S  S21  1  0.58539772  0.97888445  0.02852405  1
  S  S22  1  0.17099299  0.96228561  0.89132677  1
  S  S23  1  0.82963274  0.01064163  0.11956502  1
  S  S24  1  0.10372918  0.49985431  0.66445690  1
  S  S25  1  0.89378866  0.53614425  0.33507651  1
  S  S26  1  0.74618221  0.00510089  0.30908303  1
  S  S27  1  0.26403697  0.98396312  0.69043671  1
  S  S28  1  0.16078187  0.43356685  0.44543277  1
  S  S29  1  0.82022520  0.49442527  0.52955835  1
  S  S30  1  0.43261325  0.45189599  0.80976368  1
  S  S31  1  0.55794670  0.49207853  0.19692992  1
  S  S32  1  0.91920618  0.48512457  0.99177867  1
  S  S33  1  0.06958306  0.50583139  0.00376719  1
  S  S34  1  0.67273997  0.39647233  0.90183263  1
  S  S35  1  0.33648395  0.48776070  0.10787940  1
  S  S36  1  0.59085248  0.96298085  0.66545966  1
  S  S37  1  0.41043349  0.01491018  0.36499692  1
  S  S38  1  0.23260618  0.47630338  0.28513515  1
  S  S39  1  0.77041607  0.40709177  0.71472597  1
  S  S40  1  0.66684093  0.00386351  0.45155926  1
  S  S41  1  0.32981450  0.01807848  0.54474448  1
