# generated using pymatgen
data_Pr2Mn3(SbS3)4
_symmetry_space_group_name_H-M   'P 1'
_cell_length_a   20.02960800
_cell_length_b   3.90410600
_cell_length_c   14.95364829
_cell_angle_alpha   90.00000000
_cell_angle_beta   126.33350609
_cell_angle_gamma   90.00000000
_symmetry_Int_Tables_number   1
_chemical_formula_structural   Pr2Mn3(SbS3)4
_chemical_formula_sum   'Pr4 Mn6 Sb8 S24'
_cell_volume   942.00006694
_cell_formula_units_Z   2
loop_
 _symmetry_equiv_pos_site_id
 _symmetry_equiv_pos_as_xyz
  1  'x, y, z'
loop_
 _atom_site_type_symbol
 _atom_site_label
 _atom_site_symmetry_multiplicity
 _atom_site_fract_x
 _atom_site_fract_y
 _atom_site_fract_z
 _atom_site_occupancy
  Pr  Pr0  1  0.26708776  0.53065859  0.86614096  1
  Pr  Pr1  1  0.73049598  0.52698187  0.13830669  1
  Pr  Pr2  1  0.76645361  0.95506025  0.88052974  1
  Pr  Pr3  1  0.24285451  0.98021138  0.14779618  1
  Mn  Mn4  1  0.28401941  0.52056742  0.59088204  1
  Mn  Mn5  1  0.69665553  0.45133564  0.37391052  1
  Mn  Mn6  1  0.00299334  0.00611000  0.00777873  1
  Mn  Mn7  1  0.79256051  0.98368175  0.59842333  1
  Mn  Mn8  1  0.19428411  0.92981941  0.40517411  1
  Mn  Mn9  1  0.49562922  0.50623770  0.00338008  1
  Sb  Sb10  1  0.90062402  0.99199674  0.45594226  1
  Sb  Sb11  1  0.10319371  0.01737234  0.54967757  1
  Sb  Sb12  1  0.03442747  0.53263477  0.80865856  1
  Sb  Sb13  1  0.96430903  0.50767390  0.18903139  1
  Sb  Sb14  1  0.38763905  0.49212007  0.45035243  1
  Sb  Sb15  1  0.61526919  0.47230707  0.57090204  1
  Sb  Sb16  1  0.54102069  0.03303190  0.82545526  1
  Sb  Sb17  1  0.45863705  0.01267698  0.19009536  1
  S  S18  1  0.93160752  0.98035321  0.78528806  1
  S  S19  1  0.05659509  0.96365652  0.20158108  1
  S  S20  1  0.41728333  0.97885715  0.98631145  1
  S  S21  1  0.58516036  0.97776295  0.02880221  1
  S  S22  1  0.17110327  0.96226549  0.89126816  1
  S  S23  1  0.82973178  0.00982185  0.12011078  1
  S  S24  1  0.10368418  0.49943036  0.66479285  1
  S  S25  1  0.89407265  0.53678481  0.33536957  1
  S  S26  1  0.74588345  0.00375176  0.30897694  1
  S  S27  1  0.26422334  0.98460039  0.69057128  1
  S  S28  1  0.16068858  0.43542051  0.44506490  1
  S  S29  1  0.82059698  0.49261847  0.52964223  1
  S  S30  1  0.43264596  0.45196174  0.80983708  1
  S  S31  1  0.55800914  0.49235455  0.19689978  1
  S  S32  1  0.91971700  0.48450111  0.99239605  1
  S  S33  1  0.06950504  0.50579248  0.00342064  1
  S  S34  1  0.67285015  0.39661139  0.90171416  1
  S  S35  1  0.33638540  0.48790360  0.10792118  1
  S  S36  1  0.59079100  0.96405373  0.66543680  1
  S  S37  1  0.41087375  0.01477996  0.36539840  1
  S  S38  1  0.23265405  0.47706755  0.28512261  1
  S  S39  1  0.77040682  0.40716921  0.71494813  1
  S  S40  1  0.66669982  0.00271416  0.45115385  1
  S  S41  1  0.32962674  0.01752547  0.54432955  1
