# generated using pymatgen
data_Pr2Mn3(SbS3)4
_symmetry_space_group_name_H-M   'P 1'
_cell_length_a   20.02960800
_cell_length_b   3.90410600
_cell_length_c   14.95364829
_cell_angle_alpha   90.00000000
_cell_angle_beta   126.33350609
_cell_angle_gamma   90.00000000
_symmetry_Int_Tables_number   1
_chemical_formula_structural   Pr2Mn3(SbS3)4
_chemical_formula_sum   'Pr4 Mn6 Sb8 S24'
_cell_volume   942.00006694
_cell_formula_units_Z   2
loop_
 _symmetry_equiv_pos_site_id
 _symmetry_equiv_pos_as_xyz
  1  'x, y, z'
loop_
 _atom_site_type_symbol
 _atom_site_label
 _atom_site_symmetry_multiplicity
 _atom_site_fract_x
 _atom_site_fract_y
 _atom_site_fract_z
 _atom_site_occupancy
  Pr  Pr0  1  0.26722814  0.53020809  0.86620715  1
  Pr  Pr1  1  0.73060673  0.52682096  0.13821787  1
  Pr  Pr2  1  0.76634112  0.95503264  0.88054995  1
  Pr  Pr3  1  0.24263445  0.98077741  0.14763214  1
  Mn  Mn4  1  0.28355502  0.52110389  0.59055848  1
  Mn  Mn5  1  0.69654627  0.45178224  0.37416613  1
  Mn  Mn6  1  0.00305197  0.00698353  0.00779236  1
  Mn  Mn7  1  0.79241566  0.98306174  0.59845060  1
  Mn  Mn8  1  0.19412529  0.93081848  0.40533523  1
  Mn  Mn9  1  0.49556370  0.50598582  0.00312337  1
  Sb  Sb10  1  0.90071765  0.99217214  0.45602790  1
  Sb  Sb11  1  0.10310839  0.01604628  0.54958809  1
  Sb  Sb12  1  0.03441495  0.53224733  0.80874383  1
  Sb  Sb13  1  0.96423194  0.50667425  0.18889537  1
  Sb  Sb14  1  0.38753415  0.49092324  0.45007898  1
  Sb  Sb15  1  0.61530830  0.47225058  0.57086455  1
  Sb  Sb16  1  0.54104125  0.03213454  0.82548471  1
  Sb  Sb17  1  0.45883049  0.01280979  0.19026333  1
  S  S18  1  0.93140214  0.98023434  0.78507052  1
  S  S19  1  0.05683192  0.96346985  0.20134841  1
  S  S20  1  0.41746423  0.97873647  0.98667761  1
  S  S21  1  0.58501604  0.97694471  0.02900577  1
  S  S22  1  0.17126347  0.96211173  0.89141269  1
  S  S23  1  0.82977903  0.00926421  0.12054558  1
  S  S24  1  0.10377986  0.49902151  0.66518910  1
  S  S25  1  0.89442921  0.53777189  0.33578032  1
  S  S26  1  0.74572712  0.00163352  0.30911180  1
  S  S27  1  0.26446227  0.98492630  0.69079363  1
  S  S28  1  0.16061218  0.43702501  0.44496044  1
  S  S29  1  0.82087343  0.49134413  0.52970140  1
  S  S30  1  0.43259067  0.45252593  0.80978864  1
  S  S31  1  0.55812596  0.49232151  0.19680336  1
  S  S32  1  0.92010633  0.48478477  0.99273333  1
  S  S33  1  0.06937021  0.50567376  0.00280213  1
  S  S34  1  0.67298705  0.39652761  0.90154582  1
  S  S35  1  0.33630667  0.48796790  0.10787663  1
  S  S36  1  0.59050928  0.96534340  0.66517403  1
  S  S37  1  0.41133804  0.01495017  0.36579047  1
  S  S38  1  0.23258175  0.47786126  0.28507065  1
  S  S39  1  0.77050052  0.40724235  0.71518846  1
  S  S40  1  0.66669368  0.00173668  0.45085467  1
  S  S41  1  0.32927078  0.01690182  0.54383045  1
