# generated using pymatgen
data_Pr2Mn3(SbS3)4
_symmetry_space_group_name_H-M   'P 1'
_cell_length_a   20.02960800
_cell_length_b   3.90410600
_cell_length_c   14.95364829
_cell_angle_alpha   90.00000000
_cell_angle_beta   126.33350609
_cell_angle_gamma   90.00000000
_symmetry_Int_Tables_number   1
_chemical_formula_structural   Pr2Mn3(SbS3)4
_chemical_formula_sum   'Pr4 Mn6 Sb8 S24'
_cell_volume   942.00006694
_cell_formula_units_Z   2
loop_
 _symmetry_equiv_pos_site_id
 _symmetry_equiv_pos_as_xyz
  1  'x, y, z'
loop_
 _atom_site_type_symbol
 _atom_site_label
 _atom_site_symmetry_multiplicity
 _atom_site_fract_x
 _atom_site_fract_y
 _atom_site_fract_z
 _atom_site_occupancy
  Pr  Pr0  1  0.26735109  0.52992266  0.86630053  1
  Pr  Pr1  1  0.73070337  0.52695424  0.13815360  1
  Pr  Pr2  1  0.76622968  0.95500198  0.88059787  1
  Pr  Pr3  1  0.24237300  0.98135864  0.14740377  1
  Mn  Mn4  1  0.28316080  0.52134721  0.59023214  1
  Mn  Mn5  1  0.69645531  0.45232860  0.37437188  1
  Mn  Mn6  1  0.00299045  0.00791144  0.00775835  1
  Mn  Mn7  1  0.79233059  0.98215850  0.59849987  1
  Mn  Mn8  1  0.19403371  0.93164331  0.40537049  1
  Mn  Mn9  1  0.49549400  0.50542376  0.00278409  1
  Sb  Sb10  1  0.90080522  0.99247659  0.45601796  1
  Sb  Sb11  1  0.10299348  0.01497172  0.54952609  1
  Sb  Sb12  1  0.03441369  0.53167658  0.80886164  1
  Sb  Sb13  1  0.96420417  0.50577305  0.18886385  1
  Sb  Sb14  1  0.38751496  0.48973044  0.44994823  1
  Sb  Sb15  1  0.61540427  0.47219197  0.57097162  1
  Sb  Sb16  1  0.54107240  0.03150836  0.82554055  1
  Sb  Sb17  1  0.45901544  0.01314023  0.19050623  1
  S  S18  1  0.93133323  0.98066426  0.78494675  1
  S  S19  1  0.05703903  0.96293133  0.20115555  1
  S  S20  1  0.41764011  0.97910079  0.98694669  1
  S  S21  1  0.58485832  0.97712232  0.02909686  1
  S  S22  1  0.17144764  0.96224105  0.89158364  1
  S  S23  1  0.82979737  0.00828072  0.12083660  1
  S  S24  1  0.10373498  0.49870997  0.66539131  1
  S  S25  1  0.89467281  0.53866798  0.33607177  1
  S  S26  1  0.74560032  0.99933036  0.30911164  1
  S  S27  1  0.26472992  0.98571098  0.69111805  1
  S  S28  1  0.16038099  0.43830218  0.44463586  1
  S  S29  1  0.82118621  0.49011723  0.52986536  1
  S  S30  1  0.43270064  0.45326259  0.80967622  1
  S  S31  1  0.55809532  0.49166065  0.19666047  1
  S  S32  1  0.92044746  0.48525393  0.99297344  1
  S  S33  1  0.06935118  0.50655429  0.00227179  1
  S  S34  1  0.67315618  0.39631570  0.90139895  1
  S  S35  1  0.33613252  0.48750855  0.10770232  1
  S  S36  1  0.59012457  0.96653121  0.66492749  1
  S  S37  1  0.41174667  0.01526871  0.36607959  1
  S  S38  1  0.23242711  0.47878746  0.28514590  1
  S  S39  1  0.77063327  0.40742091  0.71530445  1
  S  S40  1  0.66655911  0.00106202  0.45044103  1
  S  S41  1  0.32892234  0.01653191  0.54332437  1
