# generated using pymatgen
data_Pr2Mn3(SbS3)4
_symmetry_space_group_name_H-M   'P 1'
_cell_length_a   20.02960800
_cell_length_b   3.90410600
_cell_length_c   14.95364829
_cell_angle_alpha   90.00000000
_cell_angle_beta   126.33350609
_cell_angle_gamma   90.00000000
_symmetry_Int_Tables_number   1
_chemical_formula_structural   Pr2Mn3(SbS3)4
_chemical_formula_sum   'Pr4 Mn6 Sb8 S24'
_cell_volume   942.00006694
_cell_formula_units_Z   2
loop_
 _symmetry_equiv_pos_site_id
 _symmetry_equiv_pos_as_xyz
  1  'x, y, z'
loop_
 _atom_site_type_symbol
 _atom_site_label
 _atom_site_symmetry_multiplicity
 _atom_site_fract_x
 _atom_site_fract_y
 _atom_site_fract_z
 _atom_site_occupancy
  Pr  Pr0  1  0.26751340  0.53017997  0.86649734  1
  Pr  Pr1  1  0.73082062  0.52709007  0.13814056  1
  Pr  Pr2  1  0.76609844  0.95478024  0.88058965  1
  Pr  Pr3  1  0.24219986  0.98174353  0.14720026  1
  Mn  Mn4  1  0.28279018  0.52159486  0.58981675  1
  Mn  Mn5  1  0.69635043  0.45229609  0.37462388  1
  Mn  Mn6  1  0.00295810  0.00828095  0.00776794  1
  Mn  Mn7  1  0.79227605  0.98125566  0.59857193  1
  Mn  Mn8  1  0.19405974  0.93269438  0.40553906  1
  Mn  Mn9  1  0.49534872  0.50465850  0.00249857  1
  Sb  Sb10  1  0.90085413  0.99282338  0.45593664  1
  Sb  Sb11  1  0.10289522  0.01414610  0.54945584  1
  Sb  Sb12  1  0.03437862  0.53100332  0.80909408  1
  Sb  Sb13  1  0.96412157  0.50501873  0.18877295  1
  Sb  Sb14  1  0.38755317  0.48841171  0.44987018  1
  Sb  Sb15  1  0.61553951  0.47208357  0.57115556  1
  Sb  Sb16  1  0.54109913  0.03095118  0.82558593  1
  Sb  Sb17  1  0.45920096  0.01338940  0.19073202  1
  S  S18  1  0.93117370  0.98046185  0.78475811  1
  S  S19  1  0.05724064  0.96218195  0.20102476  1
  S  S20  1  0.41790381  0.97954730  0.98726241  1
  S  S21  1  0.58478291  0.97717356  0.02920828  1
  S  S22  1  0.17172945  0.96268913  0.89176875  1
  S  S23  1  0.82977867  0.00715763  0.12089895  1
  S  S24  1  0.10371266  0.49806902  0.66545295  1
  S  S25  1  0.89476210  0.53888853  0.33635375  1
  S  S26  1  0.74552442  0.99727042  0.30913901  1
  S  S27  1  0.26515744  0.98631856  0.69163549  1
  S  S28  1  0.16014477  0.43917396  0.44409217  1
  S  S29  1  0.82130898  0.48874429  0.52985326  1
  S  S30  1  0.43282829  0.45426543  0.80956175  1
  S  S31  1  0.55816240  0.49064447  0.19661885  1
  S  S32  1  0.92074585  0.48594179  0.99317275  1
  S  S33  1  0.06942685  0.50761075  0.00194216  1
  S  S34  1  0.67344035  0.39616532  0.90140021  1
  S  S35  1  0.33607419  0.48720105  0.10770618  1
  S  S36  1  0.58970993  0.96775476  0.66466415  1
  S  S37  1  0.41231429  0.01487623  0.36644918  1
  S  S38  1  0.23222939  0.47889920  0.28509011  1
  S  S39  1  0.77087385  0.40723622  0.71541346  1
  S  S40  1  0.66638223  0.00023316  0.44991103  1
  S  S41  1  0.32861421  0.01660576  0.54280028  1
