# generated using pymatgen
data_Pr2Mn3(SbS3)4
_symmetry_space_group_name_H-M   'P 1'
_cell_length_a   20.02960800
_cell_length_b   3.90410600
_cell_length_c   14.95364829
_cell_angle_alpha   90.00000000
_cell_angle_beta   126.33350609
_cell_angle_gamma   90.00000000
_symmetry_Int_Tables_number   1
_chemical_formula_structural   Pr2Mn3(SbS3)4
_chemical_formula_sum   'Pr4 Mn6 Sb8 S24'
_cell_volume   942.00006694
_cell_formula_units_Z   2
loop_
 _symmetry_equiv_pos_site_id
 _symmetry_equiv_pos_as_xyz
  1  'x, y, z'
loop_
 _atom_site_type_symbol
 _atom_site_label
 _atom_site_symmetry_multiplicity
 _atom_site_fract_x
 _atom_site_fract_y
 _atom_site_fract_z
 _atom_site_occupancy
  Pr  Pr0  1  0.26761145  0.53020456  0.86664101  1
  Pr  Pr1  1  0.73087361  0.52670958  0.13812086  1
  Pr  Pr2  1  0.76605958  0.95464297  0.88063697  1
  Pr  Pr3  1  0.24205206  0.98226092  0.14713714  1
  Mn  Mn4  1  0.28241982  0.52249749  0.58945106  1
  Mn  Mn5  1  0.69629495  0.45259371  0.37478450  1
  Mn  Mn6  1  0.00304414  0.00893694  0.00774055  1
  Mn  Mn7  1  0.79214144  0.98039408  0.59858842  1
  Mn  Mn8  1  0.19408899  0.93404068  0.40566198  1
  Mn  Mn9  1  0.49518626  0.50344057  0.00226918  1
  Sb  Sb10  1  0.90101209  0.99327323  0.45596095  1
  Sb  Sb11  1  0.10290690  0.01346681  0.54944627  1
  Sb  Sb12  1  0.03435043  0.53051899  0.80939638  1
  Sb  Sb13  1  0.96399198  0.50443076  0.18855357  1
  Sb  Sb14  1  0.38763906  0.48739593  0.44985395  1
  Sb  Sb15  1  0.61567500  0.47216512  0.57133773  1
  Sb  Sb16  1  0.54111569  0.03045754  0.82563464  1
  Sb  Sb17  1  0.45941242  0.01368025  0.19107637  1
  S  S18  1  0.93099277  0.97954813  0.78457891  1
  S  S19  1  0.05755363  0.96130052  0.20097903  1
  S  S20  1  0.41811078  0.97963863  0.98745988  1
  S  S21  1  0.58475236  0.97731446  0.02937027  1
  S  S22  1  0.17183026  0.96251792  0.89178589  1
  S  S23  1  0.82969095  0.00558257  0.12108589  1
  S  S24  1  0.10373915  0.49707501  0.66541913  1
  S  S25  1  0.89474052  0.53868649  0.33644834  1
  S  S26  1  0.74546735  0.99495857  0.30915983  1
  S  S27  1  0.26554798  0.98656055  0.69213833  1
  S  S28  1  0.15986358  0.43997407  0.44355651  1
  S  S29  1  0.82147775  0.48767384  0.53000407  1
  S  S30  1  0.43276502  0.45459558  0.80920694  1
  S  S31  1  0.55802561  0.48954129  0.19648497  1
  S  S32  1  0.92108383  0.48666882  0.99341816  1
  S  S33  1  0.06946183  0.50860277  0.00145350  1
  S  S34  1  0.67379578  0.39661808  0.90158734  1
  S  S35  1  0.33610923  0.48695239  0.10784401  1
  S  S36  1  0.58926347  0.96884785  0.66427503  1
  S  S37  1  0.41288446  0.01400054  0.36671095  1
  S  S38  1  0.23208705  0.47896771  0.28502117  1
  S  S39  1  0.77083984  0.40761149  0.71520946  1
  S  S40  1  0.66630258  0.99914034  0.44946747  1
  S  S41  1  0.32842193  0.01618306  0.54240271  1
