# generated using pymatgen
data_Pr2Mn3(SbS3)4
_symmetry_space_group_name_H-M   'P 1'
_cell_length_a   20.02960800
_cell_length_b   3.90410600
_cell_length_c   14.95364829
_cell_angle_alpha   90.00000000
_cell_angle_beta   126.33350609
_cell_angle_gamma   90.00000000
_symmetry_Int_Tables_number   1
_chemical_formula_structural   Pr2Mn3(SbS3)4
_chemical_formula_sum   'Pr4 Mn6 Sb8 S24'
_cell_volume   942.00006694
_cell_formula_units_Z   2
loop_
 _symmetry_equiv_pos_site_id
 _symmetry_equiv_pos_as_xyz
  1  'x, y, z'
loop_
 _atom_site_type_symbol
 _atom_site_label
 _atom_site_symmetry_multiplicity
 _atom_site_fract_x
 _atom_site_fract_y
 _atom_site_fract_z
 _atom_site_occupancy
  Pr  Pr0  1  0.26774324  0.53031438  0.86680856  1
  Pr  Pr1  1  0.73090671  0.52654673  0.13806613  1
  Pr  Pr2  1  0.76615799  0.95435242  0.88079130  1
  Pr  Pr3  1  0.24196452  0.98291957  0.14712261  1
  Mn  Mn4  1  0.28204551  0.52329930  0.58926088  1
  Mn  Mn5  1  0.69624877  0.45282213  0.37499264  1
  Mn  Mn6  1  0.00304264  0.00943828  0.00765963  1
  Mn  Mn7  1  0.79200877  0.97994243  0.59847314  1
  Mn  Mn8  1  0.19410630  0.93528067  0.40568590  1
  Mn  Mn9  1  0.49511443  0.50238029  0.00213559  1
  Sb  Sb10  1  0.90119652  0.99326707  0.45598056  1
  Sb  Sb11  1  0.10285416  0.01263970  0.54934064  1
  Sb  Sb12  1  0.03429642  0.53009145  0.80961814  1
  Sb  Sb13  1  0.96380551  0.50378553  0.18832743  1
  Sb  Sb14  1  0.38777183  0.48660795  0.44987800  1
  Sb  Sb15  1  0.61574493  0.47217482  0.57146376  1
  Sb  Sb16  1  0.54105080  0.03012532  0.82569156  1
  Sb  Sb17  1  0.45951705  0.01410310  0.19137734  1
  S  S18  1  0.93066683  0.97876781  0.78416126  1
  S  S19  1  0.05780863  0.96000289  0.20088399  1
  S  S20  1  0.41830639  0.97940579  0.98769116  1
  S  S21  1  0.58484827  0.97698178  0.02965725  1
  S  S22  1  0.17198736  0.96209322  0.89187915  1
  S  S23  1  0.82978464  0.00378435  0.12137613  1
  S  S24  1  0.10365805  0.49580352  0.66522969  1
  S  S25  1  0.89442202  0.53858838  0.33646335  1
  S  S26  1  0.74555906  0.99240399  0.30933814  1
  S  S27  1  0.26589350  0.98685774  0.69264694  1
  S  S28  1  0.15962540  0.44052222  0.44305130  1
  S  S29  1  0.82160213  0.48705012  0.53029781  1
  S  S30  1  0.43270589  0.45432094  0.80867363  1
  S  S31  1  0.55788963  0.48824461  0.19637820  1
  S  S32  1  0.92120350  0.48680222  0.99349572  1
  S  S33  1  0.06962714  0.50973239  0.00095361  1
  S  S34  1  0.67413263  0.39716188  0.90185678  1
  S  S35  1  0.33610416  0.48686352  0.10790250  1
  S  S36  1  0.58887932  0.96930023  0.66412811  1
  S  S37  1  0.41340526  0.01367541  0.36679459  1
  S  S38  1  0.23192527  0.47926495  0.28510881  1
  S  S39  1  0.77060046  0.40803144  0.71490150  1
  S  S40  1  0.66616189  0.99828832  0.44902110  1
  S  S41  1  0.32832667  0.01528722  0.54217135  1
