# generated using pymatgen
data_Pr2Mn3(SbS3)4
_symmetry_space_group_name_H-M   'P 1'
_cell_length_a   20.02960800
_cell_length_b   3.90410600
_cell_length_c   14.95364829
_cell_angle_alpha   90.00000000
_cell_angle_beta   126.33350609
_cell_angle_gamma   90.00000000
_symmetry_Int_Tables_number   1
_chemical_formula_structural   Pr2Mn3(SbS3)4
_chemical_formula_sum   'Pr4 Mn6 Sb8 S24'
_cell_volume   942.00006694
_cell_formula_units_Z   2
loop_
 _symmetry_equiv_pos_site_id
 _symmetry_equiv_pos_as_xyz
  1  'x, y, z'
loop_
 _atom_site_type_symbol
 _atom_site_label
 _atom_site_symmetry_multiplicity
 _atom_site_fract_x
 _atom_site_fract_y
 _atom_site_fract_z
 _atom_site_occupancy
  Pr  Pr0  1  0.26789031  0.53041504  0.86704237  1
  Pr  Pr1  1  0.73096241  0.52651094  0.13796371  1
  Pr  Pr2  1  0.76619474  0.95403555  0.88096722  1
  Pr  Pr3  1  0.24191960  0.98334100  0.14717669  1
  Mn  Mn4  1  0.28174892  0.52448734  0.58919573  1
  Mn  Mn5  1  0.69619050  0.45306747  0.37509509  1
  Mn  Mn6  1  0.00312963  0.01009918  0.00769620  1
  Mn  Mn7  1  0.79190651  0.97982318  0.59824490  1
  Mn  Mn8  1  0.19419925  0.93603615  0.40567522  1
  Mn  Mn9  1  0.49506315  0.50119476  0.00209447  1
  Sb  Sb10  1  0.90136107  0.99311105  0.45604129  1
  Sb  Sb11  1  0.10277277  0.01147307  0.54935189  1
  Sb  Sb12  1  0.03430771  0.52999271  0.80983192  1
  Sb  Sb13  1  0.96363783  0.50315950  0.18810153  1
  Sb  Sb14  1  0.38791309  0.48616435  0.44992612  1
  Sb  Sb15  1  0.61583662  0.47233855  0.57161502  1
  Sb  Sb16  1  0.54096265  0.02996049  0.82569870  1
  Sb  Sb17  1  0.45957676  0.01417347  0.19157861  1
  S  S18  1  0.93037438  0.97809994  0.78364614  1
  S  S19  1  0.05814284  0.95899690  0.20064820  1
  S  S20  1  0.41853967  0.97959712  0.98812407  1
  S  S21  1  0.58506391  0.97679477  0.02998856  1
  S  S22  1  0.17206652  0.96114855  0.89185957  1
  S  S23  1  0.82983785  0.00244154  0.12151014  1
  S  S24  1  0.10353542  0.49469959  0.66496576  1
  S  S25  1  0.89427346  0.53817524  0.33671896  1
  S  S26  1  0.74576031  0.99057489  0.30940464  1
  S  S27  1  0.26616239  0.98708258  0.69301617  1
  S  S28  1  0.15942006  0.44120938  0.44248553  1
  S  S29  1  0.82170542  0.48659444  0.53053618  1
  S  S30  1  0.43267265  0.45363967  0.80824887  1
  S  S31  1  0.55749401  0.48700699  0.19597842  1
  S  S32  1  0.92119580  0.48703159  0.99348568  1
  S  S33  1  0.06980240  0.51088828  0.00066879  1
  S  S34  1  0.67440109  0.39724585  0.90200446  1
  S  S35  1  0.33605733  0.48657003  0.10764262  1
  S  S36  1  0.58860191  0.97021683  0.66419556  1
  S  S37  1  0.41392155  0.01360385  0.36684430  1
  S  S38  1  0.23188271  0.47971452  0.28533007  1
  S  S39  1  0.77033799  0.40879554  0.71467073  1
  S  S40  1  0.66599073  0.99725690  0.44833375  1
  S  S41  1  0.32838832  0.01481456  0.54205030  1
