# generated using pymatgen
data_Pr2Mn3(SbS3)4
_symmetry_space_group_name_H-M   'P 1'
_cell_length_a   20.02960800
_cell_length_b   3.90410600
_cell_length_c   14.95364829
_cell_angle_alpha   90.00000000
_cell_angle_beta   126.33350609
_cell_angle_gamma   90.00000000
_symmetry_Int_Tables_number   1
_chemical_formula_structural   Pr2Mn3(SbS3)4
_chemical_formula_sum   'Pr4 Mn6 Sb8 S24'
_cell_volume   942.00006694
_cell_formula_units_Z   2
loop_
 _symmetry_equiv_pos_site_id
 _symmetry_equiv_pos_as_xyz
  1  'x, y, z'
loop_
 _atom_site_type_symbol
 _atom_site_label
 _atom_site_symmetry_multiplicity
 _atom_site_fract_x
 _atom_site_fract_y
 _atom_site_fract_z
 _atom_site_occupancy
  Pr  Pr0  1  0.26797192  0.53054341  0.86726205  1
  Pr  Pr1  1  0.73105775  0.52636814  0.13790061  1
  Pr  Pr2  1  0.76621818  0.95375765  0.88100693  1
  Pr  Pr3  1  0.24185076  0.98390629  0.14723816  1
  Mn  Mn4  1  0.28155231  0.52585853  0.58929594  1
  Mn  Mn5  1  0.69616255  0.45370660  0.37519020  1
  Mn  Mn6  1  0.00318672  0.01093458  0.00769258  1
  Mn  Mn7  1  0.79184050  0.97998994  0.59813903  1
  Mn  Mn8  1  0.19418261  0.93638295  0.40553944  1
  Mn  Mn9  1  0.49507756  0.50020557  0.00210126  1
  Sb  Sb10  1  0.90153897  0.99283786  0.45616500  1
  Sb  Sb11  1  0.10272274  0.01008178  0.54936620  1
  Sb  Sb12  1  0.03434014  0.52966430  0.81009315  1
  Sb  Sb13  1  0.96350871  0.50284078  0.18782567  1
  Sb  Sb14  1  0.38799758  0.48580276  0.44997943  1
  Sb  Sb15  1  0.61586402  0.47269045  0.57173073  1
  Sb  Sb16  1  0.54086218  0.02966826  0.82568819  1
  Sb  Sb17  1  0.45955270  0.01413411  0.19164029  1
  S  S18  1  0.93025944  0.97755946  0.78338445  1
  S  S19  1  0.05842945  0.95767602  0.20039788  1
  S  S20  1  0.41866469  0.98016238  0.98851985  1
  S  S21  1  0.58520936  0.97691967  0.03021533  1
  S  S22  1  0.17212918  0.96053578  0.89183067  1
  S  S23  1  0.83002973  0.00126709  0.12182329  1
  S  S24  1  0.10340248  0.49353089  0.66474750  1
  S  S25  1  0.89420292  0.53773832  0.33678402  1
  S  S26  1  0.74581897  0.98925688  0.30921602  1
  S  S27  1  0.26640035  0.98787084  0.69325276  1
  S  S28  1  0.15915812  0.44193314  0.44194876  1
  S  S29  1  0.82185047  0.48624047  0.53084584  1
  S  S30  1  0.43270166  0.45312171  0.80801975  1
  S  S31  1  0.55700367  0.48474299  0.19565581  1
  S  S32  1  0.92120343  0.48767463  0.99354127  1
  S  S33  1  0.06988952  0.51179248  0.00037048  1
  S  S34  1  0.67465613  0.39743136  0.90210452  1
  S  S35  1  0.33603473  0.48626167  0.10737562  1
  S  S36  1  0.58835828  0.97124461  0.66436512  1
  S  S37  1  0.41429114  0.01332516  0.36681638  1
  S  S38  1  0.23176687  0.47970724  0.28554067  1
  S  S39  1  0.76990283  0.40972302  0.71421746  1
  S  S40  1  0.66556260  0.99641573  0.44738539  1
  S  S41  1  0.32867997  0.01375239  0.54203414  1
