# generated using pymatgen
data_Pr2Mn3(SbS3)4
_symmetry_space_group_name_H-M   'P 1'
_cell_length_a   20.02960800
_cell_length_b   3.90410600
_cell_length_c   14.95364829
_cell_angle_alpha   90.00000000
_cell_angle_beta   126.33350609
_cell_angle_gamma   90.00000000
_symmetry_Int_Tables_number   1
_chemical_formula_structural   Pr2Mn3(SbS3)4
_chemical_formula_sum   'Pr4 Mn6 Sb8 S24'
_cell_volume   942.00006694
_cell_formula_units_Z   2
loop_
 _symmetry_equiv_pos_site_id
 _symmetry_equiv_pos_as_xyz
  1  'x, y, z'
loop_
 _atom_site_type_symbol
 _atom_site_label
 _atom_site_symmetry_multiplicity
 _atom_site_fract_x
 _atom_site_fract_y
 _atom_site_fract_z
 _atom_site_occupancy
  Pr  Pr0  1  0.26809094  0.53061711  0.86757176  1
  Pr  Pr1  1  0.73114333  0.52623651  0.13786114  1
  Pr  Pr2  1  0.76619493  0.95341160  0.88106319  1
  Pr  Pr3  1  0.24170294  0.98443610  0.14717636  1
  Mn  Mn4  1  0.28134324  0.52757699  0.58933072  1
  Mn  Mn5  1  0.69616322  0.45398513  0.37541634  1
  Mn  Mn6  1  0.00319484  0.01093326  0.00755561  1
  Mn  Mn7  1  0.79168665  0.97962175  0.59800183  1
  Mn  Mn8  1  0.19413829  0.93703032  0.40538420  1
  Mn  Mn9  1  0.49517452  0.49961397  0.00210145  1
  Sb  Sb10  1  0.90175968  0.99249023  0.45625911  1
  Sb  Sb11  1  0.10255785  0.00919094  0.54923608  1
  Sb  Sb12  1  0.03435389  0.52909754  0.81035616  1
  Sb  Sb13  1  0.96326255  0.50239233  0.18746726  1
  Sb  Sb14  1  0.38813720  0.48567333  0.45010489  1
  Sb  Sb15  1  0.61592656  0.47277686  0.57187487  1
  Sb  Sb16  1  0.54081796  0.02965081  0.82568388  1
  Sb  Sb17  1  0.45952756  0.01401278  0.19179235  1
  S  S18  1  0.93019850  0.97778968  0.78333097  1
  S  S19  1  0.05880276  0.95591007  0.20024872  1
  S  S20  1  0.41885580  0.98061830  0.98901789  1
  S  S21  1  0.58537793  0.97646180  0.03047328  1
  S  S22  1  0.17234870  0.95960219  0.89183424  1
  S  S23  1  0.83027471  0.99905573  0.12229151  1
  S  S24  1  0.10328838  0.49180368  0.66468981  1
  S  S25  1  0.89416174  0.53722117  0.33700943  1
  S  S26  1  0.74595997  0.98874737  0.30915138  1
  S  S27  1  0.26664909  0.98827449  0.69344529  1
  S  S28  1  0.15896402  0.44260781  0.44142098  1
  S  S29  1  0.82210586  0.48541466  0.53120418  1
  S  S30  1  0.43272311  0.45234996  0.80776124  1
  S  S31  1  0.55644766  0.48305815  0.19528326  1
  S  S32  1  0.92118905  0.48899252  0.99354002  1
  S  S33  1  0.07003757  0.51277005  0.00009031  1
  S  S34  1  0.67505641  0.39725728  0.90234091  1
  S  S35  1  0.33597531  0.48565259  0.10713223  1
  S  S36  1  0.58812610  0.97172457  0.66441588  1
  S  S37  1  0.41459739  0.01311411  0.36687904  1
  S  S38  1  0.23181139  0.47955732  0.28603469  1
  S  S39  1  0.76951280  0.41025947  0.71398888  1
  S  S40  1  0.66512611  0.99608223  0.44660451  1
  S  S41  1  0.32890609  0.01258948  0.54196915  1
