# generated using pymatgen
data_Pr2Mn3(SbS3)4
_symmetry_space_group_name_H-M   'P 1'
_cell_length_a   20.02960800
_cell_length_b   3.90410600
_cell_length_c   14.95364829
_cell_angle_alpha   90.00000000
_cell_angle_beta   126.33350609
_cell_angle_gamma   90.00000000
_symmetry_Int_Tables_number   1
_chemical_formula_structural   Pr2Mn3(SbS3)4
_chemical_formula_sum   'Pr4 Mn6 Sb8 S24'
_cell_volume   942.00006694
_cell_formula_units_Z   2
loop_
 _symmetry_equiv_pos_site_id
 _symmetry_equiv_pos_as_xyz
  1  'x, y, z'
loop_
 _atom_site_type_symbol
 _atom_site_label
 _atom_site_symmetry_multiplicity
 _atom_site_fract_x
 _atom_site_fract_y
 _atom_site_fract_z
 _atom_site_occupancy
  Pr  Pr0  1  0.26673358  0.49893128  0.86445990  1
  Pr  Pr1  1  0.73507004  0.51030907  0.13510249  1
  Pr  Pr2  1  0.76346910  0.01521350  0.86122645  1
  Pr  Pr3  1  0.23467346  0.99632175  0.13399660  1
  Mn  Mn4  1  0.28987037  0.47722633  0.59047440  1
  Mn  Mn5  1  0.68562972  0.47067968  0.36568366  1
  Mn  Mn6  1  0.00827646  0.99504072  0.01874732  1
  Mn  Mn7  1  0.80387153  0.01462521  0.61931532  1
  Mn  Mn8  1  0.19814779  0.97348802  0.37307691  1
  Mn  Mn9  1  0.49088608  0.47076528  0.99027448  1
  Sb  Sb10  1  0.89100700  0.98413215  0.45218497  1
  Sb  Sb11  1  0.11148632  0.98117852  0.54457747  1
  Sb  Sb12  1  0.03687839  0.51916139  0.82013477  1
  Sb  Sb13  1  0.96376590  0.50084942  0.18626160  1
  Sb  Sb14  1  0.39517656  0.49745800  0.45100792  1
  Sb  Sb15  1  0.60633070  0.46628188  0.54932826  1
  Sb  Sb16  1  0.53402583  0.99228189  0.80831306  1
  Sb  Sb17  1  0.46565114  0.02312514  0.19139185  1
  S  S18  1  0.93884169  0.00963569  0.81090567  1
  S  S19  1  0.06406981  0.97615263  0.19959459  1
  S  S20  1  0.42042751  0.95864807  0.98638965  1
  S  S21  1  0.58305358  0.03211701  0.01553173  1
  S  S22  1  0.17279103  0.05840413  0.90364702  1
  S  S23  1  0.82962295  0.05002529  0.10176859  1
  S  S24  1  0.09420906  0.48552374  0.64839355  1
  S  S25  1  0.91492246  0.49079872  0.35757596  1
  S  S26  1  0.73540201  0.95799347  0.29853211  1
  S  S27  1  0.26199924  0.00908175  0.70820933  1
  S  S28  1  0.16048901  0.51479122  0.42699982  1
  S  S29  1  0.82308610  0.48804074  0.55100672  1
  S  S30  1  0.42905416  0.48880420  0.79634035  1
  S  S31  1  0.55198623  0.52576420  0.18017841  1
  S  S32  1  0.91409688  0.48709449  0.98851587  1
  S  S33  1  0.09150327  0.50104254  0.03298879  1
  S  S34  1  0.66289809  0.53104077  0.88717529  1
  S  S35  1  0.32964419  0.51026636  0.09724786  1
  S  S36  1  0.60048922  0.00048340  0.65933921  1
  S  S37  1  0.40149219  0.98232509  0.34188049  1
  S  S38  1  0.23994147  0.47349916  0.31231417  1
  S  S39  1  0.76208245  0.51322133  0.69145541  1
  S  S40  1  0.66553939  0.02104024  0.44856367  1
  S  S41  1  0.33064895  0.97487242  0.55728996  1
