# generated using pymatgen
data_Pr2Mn3(SbS3)4
_symmetry_space_group_name_H-M   'P 1'
_cell_length_a   20.02960800
_cell_length_b   3.90410600
_cell_length_c   14.95364829
_cell_angle_alpha   90.00000000
_cell_angle_beta   126.33350609
_cell_angle_gamma   90.00000000
_symmetry_Int_Tables_number   1
_chemical_formula_structural   Pr2Mn3(SbS3)4
_chemical_formula_sum   'Pr4 Mn6 Sb8 S24'
_cell_volume   942.00006694
_cell_formula_units_Z   2
loop_
 _symmetry_equiv_pos_site_id
 _symmetry_equiv_pos_as_xyz
  1  'x, y, z'
loop_
 _atom_site_type_symbol
 _atom_site_label
 _atom_site_symmetry_multiplicity
 _atom_site_fract_x
 _atom_site_fract_y
 _atom_site_fract_z
 _atom_site_occupancy
  Pr  Pr0  1  0.26819288  0.53085657  0.86779866  1
  Pr  Pr1  1  0.73122571  0.52599645  0.13771392  1
  Pr  Pr2  1  0.76619220  0.95324812  0.88114204  1
  Pr  Pr3  1  0.24157608  0.98511461  0.14712061  1
  Mn  Mn4  1  0.28112803  0.52936297  0.58927894  1
  Mn  Mn5  1  0.69621364  0.45394519  0.37567993  1
  Mn  Mn6  1  0.00304082  0.01046029  0.00715235  1
  Mn  Mn7  1  0.79148307  0.97899477  0.59773977  1
  Mn  Mn8  1  0.19414138  0.93760818  0.40531146  1
  Mn  Mn9  1  0.49529313  0.49909599  0.00208139  1
  Sb  Sb10  1  0.90194069  0.99218934  0.45633998  1
  Sb  Sb11  1  0.10248144  0.00835040  0.54922464  1
  Sb  Sb12  1  0.03438152  0.52828724  0.81055048  1
  Sb  Sb13  1  0.96305881  0.50200247  0.18717183  1
  Sb  Sb14  1  0.38828389  0.48603197  0.45009256  1
  Sb  Sb15  1  0.61597559  0.47283311  0.57196906  1
  Sb  Sb16  1  0.54077321  0.02940693  0.82574434  1
  Sb  Sb17  1  0.45948381  0.01367811  0.19188724  1
  S  S18  1  0.93019541  0.97811403  0.78331737  1
  S  S19  1  0.05919715  0.95372720  0.20015757  1
  S  S20  1  0.41912951  0.98118428  0.98958723  1
  S  S21  1  0.58567912  0.97599819  0.03088956  1
  S  S22  1  0.17243722  0.95843275  0.89168625  1
  S  S23  1  0.83065559  0.99662994  0.12268897  1
  S  S24  1  0.10316301  0.49035940  0.66461298  1
  S  S25  1  0.89414779  0.53652991  0.33729599  1
  S  S26  1  0.74607259  0.98823491  0.30911225  1
  S  S27  1  0.26683756  0.98897624  0.69352761  1
  S  S28  1  0.15885570  0.44273901  0.44091909  1
  S  S29  1  0.82238708  0.48447139  0.53146244  1
  S  S30  1  0.43273861  0.45101914  0.80761083  1
  S  S31  1  0.55605215  0.48097750  0.19490569  1
  S  S32  1  0.92112946  0.49028154  0.99351571  1
  S  S33  1  0.07019659  0.51379378  0.99992400  1
  S  S34  1  0.67544356  0.39809071  0.90269096  1
  S  S35  1  0.33605883  0.48489633  0.10688196  1
  S  S36  1  0.58796431  0.97236666  0.66448189  1
  S  S37  1  0.41474048  0.01299044  0.36704340  1
  S  S38  1  0.23192929  0.47960487  0.28659624  1
  S  S39  1  0.76914649  0.41109180  0.71370861  1
  S  S40  1  0.66476935  0.99589001  0.44604692  1
  S  S41  1  0.32916307  0.01142931  0.54211459  1
