# generated using pymatgen
data_Pr2Mn3(SbS3)4
_symmetry_space_group_name_H-M   'P 1'
_cell_length_a   20.02960800
_cell_length_b   3.90410600
_cell_length_c   14.95364829
_cell_angle_alpha   90.00000000
_cell_angle_beta   126.33350609
_cell_angle_gamma   90.00000000
_symmetry_Int_Tables_number   1
_chemical_formula_structural   Pr2Mn3(SbS3)4
_chemical_formula_sum   'Pr4 Mn6 Sb8 S24'
_cell_volume   942.00006694
_cell_formula_units_Z   2
loop_
 _symmetry_equiv_pos_site_id
 _symmetry_equiv_pos_as_xyz
  1  'x, y, z'
loop_
 _atom_site_type_symbol
 _atom_site_label
 _atom_site_symmetry_multiplicity
 _atom_site_fract_x
 _atom_site_fract_y
 _atom_site_fract_z
 _atom_site_occupancy
  Pr  Pr0  1  0.26824365  0.53102986  0.86800851  1
  Pr  Pr1  1  0.73127933  0.52605459  0.13762175  1
  Pr  Pr2  1  0.76619314  0.95290983  0.88125644  1
  Pr  Pr3  1  0.24145910  0.98564439  0.14699041  1
  Mn  Mn4  1  0.28083028  0.53100055  0.58906561  1
  Mn  Mn5  1  0.69622890  0.45419377  0.37578391  1
  Mn  Mn6  1  0.00294853  0.00964538  0.00685975  1
  Mn  Mn7  1  0.79131872  0.97838983  0.59752956  1
  Mn  Mn8  1  0.19407160  0.93785935  0.40515287  1
  Mn  Mn9  1  0.49542357  0.49820348  0.00208956  1
  Sb  Sb10  1  0.90208548  0.99177065  0.45632064  1
  Sb  Sb11  1  0.10243776  0.00743335  0.54923558  1
  Sb  Sb12  1  0.03438785  0.52771988  0.81063943  1
  Sb  Sb13  1  0.96285662  0.50152152  0.18690982  1
  Sb  Sb14  1  0.38839389  0.48623323  0.45009829  1
  Sb  Sb15  1  0.61598764  0.47299378  0.57198074  1
  Sb  Sb16  1  0.54079131  0.02919065  0.82584333  1
  Sb  Sb17  1  0.45940624  0.01350262  0.19184629  1
  S  S18  1  0.93032748  0.97824259  0.78338695  1
  S  S19  1  0.05954271  0.95084940  0.19995430  1
  S  S20  1  0.41953067  0.98113686  0.99021690  1
  S  S21  1  0.58602047  0.97601671  0.03112333  1
  S  S22  1  0.17245328  0.95712400  0.89131545  1
  S  S23  1  0.83107931  0.99415486  0.12306597  1
  S  S24  1  0.10299256  0.48921520  0.66443520  1
  S  S25  1  0.89420122  0.53595520  0.33769961  1
  S  S26  1  0.74618903  0.98791888  0.30908400  1
  S  S27  1  0.26707501  0.98911283  0.69361888  1
  S  S28  1  0.15867517  0.44277783  0.44037078  1
  S  S29  1  0.82286382  0.48416600  0.53181940  1
  S  S30  1  0.43264480  0.44978316  0.80736646  1
  S  S31  1  0.55573289  0.47829361  0.19451264  1
  S  S32  1  0.92099382  0.49179342  0.99337820  1
  S  S33  1  0.07041398  0.51518934  0.99987917  1
  S  S34  1  0.67586261  0.39944259  0.90320663  1
  S  S35  1  0.33600517  0.48444279  0.10668634  1
  S  S36  1  0.58776982  0.97313402  0.66448181  1
  S  S37  1  0.41485485  0.01355762  0.36727965  1
  S  S38  1  0.23218301  0.48027023  0.28720964  1
  S  S39  1  0.76879022  0.41155618  0.71341075  1
  S  S40  1  0.66422301  0.99555453  0.44551160  1
  S  S41  1  0.32949893  0.01064282  0.54246627  1
