# generated using pymatgen
data_Pr2Mn3(SbS3)4
_symmetry_space_group_name_H-M   'P 1'
_cell_length_a   20.02960800
_cell_length_b   3.90410600
_cell_length_c   14.95364829
_cell_angle_alpha   90.00000000
_cell_angle_beta   126.33350609
_cell_angle_gamma   90.00000000
_symmetry_Int_Tables_number   1
_chemical_formula_structural   Pr2Mn3(SbS3)4
_chemical_formula_sum   'Pr4 Mn6 Sb8 S24'
_cell_volume   942.00006694
_cell_formula_units_Z   2
loop_
 _symmetry_equiv_pos_site_id
 _symmetry_equiv_pos_as_xyz
  1  'x, y, z'
loop_
 _atom_site_type_symbol
 _atom_site_label
 _atom_site_symmetry_multiplicity
 _atom_site_fract_x
 _atom_site_fract_y
 _atom_site_fract_z
 _atom_site_occupancy
  Pr  Pr0  1  0.26821200  0.53123281  0.86813852  1
  Pr  Pr1  1  0.73138766  0.52622969  0.13763048  1
  Pr  Pr2  1  0.76622090  0.95251933  0.88142514  1
  Pr  Pr3  1  0.24137985  0.98649854  0.14687744  1
  Mn  Mn4  1  0.28050389  0.53261734  0.58876433  1
  Mn  Mn5  1  0.69629485  0.45464925  0.37584896  1
  Mn  Mn6  1  0.00278595  0.00877879  0.00645918  1
  Mn  Mn7  1  0.79128269  0.97770070  0.59742860  1
  Mn  Mn8  1  0.19389716  0.93831691  0.40484729  1
  Mn  Mn9  1  0.49555392  0.49785900  0.00210028  1
  Sb  Sb10  1  0.90222648  0.99169043  0.45627534  1
  Sb  Sb11  1  0.10238795  0.00675153  0.54929495  1
  Sb  Sb12  1  0.03449699  0.52725395  0.81089532  1
  Sb  Sb13  1  0.96259865  0.50115676  0.18666428  1
  Sb  Sb14  1  0.38852135  0.48635599  0.45021146  1
  Sb  Sb15  1  0.61595434  0.47300050  0.57192056  1
  Sb  Sb16  1  0.54074540  0.02927919  0.82589508  1
  Sb  Sb17  1  0.45943591  0.01334473  0.19182654  1
  S  S18  1  0.93040761  0.97783178  0.78348431  1
  S  S19  1  0.05953667  0.94906075  0.19944415  1
  S  S20  1  0.42001293  0.98079536  0.99097260  1
  S  S21  1  0.58618260  0.97569335  0.03122307  1
  S  S22  1  0.17255524  0.95599591  0.89102206  1
  S  S23  1  0.83141916  0.99185735  0.12348321  1
  S  S24  1  0.10280301  0.48868393  0.66422669  1
  S  S25  1  0.89434590  0.53601158  0.33822933  1
  S  S26  1  0.74634935  0.98765526  0.30925486  1
  S  S27  1  0.26738397  0.98900972  0.69367290  1
  S  S28  1  0.15857368  0.44265572  0.43998885  1
  S  S29  1  0.82334839  0.48312737  0.53221927  1
  S  S30  1  0.43246975  0.44838048  0.80711035  1
  S  S31  1  0.55537108  0.47559967  0.19425489  1
  S  S32  1  0.92083439  0.49294198  0.99310578  1
  S  S33  1  0.07063447  0.51592093  0.99989395  1
  S  S34  1  0.67612476  0.40143272  0.90358870  1
  S  S35  1  0.33600869  0.48414577  0.10672107  1
  S  S36  1  0.58746342  0.97388509  0.66423917  1
  S  S37  1  0.41476164  0.01401177  0.36736259  1
  S  S38  1  0.23246178  0.48100657  0.28791933  1
  S  S39  1  0.76852264  0.41161549  0.71301033  1
  S  S40  1  0.66370904  0.99558519  0.44494416  1
  S  S41  1  0.32964862  0.01020828  0.54283129  1
