# generated using pymatgen
data_Pr2Mn3(SbS3)4
_symmetry_space_group_name_H-M   'P 1'
_cell_length_a   20.02960800
_cell_length_b   3.90410600
_cell_length_c   14.95364829
_cell_angle_alpha   90.00000000
_cell_angle_beta   126.33350609
_cell_angle_gamma   90.00000000
_symmetry_Int_Tables_number   1
_chemical_formula_structural   Pr2Mn3(SbS3)4
_chemical_formula_sum   'Pr4 Mn6 Sb8 S24'
_cell_volume   942.00006694
_cell_formula_units_Z   2
loop_
 _symmetry_equiv_pos_site_id
 _symmetry_equiv_pos_as_xyz
  1  'x, y, z'
loop_
 _atom_site_type_symbol
 _atom_site_label
 _atom_site_symmetry_multiplicity
 _atom_site_fract_x
 _atom_site_fract_y
 _atom_site_fract_z
 _atom_site_occupancy
  Pr  Pr0  1  0.26819608  0.53151607  0.86822338  1
  Pr  Pr1  1  0.73147657  0.52632952  0.13762061  1
  Pr  Pr2  1  0.76627876  0.95185799  0.88163254  1
  Pr  Pr3  1  0.24134811  0.98728845  0.14681493  1
  Mn  Mn4  1  0.28018347  0.53438406  0.58848700  1
  Mn  Mn5  1  0.69634821  0.45508681  0.37592549  1
  Mn  Mn6  1  0.00268153  0.00809620  0.00615294  1
  Mn  Mn7  1  0.79127704  0.97691930  0.59721504  1
  Mn  Mn8  1  0.19379981  0.93844676  0.40453273  1
  Mn  Mn9  1  0.49550976  0.49800566  0.00202555  1
  Sb  Sb10  1  0.90234297  0.99193701  0.45615241  1
  Sb  Sb11  1  0.10233595  0.00617557  0.54940856  1
  Sb  Sb12  1  0.03458606  0.52705520  0.81110320  1
  Sb  Sb13  1  0.96229464  0.50084690  0.18639902  1
  Sb  Sb14  1  0.38865598  0.48663809  0.45038827  1
  Sb  Sb15  1  0.61585559  0.47339721  0.57181752  1
  Sb  Sb16  1  0.54068901  0.02925511  0.82597353  1
  Sb  Sb17  1  0.45940458  0.01310404  0.19174012  1
  S  S18  1  0.93055306  0.97722831  0.78358502  1
  S  S19  1  0.05933995  0.94755057  0.19883246  1
  S  S20  1  0.42038570  0.97987175  0.99154584  1
  S  S21  1  0.58628213  0.97600480  0.03112936  1
  S  S22  1  0.17257200  0.95539498  0.89075537  1
  S  S23  1  0.83174335  0.98922529  0.12387617  1
  S  S24  1  0.10274701  0.48870474  0.66433943  1
  S  S25  1  0.89440261  0.53579863  0.33879557  1
  S  S26  1  0.74654465  0.98628633  0.30937868  1
  S  S27  1  0.26766919  0.98857181  0.69373111  1
  S  S28  1  0.15849227  0.44230772  0.43979193  1
  S  S29  1  0.82384179  0.48200345  0.53271072  1
  S  S30  1  0.43219275  0.44708604  0.80679282  1
  S  S31  1  0.55505121  0.47258079  0.19414997  1
  S  S32  1  0.92055548  0.49387908  0.99273920  1
  S  S33  1  0.07097517  0.51686884  0.99979003  1
  S  S34  1  0.67632623  0.40456309  0.90391044  1
  S  S35  1  0.33596526  0.48383583  0.10668711  1
  S  S36  1  0.58706595  0.97474087  0.66403823  1
  S  S37  1  0.41466117  0.01405096  0.36722044  1
  S  S38  1  0.23284319  0.48150623  0.28860839  1
  S  S39  1  0.76843590  0.41212566  0.71273941  1
  S  S40  1  0.66319735  0.99599467  0.44457079  1
  S  S41  1  0.32965189  0.00975730  0.54295375  1
