# generated using pymatgen
data_Pr2Mn3(SbS3)4
_symmetry_space_group_name_H-M   'P 1'
_cell_length_a   20.02960800
_cell_length_b   3.90410600
_cell_length_c   14.95364829
_cell_angle_alpha   90.00000000
_cell_angle_beta   126.33350609
_cell_angle_gamma   90.00000000
_symmetry_Int_Tables_number   1
_chemical_formula_structural   Pr2Mn3(SbS3)4
_chemical_formula_sum   'Pr4 Mn6 Sb8 S24'
_cell_volume   942.00006694
_cell_formula_units_Z   2
loop_
 _symmetry_equiv_pos_site_id
 _symmetry_equiv_pos_as_xyz
  1  'x, y, z'
loop_
 _atom_site_type_symbol
 _atom_site_label
 _atom_site_symmetry_multiplicity
 _atom_site_fract_x
 _atom_site_fract_y
 _atom_site_fract_z
 _atom_site_occupancy
  Pr  Pr0  1  0.26811490  0.53217852  0.86826769  1
  Pr  Pr1  1  0.73152521  0.52635887  0.13765422  1
  Pr  Pr2  1  0.76635499  0.95109020  0.88185786  1
  Pr  Pr3  1  0.24137964  0.98818551  0.14683510  1
  Mn  Mn4  1  0.27989235  0.53593589  0.58810696  1
  Mn  Mn5  1  0.69641824  0.45547038  0.37604826  1
  Mn  Mn6  1  0.00257802  0.00767687  0.00578088  1
  Mn  Mn7  1  0.79128903  0.97645875  0.59693815  1
  Mn  Mn8  1  0.19367271  0.93847243  0.40428759  1
  Mn  Mn9  1  0.49562406  0.49836473  0.00201512  1
  Sb  Sb10  1  0.90250333  0.99249038  0.45614594  1
  Sb  Sb11  1  0.10228398  0.00558082  0.54954300  1
  Sb  Sb12  1  0.03464815  0.52647496  0.81128093  1
  Sb  Sb13  1  0.96196987  0.50061590  0.18619245  1
  Sb  Sb14  1  0.38881766  0.48681873  0.45059217  1
  Sb  Sb15  1  0.61578784  0.47396356  0.57177840  1
  Sb  Sb16  1  0.54074656  0.02958467  0.82621396  1
  Sb  Sb17  1  0.45940031  0.01298395  0.19158592  1
  S  S18  1  0.93081476  0.97641511  0.78369983  1
  S  S19  1  0.05898172  0.94741847  0.19805469  1
  S  S20  1  0.42076547  0.97904844  0.99203936  1
  S  S21  1  0.58633123  0.97633455  0.03110341  1
  S  S22  1  0.17260113  0.95463153  0.89053492  1
  S  S23  1  0.83193054  0.98679862  0.12416067  1
  S  S24  1  0.10271900  0.48851972  0.66455492  1
  S  S25  1  0.89455173  0.53542782  0.33931152  1
  S  S26  1  0.74695530  0.98527310  0.30947273  1
  S  S27  1  0.26785935  0.98830983  0.69374681  1
  S  S28  1  0.15847989  0.44207233  0.43951636  1
  S  S29  1  0.82428879  0.48046920  0.53326511  1
  S  S30  1  0.43197074  0.44593337  0.80672237  1
  S  S31  1  0.55488560  0.46967011  0.19417694  1
  S  S32  1  0.92039166  0.49434886  0.99252760  1
  S  S33  1  0.07134810  0.51782674  0.99976996  1
  S  S34  1  0.67633447  0.40798241  0.90412726  1
  S  S35  1  0.33593867  0.48324649  0.10658602  1
  S  S36  1  0.58675676  0.97568062  0.66394704  1
  S  S37  1  0.41453593  0.01509455  0.36726883  1
  S  S38  1  0.23318912  0.48184867  0.28919346  1
  S  S39  1  0.76841256  0.41246533  0.71223048  1
  S  S40  1  0.66264429  0.99529159  0.44421984  1
  S  S41  1  0.32964039  0.00954686  0.54303223  1
