# generated using pymatgen
data_Pr2Mn3(SbS3)4
_symmetry_space_group_name_H-M   'P 1'
_cell_length_a   20.02960800
_cell_length_b   3.90410600
_cell_length_c   14.95364829
_cell_angle_alpha   90.00000000
_cell_angle_beta   126.33350609
_cell_angle_gamma   90.00000000
_symmetry_Int_Tables_number   1
_chemical_formula_structural   Pr2Mn3(SbS3)4
_chemical_formula_sum   'Pr4 Mn6 Sb8 S24'
_cell_volume   942.00006694
_cell_formula_units_Z   2
loop_
 _symmetry_equiv_pos_site_id
 _symmetry_equiv_pos_as_xyz
  1  'x, y, z'
loop_
 _atom_site_type_symbol
 _atom_site_label
 _atom_site_symmetry_multiplicity
 _atom_site_fract_x
 _atom_site_fract_y
 _atom_site_fract_z
 _atom_site_occupancy
  Pr  Pr0  1  0.26804566  0.53307817  0.86826727  1
  Pr  Pr1  1  0.73149872  0.52641342  0.13766348  1
  Pr  Pr2  1  0.76629782  0.95022608  0.88197053  1
  Pr  Pr3  1  0.24140829  0.98891880  0.14685958  1
  Mn  Mn4  1  0.27956869  0.53724234  0.58780119  1
  Mn  Mn5  1  0.69650467  0.45583271  0.37610561  1
  Mn  Mn6  1  0.00251101  0.00731270  0.00552908  1
  Mn  Mn7  1  0.79118396  0.97601573  0.59666801  1
  Mn  Mn8  1  0.19357005  0.93863240  0.40408502  1
  Mn  Mn9  1  0.49570789  0.49900311  0.00201458  1
  Sb  Sb10  1  0.90263443  0.99299485  0.45618368  1
  Sb  Sb11  1  0.10209951  0.00506352  0.54951177  1
  Sb  Sb12  1  0.03471704  0.52644381  0.81145394  1
  Sb  Sb13  1  0.96160113  0.50032626  0.18585902  1
  Sb  Sb14  1  0.38898084  0.48742363  0.45082133  1
  Sb  Sb15  1  0.61571345  0.47415574  0.57174358  1
  Sb  Sb16  1  0.54071371  0.02938416  0.82639558  1
  Sb  Sb17  1  0.45935772  0.01320446  0.19136745  1
  S  S18  1  0.93112910  0.97639704  0.78396866  1
  S  S19  1  0.05865006  0.94690229  0.19713475  1
  S  S20  1  0.42098304  0.97789118  0.99232809  1
  S  S21  1  0.58633224  0.97703254  0.03109998  1
  S  S22  1  0.17271305  0.95415702  0.89030221  1
  S  S23  1  0.83211866  0.98432415  0.12441407  1
  S  S24  1  0.10257691  0.48914542  0.66491652  1
  S  S25  1  0.89471702  0.53489503  0.33958780  1
  S  S26  1  0.74742049  0.98495499  0.30955889  1
  S  S27  1  0.26786985  0.98775816  0.69379383  1
  S  S28  1  0.15835963  0.44185497  0.43921634  1
  S  S29  1  0.82475251  0.47861019  0.53388240  1
  S  S30  1  0.43180446  0.44440668  0.80684028  1
  S  S31  1  0.55477539  0.46644982  0.19427477  1
  S  S32  1  0.92037874  0.49538295  0.99245066  1
  S  S33  1  0.07182503  0.51852594  0.99979027  1
  S  S34  1  0.67609202  0.41122314  0.90417783  1
  S  S35  1  0.33552377  0.48241809  0.10626650  1
  S  S36  1  0.58644258  0.97673484  0.66371484  1
  S  S37  1  0.41440584  0.01608446  0.36710282  1
  S  S38  1  0.23342230  0.48189944  0.28961531  1
  S  S39  1  0.76846772  0.41246734  0.71200767  1
  S  S40  1  0.66196114  0.99412534  0.44368152  1
  S  S41  1  0.32954230  0.00941573  0.54318255  1
