# generated using pymatgen
data_Pr2Mn3(SbS3)4
_symmetry_space_group_name_H-M   'P 1'
_cell_length_a   20.02960800
_cell_length_b   3.90410600
_cell_length_c   14.95364829
_cell_angle_alpha   90.00000000
_cell_angle_beta   126.33350609
_cell_angle_gamma   90.00000000
_symmetry_Int_Tables_number   1
_chemical_formula_structural   Pr2Mn3(SbS3)4
_chemical_formula_sum   'Pr4 Mn6 Sb8 S24'
_cell_volume   942.00006694
_cell_formula_units_Z   2
loop_
 _symmetry_equiv_pos_site_id
 _symmetry_equiv_pos_as_xyz
  1  'x, y, z'
loop_
 _atom_site_type_symbol
 _atom_site_label
 _atom_site_symmetry_multiplicity
 _atom_site_fract_x
 _atom_site_fract_y
 _atom_site_fract_z
 _atom_site_occupancy
  Pr  Pr0  1  0.26796956  0.53391431  0.86830921  1
  Pr  Pr1  1  0.73146211  0.52637948  0.13770624  1
  Pr  Pr2  1  0.76632353  0.94935489  0.88206425  1
  Pr  Pr3  1  0.24138669  0.98970398  0.14674426  1
  Mn  Mn4  1  0.27919366  0.53809902  0.58749327  1
  Mn  Mn5  1  0.69659277  0.45642582  0.37619699  1
  Mn  Mn6  1  0.00235412  0.00732633  0.00521129  1
  Mn  Mn7  1  0.79119829  0.97561045  0.59654490  1
  Mn  Mn8  1  0.19338210  0.93839695  0.40383402  1
  Mn  Mn9  1  0.49572224  0.49955421  0.00204937  1
  Sb  Sb10  1  0.90277831  0.99339522  0.45623246  1
  Sb  Sb11  1  0.10198371  0.00471027  0.54956530  1
  Sb  Sb12  1  0.03469915  0.52682313  0.81159081  1
  Sb  Sb13  1  0.96127647  0.50002835  0.18556182  1
  Sb  Sb14  1  0.38913220  0.48788883  0.45093920  1
  Sb  Sb15  1  0.61565696  0.47391575  0.57175112  1
  Sb  Sb16  1  0.54068724  0.02896182  0.82663113  1
  Sb  Sb17  1  0.45928104  0.01334835  0.19116281  1
  S  S18  1  0.93147204  0.97635532  0.78413698  1
  S  S19  1  0.05841830  0.94696570  0.19639503  1
  S  S20  1  0.42121896  0.97755986  0.99253332  1
  S  S21  1  0.58636824  0.97777678  0.03116238  1
  S  S22  1  0.17299370  0.95353705  0.89023554  1
  S  S23  1  0.83210692  0.98236972  0.12440382  1
  S  S24  1  0.10231682  0.49010266  0.66496034  1
  S  S25  1  0.89494344  0.53419465  0.33987695  1
  S  S26  1  0.74773222  0.98514129  0.30964355  1
  S  S27  1  0.26780376  0.98723318  0.69384174  1
  S  S28  1  0.15812123  0.44284608  0.43905127  1
  S  S29  1  0.82530755  0.47694176  0.53466659  1
  S  S30  1  0.43174809  0.44356421  0.80702461  1
  S  S31  1  0.55458047  0.46378197  0.19436000  1
  S  S32  1  0.92033917  0.49631373  0.99243154  1
  S  S33  1  0.07225274  0.51895798  0.99973358  1
  S  S34  1  0.67587787  0.41407154  0.90429638  1
  S  S35  1  0.33509263  0.48197760  0.10596997  1
  S  S36  1  0.58619548  0.97791458  0.66349021  1
  S  S37  1  0.41426160  0.01702187  0.36688645  1
  S  S38  1  0.23381277  0.48188976  0.29004259  1
  S  S39  1  0.76854584  0.41307047  0.71183183  1
  S  S40  1  0.66124966  0.99327295  0.44307806  1
  S  S41  1  0.32931997  0.00945910  0.54349626  1
