# generated using pymatgen
data_Pr2Mn3(SbS3)4
_symmetry_space_group_name_H-M   'P 1'
_cell_length_a   20.02960800
_cell_length_b   3.90410600
_cell_length_c   14.95364829
_cell_angle_alpha   90.00000000
_cell_angle_beta   126.33350609
_cell_angle_gamma   90.00000000
_symmetry_Int_Tables_number   1
_chemical_formula_structural   Pr2Mn3(SbS3)4
_chemical_formula_sum   'Pr4 Mn6 Sb8 S24'
_cell_volume   942.00006694
_cell_formula_units_Z   2
loop_
 _symmetry_equiv_pos_site_id
 _symmetry_equiv_pos_as_xyz
  1  'x, y, z'
loop_
 _atom_site_type_symbol
 _atom_site_label
 _atom_site_symmetry_multiplicity
 _atom_site_fract_x
 _atom_site_fract_y
 _atom_site_fract_z
 _atom_site_occupancy
  Pr  Pr0  1  0.26790654  0.53476125  0.86832718  1
  Pr  Pr1  1  0.73146221  0.52573397  0.13772576  1
  Pr  Pr2  1  0.76640133  0.94846352  0.88223094  1
  Pr  Pr3  1  0.24136437  0.99006845  0.14666275  1
  Mn  Mn4  1  0.27884545  0.53917047  0.58714656  1
  Mn  Mn5  1  0.69681282  0.45703025  0.37621994  1
  Mn  Mn6  1  0.00217794  0.00706201  0.00497581  1
  Mn  Mn7  1  0.79121582  0.97504996  0.59652602  1
  Mn  Mn8  1  0.19314614  0.93847861  0.40350161  1
  Mn  Mn9  1  0.49560721  0.50012275  0.00185357  1
  Sb  Sb10  1  0.90286253  0.99375851  0.45623895  1
  Sb  Sb11  1  0.10186925  0.00438877  0.54965402  1
  Sb  Sb12  1  0.03468858  0.52710898  0.81173314  1
  Sb  Sb13  1  0.96100954  0.49935633  0.18525486  1
  Sb  Sb14  1  0.38931350  0.48813515  0.45108801  1
  Sb  Sb15  1  0.61564471  0.47381014  0.57176161  1
  Sb  Sb16  1  0.54064087  0.02887720  0.82682462  1
  Sb  Sb17  1  0.45931065  0.01373282  0.19118570  1
  S  S18  1  0.93160701  0.97542031  0.78408155  1
  S  S19  1  0.05824402  0.94748961  0.19568351  1
  S  S20  1  0.42152642  0.97713219  0.99268862  1
  S  S21  1  0.58655430  0.97869512  0.03122432  1
  S  S22  1  0.17316717  0.95309102  0.89001430  1
  S  S23  1  0.83210335  0.98083239  0.12452420  1
  S  S24  1  0.10206444  0.49093895  0.66498337  1
  S  S25  1  0.89524515  0.53288053  0.34035452  1
  S  S26  1  0.74803012  0.98527430  0.30963714  1
  S  S27  1  0.26779401  0.98704373  0.69398112  1
  S  S28  1  0.15781811  0.44371797  0.43872297  1
  S  S29  1  0.82588430  0.47623424  0.53550374  1
  S  S30  1  0.43160384  0.44282272  0.80728972  1
  S  S31  1  0.55428955  0.46104260  0.19439574  1
  S  S32  1  0.92022354  0.49751684  0.99234032  1
  S  S33  1  0.07254037  0.51945540  0.99958146  1
  S  S34  1  0.67587693  0.41667651  0.90455806  1
  S  S35  1  0.33476155  0.48240484  0.10575939  1
  S  S36  1  0.58605683  0.97967410  0.66326156  1
  S  S37  1  0.41396226  0.01797638  0.36662440  1
  S  S38  1  0.23410986  0.48182994  0.29027343  1
  S  S39  1  0.76847509  0.41328195  0.71158949  1
  S  S40  1  0.66065069  0.99265956  0.44269277  1
  S  S41  1  0.32922787  0.00991721  0.54394475  1
