# generated using pymatgen
data_Pr2Mn3(SbS3)4
_symmetry_space_group_name_H-M   'P 1'
_cell_length_a   20.02960800
_cell_length_b   3.90410600
_cell_length_c   14.95364829
_cell_angle_alpha   90.00000000
_cell_angle_beta   126.33350609
_cell_angle_gamma   90.00000000
_symmetry_Int_Tables_number   1
_chemical_formula_structural   Pr2Mn3(SbS3)4
_chemical_formula_sum   'Pr4 Mn6 Sb8 S24'
_cell_volume   942.00006694
_cell_formula_units_Z   2
loop_
 _symmetry_equiv_pos_site_id
 _symmetry_equiv_pos_as_xyz
  1  'x, y, z'
loop_
 _atom_site_type_symbol
 _atom_site_label
 _atom_site_symmetry_multiplicity
 _atom_site_fract_x
 _atom_site_fract_y
 _atom_site_fract_z
 _atom_site_occupancy
  Pr  Pr0  1  0.26786906  0.53578868  0.86833055  1
  Pr  Pr1  1  0.73147137  0.52504690  0.13776719  1
  Pr  Pr2  1  0.76651772  0.94739982  0.88243717  1
  Pr  Pr3  1  0.24133875  0.99000339  0.14656991  1
  Mn  Mn4  1  0.27855694  0.54015427  0.58667616  1
  Mn  Mn5  1  0.69694248  0.45772528  0.37622541  1
  Mn  Mn6  1  0.00200638  0.00719776  0.00464812  1
  Mn  Mn7  1  0.79126102  0.97403555  0.59656032  1
  Mn  Mn8  1  0.19292049  0.93842183  0.40305657  1
  Mn  Mn9  1  0.49553795  0.50009006  0.00173882  1
  Sb  Sb10  1  0.90293071  0.99418958  0.45637493  1
  Sb  Sb11  1  0.10172679  0.00449180  0.54969216  1
  Sb  Sb12  1  0.03469077  0.52729257  0.81194054  1
  Sb  Sb13  1  0.96083822  0.49874223  0.18499244  1
  Sb  Sb14  1  0.38952546  0.48848265  0.45119449  1
  Sb  Sb15  1  0.61566022  0.47367641  0.57172497  1
  Sb  Sb16  1  0.54065589  0.02863828  0.82707291  1
  Sb  Sb17  1  0.45931308  0.01399661  0.19118223  1
  S  S18  1  0.93161814  0.97474899  0.78389954  1
  S  S19  1  0.05796213  0.94785780  0.19499718  1
  S  S20  1  0.42171607  0.97666736  0.99262989  1
  S  S21  1  0.58669991  0.97882608  0.03135256  1
  S  S22  1  0.17326797  0.95319499  0.88975728  1
  S  S23  1  0.83206324  0.97961991  0.12450863  1
  S  S24  1  0.10182671  0.49177355  0.66496591  1
  S  S25  1  0.89560155  0.53147520  0.34082176  1
  S  S26  1  0.74833035  0.98566619  0.30971138  1
  S  S27  1  0.26759724  0.98688971  0.69393937  1
  S  S28  1  0.15767793  0.44471008  0.43845189  1
  S  S29  1  0.82652844  0.47618825  0.53645532  1
  S  S30  1  0.43137948  0.44213773  0.80767902  1
  S  S31  1  0.55416981  0.45834178  0.19461820  1
  S  S32  1  0.92008867  0.49886285  0.99227654  1
  S  S33  1  0.07293747  0.51980962  0.99962309  1
  S  S34  1  0.67579838  0.41867448  0.90489517  1
  S  S35  1  0.33447255  0.48233364  0.10556820  1
  S  S36  1  0.58600410  0.98099121  0.66308900  1
  S  S37  1  0.41371656  0.01810346  0.36654405  1
  S  S38  1  0.23436301  0.48175183  0.29047682  1
  S  S39  1  0.76830008  0.41344455  0.71140330  1
  S  S40  1  0.66003311  0.99248389  0.44220620  1
  S  S41  1  0.32902074  0.01081028  0.54438134  1
