# generated using pymatgen
data_Pr2Mn3(SbS3)4
_symmetry_space_group_name_H-M   'P 1'
_cell_length_a   20.02960800
_cell_length_b   3.90410600
_cell_length_c   14.95364829
_cell_angle_alpha   90.00000000
_cell_angle_beta   126.33350609
_cell_angle_gamma   90.00000000
_symmetry_Int_Tables_number   1
_chemical_formula_structural   Pr2Mn3(SbS3)4
_chemical_formula_sum   'Pr4 Mn6 Sb8 S24'
_cell_volume   942.00006694
_cell_formula_units_Z   2
loop_
 _symmetry_equiv_pos_site_id
 _symmetry_equiv_pos_as_xyz
  1  'x, y, z'
loop_
 _atom_site_type_symbol
 _atom_site_label
 _atom_site_symmetry_multiplicity
 _atom_site_fract_x
 _atom_site_fract_y
 _atom_site_fract_z
 _atom_site_occupancy
  Pr  Pr0  1  0.26786383  0.53682189  0.86838121  1
  Pr  Pr1  1  0.73152438  0.52445212  0.13782085  1
  Pr  Pr2  1  0.76658573  0.94650987  0.88259247  1
  Pr  Pr3  1  0.24127919  0.99014782  0.14639624  1
  Mn  Mn4  1  0.27827325  0.54091676  0.58627543  1
  Mn  Mn5  1  0.69699464  0.45819966  0.37610993  1
  Mn  Mn6  1  0.00182392  0.00688973  0.00440179  1
  Mn  Mn7  1  0.79124752  0.97333889  0.59660149  1
  Mn  Mn8  1  0.19270362  0.93817338  0.40260240  1
  Mn  Mn9  1  0.49549329  0.49979436  0.00170335  1
  Sb  Sb10  1  0.90301033  0.99481430  0.45658108  1
  Sb  Sb11  1  0.10162952  0.00453935  0.54975964  1
  Sb  Sb12  1  0.03462900  0.52722075  0.81199495  1
  Sb  Sb13  1  0.96072177  0.49816798  0.18478687  1
  Sb  Sb14  1  0.38971516  0.48854450  0.45134216  1
  Sb  Sb15  1  0.61574203  0.47355568  0.57170301  1
  Sb  Sb16  1  0.54065820  0.02827179  0.82727095  1
  Sb  Sb17  1  0.45922608  0.01415996  0.19104880  1
  S  S18  1  0.93151227  0.97429584  0.78372061  1
  S  S19  1  0.05780327  0.94875851  0.19451031  1
  S  S20  1  0.42191667  0.97624557  0.99258185  1
  S  S21  1  0.58695457  0.97939629  0.03168601  1
  S  S22  1  0.17346288  0.95378014  0.88961645  1
  S  S23  1  0.83196126  0.97840458  0.12459997  1
  S  S24  1  0.10174307  0.49194471  0.66512681  1
  S  S25  1  0.89608235  0.53020236  0.34143798  1
  S  S26  1  0.74847589  0.98565674  0.30956855  1
  S  S27  1  0.26745881  0.98658655  0.69404266  1
  S  S28  1  0.15755110  0.44510865  0.43831014  1
  S  S29  1  0.82708768  0.47514956  0.53737995  1
  S  S30  1  0.43095694  0.44173911  0.80777591  1
  S  S31  1  0.55427006  0.45595563  0.19484611  1
  S  S32  1  0.91990402  0.49990913  0.99217437  1
  S  S33  1  0.07326183  0.52011673  0.99983497  1
  S  S34  1  0.67570353  0.42044062  0.90527062  1
  S  S35  1  0.33412384  0.48184741  0.10523903  1
  S  S36  1  0.58599487  0.98207947  0.66290383  1
  S  S37  1  0.41364860  0.01796523  0.36676172  1
  S  S38  1  0.23468249  0.48189039  0.29073518  1
  S  S39  1  0.76819894  0.41351303  0.71147828  1
  S  S40  1  0.65946356  0.99262333  0.44175141  1
  S  S41  1  0.32881379  0.01230170  0.54454091  1
