# generated using pymatgen
data_Pr2Mn3(SbS3)4
_symmetry_space_group_name_H-M   'P 1'
_cell_length_a   20.02960800
_cell_length_b   3.90410600
_cell_length_c   14.95364829
_cell_angle_alpha   90.00000000
_cell_angle_beta   126.33350609
_cell_angle_gamma   90.00000000
_symmetry_Int_Tables_number   1
_chemical_formula_structural   Pr2Mn3(SbS3)4
_chemical_formula_sum   'Pr4 Mn6 Sb8 S24'
_cell_volume   942.00006694
_cell_formula_units_Z   2
loop_
 _symmetry_equiv_pos_site_id
 _symmetry_equiv_pos_as_xyz
  1  'x, y, z'
loop_
 _atom_site_type_symbol
 _atom_site_label
 _atom_site_symmetry_multiplicity
 _atom_site_fract_x
 _atom_site_fract_y
 _atom_site_fract_z
 _atom_site_occupancy
  Pr  Pr0  1  0.26684072  0.49950963  0.86452509  1
  Pr  Pr1  1  0.73503240  0.51038522  0.13500605  1
  Pr  Pr2  1  0.76346239  0.01530819  0.86122695  1
  Pr  Pr3  1  0.23466991  0.99630979  0.13382539  1
  Mn  Mn4  1  0.29005003  0.47715898  0.59066182  1
  Mn  Mn5  1  0.68563004  0.47034796  0.36562452  1
  Mn  Mn6  1  0.00811407  0.99531703  0.01852261  1
  Mn  Mn7  1  0.80373151  0.01463624  0.61936071  1
  Mn  Mn8  1  0.19813695  0.97340899  0.37301239  1
  Mn  Mn9  1  0.49087831  0.46954118  0.99028936  1
  Sb  Sb10  1  0.89107433  0.98410557  0.45235485  1
  Sb  Sb11  1  0.11138792  0.98071121  0.54446027  1
  Sb  Sb12  1  0.03687888  0.51937028  0.82000167  1
  Sb  Sb13  1  0.96388876  0.50106478  0.18657403  1
  Sb  Sb14  1  0.39509929  0.49733757  0.45102607  1
  Sb  Sb15  1  0.60629734  0.46650338  0.54922693  1
  Sb  Sb16  1  0.53409398  0.99235864  0.80833072  1
  Sb  Sb17  1  0.46570731  0.02315436  0.19149056  1
  S  S18  1  0.93875329  0.00963775  0.81088170  1
  S  S19  1  0.06401259  0.97656320  0.19944536  1
  S  S20  1  0.42065611  0.95858595  0.98707933  1
  S  S21  1  0.58333997  0.03215538  0.01575503  1
  S  S22  1  0.17290644  0.05892691  0.90375047  1
  S  S23  1  0.82959000  0.04971147  0.10210030  1
  S  S24  1  0.09428051  0.48660077  0.64871858  1
  S  S25  1  0.91510921  0.49098196  0.35791589  1
  S  S26  1  0.73534152  0.95791206  0.29826480  1
  S  S27  1  0.26188530  0.00858266  0.70804750  1
  S  S28  1  0.16069830  0.51534463  0.42761750  1
  S  S29  1  0.82310529  0.48814906  0.55088965  1
  S  S30  1  0.42888408  0.48817192  0.79597082  1
  S  S31  1  0.55202604  0.52479525  0.18019332  1
  S  S32  1  0.91431399  0.48722503  0.98856537  1
  S  S33  1  0.09132224  0.50096809  0.03293587  1
  S  S34  1  0.66305098  0.53308415  0.88738694  1
  S  S35  1  0.32937769  0.51069981  0.09693000  1
  S  S36  1  0.60031476  0.00148586  0.65954183  1
  S  S37  1  0.40156636  0.98138535  0.34178003  1
  S  S38  1  0.24003651  0.47398820  0.31227392  1
  S  S39  1  0.76210433  0.51373453  0.69142116  1
  S  S40  1  0.66521013  0.01929560  0.44829450  1
  S  S41  1  0.33064023  0.97472240  0.55707014  1
