# generated using pymatgen
data_Pr2Mn3(SbS3)4
_symmetry_space_group_name_H-M   'P 1'
_cell_length_a   20.02960800
_cell_length_b   3.90410600
_cell_length_c   14.95364829
_cell_angle_alpha   90.00000000
_cell_angle_beta   126.33350609
_cell_angle_gamma   90.00000000
_symmetry_Int_Tables_number   1
_chemical_formula_structural   Pr2Mn3(SbS3)4
_chemical_formula_sum   'Pr4 Mn6 Sb8 S24'
_cell_volume   942.00006694
_cell_formula_units_Z   2
loop_
 _symmetry_equiv_pos_site_id
 _symmetry_equiv_pos_as_xyz
  1  'x, y, z'
loop_
 _atom_site_type_symbol
 _atom_site_label
 _atom_site_symmetry_multiplicity
 _atom_site_fract_x
 _atom_site_fract_y
 _atom_site_fract_z
 _atom_site_occupancy
  Pr  Pr0  1  0.26784708  0.53783801  0.86841097  1
  Pr  Pr1  1  0.73156669  0.52400251  0.13788853  1
  Pr  Pr2  1  0.76665451  0.94566118  0.88281336  1
  Pr  Pr3  1  0.24120082  0.99019090  0.14622184  1
  Mn  Mn4  1  0.27815341  0.54183025  0.58587155  1
  Mn  Mn5  1  0.69705237  0.45825274  0.37586941  1
  Mn  Mn6  1  0.00172356  0.00665603  0.00426023  1
  Mn  Mn7  1  0.79108480  0.97264365  0.59654884  1
  Mn  Mn8  1  0.19240364  0.93829132  0.40209397  1
  Mn  Mn9  1  0.49564434  0.49951857  0.00184930  1
  Sb  Sb10  1  0.90302517  0.99557052  0.45669798  1
  Sb  Sb11  1  0.10144575  0.00453327  0.54984669  1
  Sb  Sb12  1  0.03459791  0.52692444  0.81207068  1
  Sb  Sb13  1  0.96060434  0.49784670  0.18466661  1
  Sb  Sb14  1  0.38987314  0.48870162  0.45147019  1
  Sb  Sb15  1  0.61582345  0.47346363  0.57162167  1
  Sb  Sb16  1  0.54065781  0.02789349  0.82751337  1
  Sb  Sb17  1  0.45909205  0.01453658  0.19090649  1
  S  S18  1  0.93124703  0.97349575  0.78345871  1
  S  S19  1  0.05765169  0.94980827  0.19400286  1
  S  S20  1  0.42226959  0.97607447  0.99271639  1
  S  S21  1  0.58713294  0.97994809  0.03209473  1
  S  S22  1  0.17365032  0.95436290  0.88954243  1
  S  S23  1  0.83193633  0.97784908  0.12469839  1
  S  S24  1  0.10171223  0.49176601  0.66540557  1
  S  S25  1  0.89668027  0.52830160  0.34211717  1
  S  S26  1  0.74850972  0.98520584  0.30943447  1
  S  S27  1  0.26733175  0.98639363  0.69425697  1
  S  S28  1  0.15722824  0.44562704  0.43809915  1
  S  S29  1  0.82746588  0.47412116  0.53827675  1
  S  S30  1  0.43057903  0.44121429  0.80780276  1
  S  S31  1  0.55447476  0.45393884  0.19492808  1
  S  S32  1  0.91962678  0.50088506  0.99190898  1
  S  S33  1  0.07347519  0.51989157  0.99988118  1
  S  S34  1  0.67569317  0.42232008  0.90574143  1
  S  S35  1  0.33374437  0.48130660  0.10486061  1
  S  S36  1  0.58615671  0.98215644  0.66273515  1
  S  S37  1  0.41365785  0.01792275  0.36702673  1
  S  S38  1  0.23502901  0.48189865  0.29111644  1
  S  S39  1  0.76818805  0.41373649  0.71149988  1
  S  S40  1  0.65911286  0.99272809  0.44135528  1
  S  S41  1  0.32869116  0.01352318  0.54489696  1
