# generated using pymatgen
data_Pr2Mn3(SbS3)4
_symmetry_space_group_name_H-M   'P 1'
_cell_length_a   20.02960800
_cell_length_b   3.90410600
_cell_length_c   14.95364829
_cell_angle_alpha   90.00000000
_cell_angle_beta   126.33350609
_cell_angle_gamma   90.00000000
_symmetry_Int_Tables_number   1
_chemical_formula_structural   Pr2Mn3(SbS3)4
_chemical_formula_sum   'Pr4 Mn6 Sb8 S24'
_cell_volume   942.00006694
_cell_formula_units_Z   2
loop_
 _symmetry_equiv_pos_site_id
 _symmetry_equiv_pos_as_xyz
  1  'x, y, z'
loop_
 _atom_site_type_symbol
 _atom_site_label
 _atom_site_symmetry_multiplicity
 _atom_site_fract_x
 _atom_site_fract_y
 _atom_site_fract_z
 _atom_site_occupancy
  Pr  Pr0  1  0.26789859  0.53869906  0.86851226  1
  Pr  Pr1  1  0.73168748  0.52359654  0.13797815  1
  Pr  Pr2  1  0.76670600  0.94516986  0.88289373  1
  Pr  Pr3  1  0.24119511  0.99049411  0.14617275  1
  Mn  Mn4  1  0.27807130  0.54294604  0.58569628  1
  Mn  Mn5  1  0.69708249  0.45826091  0.37559260  1
  Mn  Mn6  1  0.00157562  0.00670138  0.00414463  1
  Mn  Mn7  1  0.79099710  0.97171885  0.59658472  1
  Mn  Mn8  1  0.19216837  0.93849505  0.40161416  1
  Mn  Mn9  1  0.49579563  0.49935289  0.00205156  1
  Sb  Sb10  1  0.90301932  0.99584210  0.45683209  1
  Sb  Sb11  1  0.10133944  0.00458227  0.54998016  1
  Sb  Sb12  1  0.03460562  0.52655007  0.81212820  1
  Sb  Sb13  1  0.96048976  0.49708842  0.18453809  1
  Sb  Sb14  1  0.38994136  0.48882952  0.45146886  1
  Sb  Sb15  1  0.61589235  0.47336376  0.57159450  1
  Sb  Sb16  1  0.54069874  0.02731974  0.82776277  1
  Sb  Sb17  1  0.45899896  0.01476070  0.19075380  1
  S  S18  1  0.93122202  0.97274750  0.78352454  1
  S  S19  1  0.05768165  0.95023470  0.19348388  1
  S  S20  1  0.42244762  0.97564816  0.99265836  1
  S  S21  1  0.58728004  0.97977476  0.03238745  1
  S  S22  1  0.17391589  0.95506757  0.88967094  1
  S  S23  1  0.83201574  0.97677055  0.12479301  1
  S  S24  1  0.10155332  0.49252465  0.66541790  1
  S  S25  1  0.89694480  0.52606354  0.34250156  1
  S  S26  1  0.74844564  0.98433218  0.30919513  1
  S  S27  1  0.26729087  0.98653036  0.69450214  1
  S  S28  1  0.15688251  0.44659648  0.43795700  1
  S  S29  1  0.82779570  0.47308377  0.53914019  1
  S  S30  1  0.43046586  0.44024245  0.80814250  1
  S  S31  1  0.55459525  0.45231671  0.19486035  1
  S  S32  1  0.91930216  0.50172730  0.99151079  1
  S  S33  1  0.07375788  0.51950357  0.00009093  1
  S  S34  1  0.67558313  0.42385071  0.90619119  1
  S  S35  1  0.33350855  0.48068226  0.10482687  1
  S  S36  1  0.58643886  0.98272740  0.66267898  1
  S  S37  1  0.41377182  0.01829609  0.36743351  1
  S  S38  1  0.23542948  0.48243123  0.29149420  1
  S  S39  1  0.76816630  0.41406360  0.71138337  1
  S  S40  1  0.65876089  0.99244625  0.44089090  1
  S  S41  1  0.32857709  0.01452345  0.54519660  1
