# generated using pymatgen
data_Pr2Mn3(SbS3)4
_symmetry_space_group_name_H-M   'P 1'
_cell_length_a   20.02960800
_cell_length_b   3.90410600
_cell_length_c   14.95364829
_cell_angle_alpha   90.00000000
_cell_angle_beta   126.33350609
_cell_angle_gamma   90.00000000
_symmetry_Int_Tables_number   1
_chemical_formula_structural   Pr2Mn3(SbS3)4
_chemical_formula_sum   'Pr4 Mn6 Sb8 S24'
_cell_volume   942.00006694
_cell_formula_units_Z   2
loop_
 _symmetry_equiv_pos_site_id
 _symmetry_equiv_pos_as_xyz
  1  'x, y, z'
loop_
 _atom_site_type_symbol
 _atom_site_label
 _atom_site_symmetry_multiplicity
 _atom_site_fract_x
 _atom_site_fract_y
 _atom_site_fract_z
 _atom_site_occupancy
  Pr  Pr0  1  0.26799135  0.53959986  0.86868850  1
  Pr  Pr1  1  0.73180805  0.52298691  0.13798874  1
  Pr  Pr2  1  0.76682302  0.94486256  0.88298793  1
  Pr  Pr3  1  0.24114858  0.99047975  0.14615473  1
  Mn  Mn4  1  0.27810381  0.54349018  0.58574658  1
  Mn  Mn5  1  0.69723220  0.45775966  0.37549983  1
  Mn  Mn6  1  0.00155449  0.00710224  0.00410020  1
  Mn  Mn7  1  0.79102726  0.97052293  0.59674638  1
  Mn  Mn8  1  0.19198076  0.93882671  0.40106479  1
  Mn  Mn9  1  0.49587334  0.49924488  0.00224970  1
  Sb  Sb10  1  0.90302692  0.99589532  0.45707941  1
  Sb  Sb11  1  0.10121658  0.00439942  0.55012365  1
  Sb  Sb12  1  0.03459193  0.52652230  0.81213859  1
  Sb  Sb13  1  0.96041320  0.49650279  0.18449298  1
  Sb  Sb14  1  0.39002462  0.48868037  0.45153719  1
  Sb  Sb15  1  0.61590762  0.47297375  0.57152488  1
  Sb  Sb16  1  0.54072422  0.02691419  0.82799626  1
  Sb  Sb17  1  0.45892900  0.01482490  0.19065116  1
  S  S18  1  0.93127871  0.97220579  0.78367065  1
  S  S19  1  0.05775197  0.95097217  0.19298629  1
  S  S20  1  0.42265520  0.97511977  0.99265722  1
  S  S21  1  0.58723732  0.98012678  0.03259781  1
  S  S22  1  0.17405292  0.95524534  0.88980082  1
  S  S23  1  0.83209579  0.97603156  0.12486449  1
  S  S24  1  0.10122683  0.49304654  0.66531351  1
  S  S25  1  0.89724206  0.52347831  0.34299323  1
  S  S26  1  0.74832375  0.98379511  0.30901903  1
  S  S27  1  0.26735929  0.98688998  0.69470899  1
  S  S28  1  0.15650551  0.44716304  0.43771220  1
  S  S29  1  0.82795165  0.47246139  0.53993841  1
  S  S30  1  0.43033394  0.43916709  0.80852161  1
  S  S31  1  0.55467635  0.45104032  0.19461204  1
  S  S32  1  0.91904494  0.50257306  0.99106584  1
  S  S33  1  0.07397904  0.51847195  0.00021891  1
  S  S34  1  0.67551346  0.42519231  0.90670660  1
  S  S35  1  0.33314925  0.47950410  0.10470128  1
  S  S36  1  0.58671134  0.98389238  0.66264030  1
  S  S37  1  0.41394269  0.01960346  0.36806535  1
  S  S38  1  0.23565950  0.48307825  0.29174016  1
  S  S39  1  0.76808936  0.41448583  0.71127734  1
  S  S40  1  0.65853987  0.99174507  0.44051713  1
  S  S41  1  0.32843383  0.01508524  0.54525398  1
