# generated using pymatgen
data_Pr2Mn3(SbS3)4
_symmetry_space_group_name_H-M   'P 1'
_cell_length_a   20.02960800
_cell_length_b   3.90410600
_cell_length_c   14.95364829
_cell_angle_alpha   90.00000000
_cell_angle_beta   126.33350609
_cell_angle_gamma   90.00000000
_symmetry_Int_Tables_number   1
_chemical_formula_structural   Pr2Mn3(SbS3)4
_chemical_formula_sum   'Pr4 Mn6 Sb8 S24'
_cell_volume   942.00006694
_cell_formula_units_Z   2
loop_
 _symmetry_equiv_pos_site_id
 _symmetry_equiv_pos_as_xyz
  1  'x, y, z'
loop_
 _atom_site_type_symbol
 _atom_site_label
 _atom_site_symmetry_multiplicity
 _atom_site_fract_x
 _atom_site_fract_y
 _atom_site_fract_z
 _atom_site_occupancy
  Pr  Pr0  1  0.26806286  0.54029480  0.86876440  1
  Pr  Pr1  1  0.73188809  0.52303003  0.13801465  1
  Pr  Pr2  1  0.76689105  0.94473100  0.88300801  1
  Pr  Pr3  1  0.24111933  0.99039033  0.14619340  1
  Mn  Mn4  1  0.27816680  0.54419396  0.58577339  1
  Mn  Mn5  1  0.69727704  0.45754878  0.37517664  1
  Mn  Mn6  1  0.00146586  0.00763253  0.00394512  1
  Mn  Mn7  1  0.79103806  0.96931414  0.59704706  1
  Mn  Mn8  1  0.19181210  0.93939192  0.40050370  1
  Mn  Mn9  1  0.49597275  0.49949889  0.00240388  1
  Sb  Sb10  1  0.90303725  0.99588990  0.45735046  1
  Sb  Sb11  1  0.10112497  0.00418606  0.55024260  1
  Sb  Sb12  1  0.03464475  0.52644102  0.81218269  1
  Sb  Sb13  1  0.96036947  0.49598010  0.18443233  1
  Sb  Sb14  1  0.39006351  0.48867596  0.45148254  1
  Sb  Sb15  1  0.61592344  0.47271947  0.57148992  1
  Sb  Sb16  1  0.54081128  0.02686309  0.82812569  1
  Sb  Sb17  1  0.45894482  0.01463015  0.19059264  1
  S  S18  1  0.93129364  0.97227039  0.78375047  1
  S  S19  1  0.05776085  0.95226829  0.19252731  1
  S  S20  1  0.42288351  0.97444884  0.99277050  1
  S  S21  1  0.58716281  0.97989866  0.03274698  1
  S  S22  1  0.17426512  0.95530998  0.89002281  1
  S  S23  1  0.83213917  0.97515355  0.12477845  1
  S  S24  1  0.10093119  0.49360954  0.66508754  1
  S  S25  1  0.89757556  0.52039021  0.34337822  1
  S  S26  1  0.74813239  0.98302892  0.30878024  1
  S  S27  1  0.26757668  0.98693967  0.69502288  1
  S  S28  1  0.15610544  0.44776320  0.43749498  1
  S  S29  1  0.82814325  0.47145118  0.54072685  1
  S  S30  1  0.43017812  0.43798489  0.80895985  1
  S  S31  1  0.55479937  0.44966996  0.19425272  1
  S  S32  1  0.91867246  0.50244634  0.99025007  1
  S  S33  1  0.07416912  0.51629861  0.00038450  1
  S  S34  1  0.67542570  0.42642833  0.90724916  1
  S  S35  1  0.33277124  0.47925800  0.10459897  1
  S  S36  1  0.58705017  0.98471480  0.66276397  1
  S  S37  1  0.41399403  0.02032947  0.36847039  1
  S  S38  1  0.23593405  0.48390157  0.29205694  1
  S  S39  1  0.76795820  0.41451363  0.71107911  1
  S  S40  1  0.65825802  0.99097885  0.44002178  1
  S  S41  1  0.32824663  0.01539476  0.54511931  1
