# generated using pymatgen
data_Pr2Mn3(SbS3)4
_symmetry_space_group_name_H-M   'P 1'
_cell_length_a   20.02960800
_cell_length_b   3.90410600
_cell_length_c   14.95364829
_cell_angle_alpha   90.00000000
_cell_angle_beta   126.33350609
_cell_angle_gamma   90.00000000
_symmetry_Int_Tables_number   1
_chemical_formula_structural   Pr2Mn3(SbS3)4
_chemical_formula_sum   'Pr4 Mn6 Sb8 S24'
_cell_volume   942.00006694
_cell_formula_units_Z   2
loop_
 _symmetry_equiv_pos_site_id
 _symmetry_equiv_pos_as_xyz
  1  'x, y, z'
loop_
 _atom_site_type_symbol
 _atom_site_label
 _atom_site_symmetry_multiplicity
 _atom_site_fract_x
 _atom_site_fract_y
 _atom_site_fract_z
 _atom_site_occupancy
  Pr  Pr0  1  0.26812241  0.54092512  0.86884201  1
  Pr  Pr1  1  0.73192955  0.52326781  0.13799967  1
  Pr  Pr2  1  0.76695974  0.94483119  0.88297407  1
  Pr  Pr3  1  0.24112655  0.99073094  0.14626509  1
  Mn  Mn4  1  0.27816734  0.54461763  0.58592219  1
  Mn  Mn5  1  0.69730079  0.45736989  0.37483110  1
  Mn  Mn6  1  0.00138068  0.00792650  0.00385005  1
  Mn  Mn7  1  0.79100676  0.96793379  0.59732242  1
  Mn  Mn8  1  0.19167273  0.93983889  0.40000880  1
  Mn  Mn9  1  0.49595603  0.49957217  0.00245813  1
  Sb  Sb10  1  0.90302310  0.99618742  0.45749758  1
  Sb  Sb11  1  0.10105606  0.00363549  0.55045095  1
  Sb  Sb12  1  0.03471966  0.52640955  0.81231246  1
  Sb  Sb13  1  0.96028058  0.49581293  0.18437408  1
  Sb  Sb14  1  0.39017682  0.48900578  0.45145457  1
  Sb  Sb15  1  0.61586428  0.47273745  0.57137096  1
  Sb  Sb16  1  0.54084341  0.02663590  0.82826855  1
  Sb  Sb17  1  0.45901977  0.01460975  0.19064364  1
  S  S18  1  0.93119772  0.97295065  0.78363831  1
  S  S19  1  0.05780159  0.95335897  0.19221341  1
  S  S20  1  0.42311763  0.97402558  0.99299867  1
  S  S21  1  0.58711951  0.97912145  0.03276510  1
  S  S22  1  0.17432924  0.95541107  0.89036945  1
  S  S23  1  0.83227377  0.97464192  0.12460143  1
  S  S24  1  0.10056999  0.49428854  0.66490485  1
  S  S25  1  0.89762238  0.51776887  0.34330214  1
  S  S26  1  0.74800374  0.98279899  0.30858130  1
  S  S27  1  0.26773376  0.98692258  0.69538486  1
  S  S28  1  0.15573179  0.44849445  0.43714224  1
  S  S29  1  0.82824263  0.47046080  0.54130563  1
  S  S30  1  0.43008984  0.43701561  0.80946732  1
  S  S31  1  0.55499832  0.44817338  0.19419306  1
  S  S32  1  0.91830092  0.50253339  0.98951905  1
  S  S33  1  0.07437399  0.51484517  0.00057570  1
  S  S34  1  0.67540367  0.42793538  0.90761191  1
  S  S35  1  0.33239256  0.47852668  0.10448497  1
  S  S36  1  0.58744754  0.98549207  0.66288392  1
  S  S37  1  0.41398834  0.02105435  0.36878702  1
  S  S38  1  0.23639421  0.48535273  0.29246255  1
  S  S39  1  0.76784425  0.41468919  0.71082509  1
  S  S40  1  0.65800821  0.99061104  0.43960151  1
  S  S41  1  0.32810384  0.01560373  0.54490840  1
