# generated using pymatgen
data_Pr2Mn3(SbS3)4
_symmetry_space_group_name_H-M   'P 1'
_cell_length_a   20.02960800
_cell_length_b   3.90410600
_cell_length_c   14.95364829
_cell_angle_alpha   90.00000000
_cell_angle_beta   126.33350609
_cell_angle_gamma   90.00000000
_symmetry_Int_Tables_number   1
_chemical_formula_structural   Pr2Mn3(SbS3)4
_chemical_formula_sum   'Pr4 Mn6 Sb8 S24'
_cell_volume   942.00006694
_cell_formula_units_Z   2
loop_
 _symmetry_equiv_pos_site_id
 _symmetry_equiv_pos_as_xyz
  1  'x, y, z'
loop_
 _atom_site_type_symbol
 _atom_site_label
 _atom_site_symmetry_multiplicity
 _atom_site_fract_x
 _atom_site_fract_y
 _atom_site_fract_z
 _atom_site_occupancy
  Pr  Pr0  1  0.26814311  0.54160555  0.86887666  1
  Pr  Pr1  1  0.73198020  0.52307884  0.13794659  1
  Pr  Pr2  1  0.76700363  0.94478229  0.88292329  1
  Pr  Pr3  1  0.24117702  0.99106668  0.14631741  1
  Mn  Mn4  1  0.27818445  0.54473102  0.58601768  1
  Mn  Mn5  1  0.69739819  0.45733088  0.37478240  1
  Mn  Mn6  1  0.00124718  0.00827687  0.00365975  1
  Mn  Mn7  1  0.79102637  0.96638774  0.59766541  1
  Mn  Mn8  1  0.19150448  0.94057476  0.39946721  1
  Mn  Mn9  1  0.49600775  0.49990258  0.00252215  1
  Sb  Sb10  1  0.90305112  0.99641345  0.45775908  1
  Sb  Sb11  1  0.10104657  0.00311638  0.55060036  1
  Sb  Sb12  1  0.03478657  0.52669862  0.81247632  1
  Sb  Sb13  1  0.96017105  0.49583819  0.18431945  1
  Sb  Sb14  1  0.39027459  0.48926952  0.45153747  1
  Sb  Sb15  1  0.61581599  0.47262033  0.57131745  1
  Sb  Sb16  1  0.54084373  0.02654810  0.82849520  1
  Sb  Sb17  1  0.45913042  0.01478214  0.19063765  1
  S  S18  1  0.93109683  0.97345515  0.78353183  1
  S  S19  1  0.05777400  0.95340164  0.19169307  1
  S  S20  1  0.42320226  0.97409435  0.99306693  1
  S  S21  1  0.58706418  0.97789345  0.03273200  1
  S  S22  1  0.17442129  0.95617961  0.89077199  1
  S  S23  1  0.83253727  0.97343973  0.12467149  1
  S  S24  1  0.10013234  0.49512645  0.66467885  1
  S  S25  1  0.89774405  0.51457504  0.34331889  1
  S  S26  1  0.74782603  0.98284037  0.30845367  1
  S  S27  1  0.26792193  0.98690172  0.69555923  1
  S  S28  1  0.15555588  0.44914480  0.43688116  1
  S  S29  1  0.82848076  0.46956218  0.54197971  1
  S  S30  1  0.43015333  0.43619993  0.81019241  1
  S  S31  1  0.55538257  0.44649331  0.19406391  1
  S  S32  1  0.91790081  0.50265736  0.98882761  1
  S  S33  1  0.07455864  0.51344335  0.00087306  1
  S  S34  1  0.67558757  0.42897398  0.90814032  1
  S  S35  1  0.33203797  0.47830844  0.10436152  1
  S  S36  1  0.58773322  0.98628426  0.66300321  1
  S  S37  1  0.41394043  0.02213961  0.36891670  1
  S  S38  1  0.23676714  0.48666099  0.29282490  1
  S  S39  1  0.76762767  0.41472430  0.71046211  1
  S  S40  1  0.65770381  0.98975372  0.43924890  1
  S  S41  1  0.32787881  0.01531271  0.54465324  1
