# generated using pymatgen
data_Pr2Mn3(SbS3)4
_symmetry_space_group_name_H-M   'P 1'
_cell_length_a   20.02960800
_cell_length_b   3.90410600
_cell_length_c   14.95364829
_cell_angle_alpha   90.00000000
_cell_angle_beta   126.33350609
_cell_angle_gamma   90.00000000
_symmetry_Int_Tables_number   1
_chemical_formula_structural   Pr2Mn3(SbS3)4
_chemical_formula_sum   'Pr4 Mn6 Sb8 S24'
_cell_volume   942.00006694
_cell_formula_units_Z   2
loop_
 _symmetry_equiv_pos_site_id
 _symmetry_equiv_pos_as_xyz
  1  'x, y, z'
loop_
 _atom_site_type_symbol
 _atom_site_label
 _atom_site_symmetry_multiplicity
 _atom_site_fract_x
 _atom_site_fract_y
 _atom_site_fract_z
 _atom_site_occupancy
  Pr  Pr0  1  0.26815702  0.54215370  0.86894613  1
  Pr  Pr1  1  0.73197388  0.52297077  0.13782635  1
  Pr  Pr2  1  0.76701484  0.94436017  0.88287452  1
  Pr  Pr3  1  0.24125214  0.99141237  0.14629450  1
  Mn  Mn4  1  0.27822948  0.54490602  0.58603499  1
  Mn  Mn5  1  0.69741580  0.45693888  0.37463945  1
  Mn  Mn6  1  0.00117109  0.00845012  0.00345702  1
  Mn  Mn7  1  0.79105468  0.96541699  0.59805896  1
  Mn  Mn8  1  0.19141459  0.94121439  0.39906321  1
  Mn  Mn9  1  0.49604139  0.50064980  0.00249743  1
  Sb  Sb10  1  0.90305174  0.99656130  0.45786537  1
  Sb  Sb11  1  0.10095167  0.00283104  0.55066582  1
  Sb  Sb12  1  0.03484658  0.52677818  0.81263317  1
  Sb  Sb13  1  0.96015919  0.49583034  0.18441227  1
  Sb  Sb14  1  0.39045672  0.48936829  0.45172656  1
  Sb  Sb15  1  0.61578013  0.47287259  0.57131141  1
  Sb  Sb16  1  0.54083192  0.02624000  0.82871589  1
  Sb  Sb17  1  0.45921039  0.01492157  0.19054110  1
  S  S18  1  0.93087840  0.97404317  0.78334756  1
  S  S19  1  0.05763839  0.95371085  0.19128613  1
  S  S20  1  0.42340260  0.97407054  0.99325777  1
  S  S21  1  0.58705685  0.97673199  0.03270982  1
  S  S22  1  0.17459439  0.95799429  0.89115862  1
  S  S23  1  0.83299117  0.97210081  0.12491426  1
  S  S24  1  0.09976345  0.49590619  0.66456671  1
  S  S25  1  0.89787598  0.51206581  0.34331238  1
  S  S26  1  0.74756527  0.98252430  0.30822107  1
  S  S27  1  0.26801638  0.98694263  0.69553073  1
  S  S28  1  0.15539214  0.44988737  0.43646270  1
  S  S29  1  0.82879551  0.46974406  0.54244706  1
  S  S30  1  0.43014990  0.43524574  0.81081166  1
  S  S31  1  0.55589770  0.44510773  0.19418683  1
  S  S32  1  0.91750072  0.50231282  0.98837481  1
  S  S33  1  0.07472016  0.51169936  0.00103832  1
  S  S34  1  0.67582293  0.43044160  0.90880096  1
  S  S35  1  0.33180317  0.47759767  0.10418381  1
  S  S36  1  0.58806527  0.98674419  0.66317045  1
  S  S37  1  0.41402072  0.02283190  0.36910260  1
  S  S38  1  0.23695028  0.48726640  0.29297793  1
  S  S39  1  0.76756348  0.41503928  0.71041449  1
  S  S40  1  0.65746998  0.98926265  0.43871448  1
  S  S41  1  0.32775608  0.01499948  0.54440540  1
