# generated using pymatgen
data_Pr2Mn3(SbS3)4
_symmetry_space_group_name_H-M   'P 1'
_cell_length_a   20.02960800
_cell_length_b   3.90410600
_cell_length_c   14.95364829
_cell_angle_alpha   90.00000000
_cell_angle_beta   126.33350609
_cell_angle_gamma   90.00000000
_symmetry_Int_Tables_number   1
_chemical_formula_structural   Pr2Mn3(SbS3)4
_chemical_formula_sum   'Pr4 Mn6 Sb8 S24'
_cell_volume   942.00006694
_cell_formula_units_Z   2
loop_
 _symmetry_equiv_pos_site_id
 _symmetry_equiv_pos_as_xyz
  1  'x, y, z'
loop_
 _atom_site_type_symbol
 _atom_site_label
 _atom_site_symmetry_multiplicity
 _atom_site_fract_x
 _atom_site_fract_y
 _atom_site_fract_z
 _atom_site_occupancy
  Pr  Pr0  1  0.26810430  0.54258830  0.86891618  1
  Pr  Pr1  1  0.73200878  0.52291619  0.13781376  1
  Pr  Pr2  1  0.76689022  0.94388505  0.88269094  1
  Pr  Pr3  1  0.24134348  0.99148304  0.14629348  1
  Mn  Mn4  1  0.27828302  0.54498251  0.58617264  1
  Mn  Mn5  1  0.69749728  0.45606572  0.37462184  1
  Mn  Mn6  1  0.00109522  0.00898048  0.00338220  1
  Mn  Mn7  1  0.79111112  0.96471826  0.59841706  1
  Mn  Mn8  1  0.19141110  0.94158499  0.39880572  1
  Mn  Mn9  1  0.49600863  0.50131506  0.00245544  1
  Sb  Sb10  1  0.90308709  0.99656812  0.45799560  1
  Sb  Sb11  1  0.10081103  0.00240948  0.55066934  1
  Sb  Sb12  1  0.03485939  0.52693690  0.81281603  1
  Sb  Sb13  1  0.96017420  0.49588947  0.18457068  1
  Sb  Sb14  1  0.39063775  0.48982473  0.45190054  1
  Sb  Sb15  1  0.61574694  0.47268375  0.57133343  1
  Sb  Sb16  1  0.54078286  0.02587298  0.82897708  1
  Sb  Sb17  1  0.45922835  0.01505263  0.19026266  1
  S  S18  1  0.93066578  0.97379366  0.78337077  1
  S  S19  1  0.05761744  0.95386465  0.19098497  1
  S  S20  1  0.42351665  0.97362331  0.99345421  1
  S  S21  1  0.58712661  0.97658506  0.03275478  1
  S  S22  1  0.17499251  0.95943682  0.89155064  1
  S  S23  1  0.83339266  0.97148557  0.12514633  1
  S  S24  1  0.09942910  0.49565141  0.66458958  1
  S  S25  1  0.89798950  0.50942354  0.34337594  1
  S  S26  1  0.74729344  0.98213954  0.30818666  1
  S  S27  1  0.26805593  0.98705280  0.69541939  1
  S  S28  1  0.15531352  0.45178124  0.43609495  1
  S  S29  1  0.82915760  0.46981663  0.54294350  1
  S  S30  1  0.43001314  0.43448214  0.81116004  1
  S  S31  1  0.55656487  0.44435752  0.19433249  1
  S  S32  1  0.91720029  0.50258397  0.98794384  1
  S  S33  1  0.07486842  0.50999691  0.00126216  1
  S  S34  1  0.67599654  0.43171080  0.90935077  1
  S  S35  1  0.33169438  0.47637145  0.10413018  1
  S  S36  1  0.58829035  0.98731131  0.66307592  1
  S  S37  1  0.41399885  0.02286309  0.36912526  1
  S  S38  1  0.23690509  0.48799264  0.29291745  1
  S  S39  1  0.76748614  0.41547529  0.71036272  1
  S  S40  1  0.65730200  0.98919748  0.43832249  1
  S  S41  1  0.32772015  0.01455863  0.54437349  1
