# generated using pymatgen
data_Pr2Mn3(SbS3)4
_symmetry_space_group_name_H-M   'P 1'
_cell_length_a   20.02960800
_cell_length_b   3.90410600
_cell_length_c   14.95364829
_cell_angle_alpha   90.00000000
_cell_angle_beta   126.33350609
_cell_angle_gamma   90.00000000
_symmetry_Int_Tables_number   1
_chemical_formula_structural   Pr2Mn3(SbS3)4
_chemical_formula_sum   'Pr4 Mn6 Sb8 S24'
_cell_volume   942.00006694
_cell_formula_units_Z   2
loop_
 _symmetry_equiv_pos_site_id
 _symmetry_equiv_pos_as_xyz
  1  'x, y, z'
loop_
 _atom_site_type_symbol
 _atom_site_label
 _atom_site_symmetry_multiplicity
 _atom_site_fract_x
 _atom_site_fract_y
 _atom_site_fract_z
 _atom_site_occupancy
  Pr  Pr0  1  0.26802286  0.54296224  0.86882152  1
  Pr  Pr1  1  0.73208141  0.52285210  0.13783485  1
  Pr  Pr2  1  0.76677769  0.94338242  0.88249974  1
  Pr  Pr3  1  0.24146700  0.99158669  0.14635759  1
  Mn  Mn4  1  0.27828371  0.54474573  0.58627678  1
  Mn  Mn5  1  0.69763279  0.45546231  0.37466198  1
  Mn  Mn6  1  0.00112951  0.01015233  0.00327198  1
  Mn  Mn7  1  0.79107024  0.96414942  0.59840623  1
  Mn  Mn8  1  0.19152411  0.94191316  0.39867220  1
  Mn  Mn9  1  0.49595194  0.50239433  0.00247250  1
  Sb  Sb10  1  0.90307541  0.99658063  0.45806383  1
  Sb  Sb11  1  0.10067042  0.00181958  0.55070113  1
  Sb  Sb12  1  0.03487651  0.52713585  0.81311267  1
  Sb  Sb13  1  0.96024791  0.49589865  0.18476086  1
  Sb  Sb14  1  0.39083344  0.49004497  0.45203081  1
  Sb  Sb15  1  0.61572786  0.47267058  0.57126982  1
  Sb  Sb16  1  0.54081256  0.02539113  0.82927445  1
  Sb  Sb17  1  0.45922537  0.01515671  0.19002197  1
  S  S18  1  0.93054748  0.97353400  0.78335766  1
  S  S19  1  0.05761005  0.95415481  0.19066339  1
  S  S20  1  0.42358337  0.97343568  0.99366040  1
  S  S21  1  0.58725747  0.97622138  0.03291208  1
  S  S22  1  0.17528005  0.96043419  0.89192942  1
  S  S23  1  0.83377590  0.97089284  0.12546510  1
  S  S24  1  0.09921628  0.49545381  0.66471266  1
  S  S25  1  0.89804356  0.50702157  0.34336188  1
  S  S26  1  0.74696338  0.98156733  0.30812421  1
  S  S27  1  0.26822344  0.98737361  0.69527383  1
  S  S28  1  0.15514246  0.45371304  0.43545474  1
  S  S29  1  0.82943365  0.46987676  0.54317975  1
  S  S30  1  0.43008623  0.43420244  0.81159138  1
  S  S31  1  0.55716791  0.44328021  0.19461328  1
  S  S32  1  0.91697717  0.50258161  0.98770311  1
  S  S33  1  0.07500645  0.50852639  0.00140080  1
  S  S34  1  0.67608880  0.43327566  0.90976607  1
  S  S35  1  0.33158813  0.47554615  0.10404855  1
  S  S36  1  0.58852053  0.98814407  0.66314636  1
  S  S37  1  0.41389996  0.02307660  0.36905921  1
  S  S38  1  0.23708923  0.48840361  0.29305936  1
  S  S39  1  0.76718476  0.41611615  0.70993921  1
  S  S40  1  0.65716500  0.98968824  0.43804881  1
  S  S41  1  0.32761705  0.01426297  0.54405361  1
