# generated using pymatgen
data_Pr2Mn3(SbS3)4
_symmetry_space_group_name_H-M   'P 1'
_cell_length_a   20.02960800
_cell_length_b   3.90410600
_cell_length_c   14.95364829
_cell_angle_alpha   90.00000000
_cell_angle_beta   126.33350609
_cell_angle_gamma   90.00000000
_symmetry_Int_Tables_number   1
_chemical_formula_structural   Pr2Mn3(SbS3)4
_chemical_formula_sum   'Pr4 Mn6 Sb8 S24'
_cell_volume   942.00006694
_cell_formula_units_Z   2
loop_
 _symmetry_equiv_pos_site_id
 _symmetry_equiv_pos_as_xyz
  1  'x, y, z'
loop_
 _atom_site_type_symbol
 _atom_site_label
 _atom_site_symmetry_multiplicity
 _atom_site_fract_x
 _atom_site_fract_y
 _atom_site_fract_z
 _atom_site_occupancy
  Pr  Pr0  1  0.26789963  0.54343544  0.86879041  1
  Pr  Pr1  1  0.73215801  0.52265679  0.13778169  1
  Pr  Pr2  1  0.76669229  0.94314096  0.88241001  1
  Pr  Pr3  1  0.24156307  0.99183010  0.14647068  1
  Mn  Mn4  1  0.27821127  0.54453784  0.58627336  1
  Mn  Mn5  1  0.69782531  0.45511403  0.37472096  1
  Mn  Mn6  1  0.00115841  0.01155727  0.00328535  1
  Mn  Mn7  1  0.79100699  0.96410762  0.59841196  1
  Mn  Mn8  1  0.19163262  0.94145896  0.39842937  1
  Mn  Mn9  1  0.49602403  0.50359849  0.00266089  1
  Sb  Sb10  1  0.90315086  0.99666902  0.45826626  1
  Sb  Sb11  1  0.10057526  0.00107156  0.55074479  1
  Sb  Sb12  1  0.03497240  0.52719651  0.81340936  1
  Sb  Sb13  1  0.96035992  0.49580621  0.18497211  1
  Sb  Sb14  1  0.39109919  0.49026485  0.45223804  1
  Sb  Sb15  1  0.61567085  0.47275366  0.57116925  1
  Sb  Sb16  1  0.54084342  0.02498966  0.82958059  1
  Sb  Sb17  1  0.45925906  0.01573330  0.18982246  1
  S  S18  1  0.93037052  0.97321331  0.78332957  1
  S  S19  1  0.05763553  0.95404996  0.19050040  1
  S  S20  1  0.42362655  0.97326749  0.99374591  1
  S  S21  1  0.58734153  0.97589536  0.03294703  1
  S  S22  1  0.17559016  0.96140661  0.89245277  1
  S  S23  1  0.83415156  0.97029107  0.12574181  1
  S  S24  1  0.09890807  0.49497235  0.66469593  1
  S  S25  1  0.89790095  0.50522232  0.34328258  1
  S  S26  1  0.74649286  0.98089365  0.30791915  1
  S  S27  1  0.26829856  0.98873053  0.69489856  1
  S  S28  1  0.15490317  0.45463134  0.43485857  1
  S  S29  1  0.82963811  0.46955381  0.54341543  1
  S  S30  1  0.43021123  0.43398904  0.81197188  1
  S  S31  1  0.55754879  0.44264207  0.19480442  1
  S  S32  1  0.91678232  0.50265960  0.98756579  1
  S  S33  1  0.07519593  0.50731585  0.00160708  1
  S  S34  1  0.67623404  0.43460561  0.91014786  1
  S  S35  1  0.33151765  0.47431160  0.10416270  1
  S  S36  1  0.58883471  0.98864762  0.66337115  1
  S  S37  1  0.41393488  0.02307597  0.36915769  1
  S  S38  1  0.23716941  0.48826661  0.29306915  1
  S  S39  1  0.76696616  0.41738520  0.70955551  1
  S  S40  1  0.65714991  0.99011648  0.43774205  1
  S  S41  1  0.32755487  0.01434287  0.54380833  1
