# generated using pymatgen
data_Pr2Mn3(SbS3)4
_symmetry_space_group_name_H-M   'P 1'
_cell_length_a   20.02960800
_cell_length_b   3.90410600
_cell_length_c   14.95364829
_cell_angle_alpha   90.00000000
_cell_angle_beta   126.33350609
_cell_angle_gamma   90.00000000
_symmetry_Int_Tables_number   1
_chemical_formula_structural   Pr2Mn3(SbS3)4
_chemical_formula_sum   'Pr4 Mn6 Sb8 S24'
_cell_volume   942.00006694
_cell_formula_units_Z   2
loop_
 _symmetry_equiv_pos_site_id
 _symmetry_equiv_pos_as_xyz
  1  'x, y, z'
loop_
 _atom_site_type_symbol
 _atom_site_label
 _atom_site_symmetry_multiplicity
 _atom_site_fract_x
 _atom_site_fract_y
 _atom_site_fract_z
 _atom_site_occupancy
  Pr  Pr0  1  0.26692036  0.50009440  0.86458488  1
  Pr  Pr1  1  0.73497774  0.51035869  0.13485596  1
  Pr  Pr2  1  0.76349876  0.01562897  0.86122936  1
  Pr  Pr3  1  0.23462508  0.99624106  0.13369243  1
  Mn  Mn4  1  0.29017428  0.47667879  0.59089867  1
  Mn  Mn5  1  0.68557872  0.47010780  0.36547165  1
  Mn  Mn6  1  0.00799964  0.99574708  0.01826745  1
  Mn  Mn7  1  0.80362579  0.01446420  0.61944291  1
  Mn  Mn8  1  0.19807055  0.97333408  0.37296710  1
  Mn  Mn9  1  0.49076944  0.46855467  0.99015622  1
  Sb  Sb10  1  0.89113958  0.98395858  0.45250268  1
  Sb  Sb11  1  0.11124352  0.98008932  0.54429893  1
  Sb  Sb12  1  0.03684206  0.51954101  0.81990816  1
  Sb  Sb13  1  0.96401098  0.50117454  0.18691159  1
  Sb  Sb14  1  0.39503533  0.49750965  0.45099060  1
  Sb  Sb15  1  0.60628113  0.46674664  0.54917714  1
  Sb  Sb16  1  0.53416961  0.99222287  0.80832614  1
  Sb  Sb17  1  0.46572763  0.02318271  0.19154952  1
  S  S18  1  0.93869001  0.00935958  0.81093682  1
  S  S19  1  0.06412390  0.97677661  0.19931589  1
  S  S20  1  0.42081535  0.95862710  0.98774830  1
  S  S21  1  0.58352859  0.03208528  0.01576708  1
  S  S22  1  0.17302449  0.05908836  0.90379827  1
  S  S23  1  0.82962233  0.04987171  0.10249763  1
  S  S24  1  0.09426186  0.48779446  0.64898110  1
  S  S25  1  0.91521995  0.49040680  0.35815581  1
  S  S26  1  0.73530923  0.95876686  0.29807469  1
  S  S27  1  0.26172541  0.00848770  0.70784733  1
  S  S28  1  0.16090229  0.51528409  0.42828391  1
  S  S29  1  0.82317299  0.48780526  0.55071073  1
  S  S30  1  0.42870010  0.48773768  0.79565701  1
  S  S31  1  0.55199680  0.52397130  0.18004263  1
  S  S32  1  0.91438640  0.48719427  0.98832259  1
  S  S33  1  0.09099792  0.50080505  0.03275175  1
  S  S34  1  0.66319228  0.53466654  0.88760231  1
  S  S35  1  0.32913812  0.51081910  0.09649597  1
  S  S36  1  0.60017384  0.00192320  0.65976416  1
  S  S37  1  0.40161271  0.98085544  0.34167981  1
  S  S38  1  0.24017511  0.47390746  0.31225259  1
  S  S39  1  0.76207035  0.51450756  0.69126100  1
  S  S40  1  0.66499933  0.01772949  0.44804177  1
  S  S41  1  0.33071029  0.97497618  0.55697804  1
