# generated using pymatgen
data_Pr2Mn3(SbS3)4
_symmetry_space_group_name_H-M   'P 1'
_cell_length_a   20.02960800
_cell_length_b   3.90410600
_cell_length_c   14.95364829
_cell_angle_alpha   90.00000000
_cell_angle_beta   126.33350609
_cell_angle_gamma   90.00000000
_symmetry_Int_Tables_number   1
_chemical_formula_structural   Pr2Mn3(SbS3)4
_chemical_formula_sum   'Pr4 Mn6 Sb8 S24'
_cell_volume   942.00006694
_cell_formula_units_Z   2
loop_
 _symmetry_equiv_pos_site_id
 _symmetry_equiv_pos_as_xyz
  1  'x, y, z'
loop_
 _atom_site_type_symbol
 _atom_site_label
 _atom_site_symmetry_multiplicity
 _atom_site_fract_x
 _atom_site_fract_y
 _atom_site_fract_z
 _atom_site_occupancy
  Pr  Pr0  1  0.26782728  0.54398971  0.86881414  1
  Pr  Pr1  1  0.73217783  0.52232780  0.13767240  1
  Pr  Pr2  1  0.76663508  0.94310746  0.88238635  1
  Pr  Pr3  1  0.24170436  0.99214763  0.14660811  1
  Mn  Mn4  1  0.27803842  0.54423925  0.58620114  1
  Mn  Mn5  1  0.69799153  0.45469643  0.37461286  1
  Mn  Mn6  1  0.00114280  0.01306446  0.00323422  1
  Mn  Mn7  1  0.79100556  0.96417849  0.59850896  1
  Mn  Mn8  1  0.19174579  0.94126516  0.39845581  1
  Mn  Mn9  1  0.49605776  0.50452116  0.00279461  1
  Sb  Sb10  1  0.90315317  0.99658430  0.45836258  1
  Sb  Sb11  1  0.10055237  0.00078892  0.55094012  1
  Sb  Sb12  1  0.03503701  0.52713934  0.81369696  1
  Sb  Sb13  1  0.96046360  0.49554890  0.18516501  1
  Sb  Sb14  1  0.39136005  0.49093574  0.45243071  1
  Sb  Sb15  1  0.61561676  0.47279022  0.57098137  1
  Sb  Sb16  1  0.54088747  0.02466145  0.82989191  1
  Sb  Sb17  1  0.45929573  0.01632769  0.18958935  1
  S  S18  1  0.93020275  0.97301771  0.78331254  1
  S  S19  1  0.05771946  0.95441825  0.19021974  1
  S  S20  1  0.42377632  0.97357367  0.99388435  1
  S  S21  1  0.58749410  0.97603727  0.03310246  1
  S  S22  1  0.17596507  0.96227097  0.89297700  1
  S  S23  1  0.83447692  0.96989489  0.12603651  1
  S  S24  1  0.09861954  0.49464284  0.66484654  1
  S  S25  1  0.89791649  0.50374121  0.34327199  1
  S  S26  1  0.74606480  0.98069666  0.30782696  1
  S  S27  1  0.26829009  0.99023929  0.69461183  1
  S  S28  1  0.15466004  0.45517962  0.43413765  1
  S  S29  1  0.82976793  0.46932586  0.54342294  1
  S  S30  1  0.43033310  0.43367276  0.81228464  1
  S  S31  1  0.55787317  0.44231754  0.19507578  1
  S  S32  1  0.91688304  0.50348723  0.98778438  1
  S  S33  1  0.07524939  0.50577071  0.00173061  1
  S  S34  1  0.67636751  0.43555627  0.91049312  1
  S  S35  1  0.33130774  0.47284538  0.10406162  1
  S  S36  1  0.58913341  0.98824852  0.66362389  1
  S  S37  1  0.41395077  0.02260358  0.36920119  1
  S  S38  1  0.23744012  0.48790222  0.29326384  1
  S  S39  1  0.76687509  0.41858577  0.70932233  1
  S  S40  1  0.65711753  0.99103490  0.43746115  1
  S  S41  1  0.32730608  0.01437147  0.54349677  1
