# generated using pymatgen
data_Pr2Mn3(SbS3)4
_symmetry_space_group_name_H-M   'P 1'
_cell_length_a   20.02960800
_cell_length_b   3.90410600
_cell_length_c   14.95364829
_cell_angle_alpha   90.00000000
_cell_angle_beta   126.33350609
_cell_angle_gamma   90.00000000
_symmetry_Int_Tables_number   1
_chemical_formula_structural   Pr2Mn3(SbS3)4
_chemical_formula_sum   'Pr4 Mn6 Sb8 S24'
_cell_volume   942.00006694
_cell_formula_units_Z   2
loop_
 _symmetry_equiv_pos_site_id
 _symmetry_equiv_pos_as_xyz
  1  'x, y, z'
loop_
 _atom_site_type_symbol
 _atom_site_label
 _atom_site_symmetry_multiplicity
 _atom_site_fract_x
 _atom_site_fract_y
 _atom_site_fract_z
 _atom_site_occupancy
  Pr  Pr0  1  0.26772000  0.54444015  0.86885453  1
  Pr  Pr1  1  0.73218387  0.52169650  0.13764430  1
  Pr  Pr2  1  0.76657246  0.94311977  0.88232171  1
  Pr  Pr3  1  0.24181865  0.99235117  0.14674349  1
  Mn  Mn4  1  0.27794240  0.54380146  0.58608477  1
  Mn  Mn5  1  0.69810977  0.45434884  0.37448825  1
  Mn  Mn6  1  0.00112454  0.01405926  0.00311853  1
  Mn  Mn7  1  0.79109037  0.96462790  0.59858685  1
  Mn  Mn8  1  0.19173823  0.94100371  0.39837814  1
  Mn  Mn9  1  0.49622717  0.50569211  0.00296299  1
  Sb  Sb10  1  0.90315729  0.99669254  0.45839287  1
  Sb  Sb11  1  0.10044025  0.00054564  0.55104130  1
  Sb  Sb12  1  0.03506669  0.52686103  0.81394041  1
  Sb  Sb13  1  0.96051314  0.49510660  0.18532909  1
  Sb  Sb14  1  0.39166715  0.49136206  0.45265354  1
  Sb  Sb15  1  0.61563303  0.47267368  0.57087917  1
  Sb  Sb16  1  0.54090551  0.02428895  0.83013022  1
  Sb  Sb17  1  0.45927632  0.01698904  0.18922091  1
  S  S18  1  0.93000962  0.97230369  0.78333348  1
  S  S19  1  0.05789819  0.95490856  0.18998530  1
  S  S20  1  0.42385325  0.97395932  0.99401446  1
  S  S21  1  0.58753087  0.97615136  0.03299080  1
  S  S22  1  0.17625450  0.96250220  0.89329484  1
  S  S23  1  0.83480277  0.97009058  0.12629268  1
  S  S24  1  0.09812087  0.49414621  0.66473006  1
  S  S25  1  0.89800026  0.50236983  0.34329475  1
  S  S26  1  0.74558078  0.98011854  0.30777432  1
  S  S27  1  0.26817526  0.99162500  0.69435342  1
  S  S28  1  0.15436090  0.45524068  0.43344622  1
  S  S29  1  0.82989232  0.46951480  0.54336354  1
  S  S30  1  0.43040223  0.43337173  0.81257820  1
  S  S31  1  0.55815381  0.44252926  0.19529053  1
  S  S32  1  0.91692196  0.50456831  0.98809882  1
  S  S33  1  0.07536803  0.50415367  0.00188281  1
  S  S34  1  0.67647912  0.43643515  0.91079202  1
  S  S35  1  0.33119053  0.47192231  0.10392135  1
  S  S36  1  0.58929157  0.98787378  0.66377620  1
  S  S37  1  0.41396539  0.02130393  0.36949079  1
  S  S38  1  0.23776518  0.48734258  0.29347356  1
  S  S39  1  0.76688487  0.41962824  0.70916784  1
  S  S40  1  0.65710317  0.99150056  0.43711785  1
  S  S41  1  0.32708416  0.01481409  0.54317619  1
