# generated using pymatgen
data_Pr2Mn3(SbS3)4
_symmetry_space_group_name_H-M   'P 1'
_cell_length_a   20.02960800
_cell_length_b   3.90410600
_cell_length_c   14.95364829
_cell_angle_alpha   90.00000000
_cell_angle_beta   126.33350609
_cell_angle_gamma   90.00000000
_symmetry_Int_Tables_number   1
_chemical_formula_structural   Pr2Mn3(SbS3)4
_chemical_formula_sum   'Pr4 Mn6 Sb8 S24'
_cell_volume   942.00006694
_cell_formula_units_Z   2
loop_
 _symmetry_equiv_pos_site_id
 _symmetry_equiv_pos_as_xyz
  1  'x, y, z'
loop_
 _atom_site_type_symbol
 _atom_site_label
 _atom_site_symmetry_multiplicity
 _atom_site_fract_x
 _atom_site_fract_y
 _atom_site_fract_z
 _atom_site_occupancy
  Pr  Pr0  1  0.26760242  0.54478141  0.86892388  1
  Pr  Pr1  1  0.73221643  0.52122728  0.13765174  1
  Pr  Pr2  1  0.76655286  0.94315811  0.88229372  1
  Pr  Pr3  1  0.24192152  0.99223911  0.14685761  1
  Mn  Mn4  1  0.27788543  0.54393616  0.58593065  1
  Mn  Mn5  1  0.69821083  0.45434087  0.37426176  1
  Mn  Mn6  1  0.00095647  0.01477462  0.00295059  1
  Mn  Mn7  1  0.79125684  0.96496719  0.59866718  1
  Mn  Mn8  1  0.19176778  0.94116061  0.39831017  1
  Mn  Mn9  1  0.49654828  0.50659372  0.00322066  1
  Sb  Sb10  1  0.90309625  0.99694185  0.45837381  1
  Sb  Sb11  1  0.10027330  0.00034045  0.55105162  1
  Sb  Sb12  1  0.03514092  0.52650805  0.81421048  1
  Sb  Sb13  1  0.96052793  0.49497073  0.18562001  1
  Sb  Sb14  1  0.39195881  0.49180257  0.45292799  1
  Sb  Sb15  1  0.61564682  0.47247498  0.57072358  1
  Sb  Sb16  1  0.54090271  0.02383221  0.83034812  1
  Sb  Sb17  1  0.45923653  0.01720292  0.18887400  1
  S  S18  1  0.92974635  0.97165485  0.78340488  1
  S  S19  1  0.05808763  0.95490625  0.18967822  1
  S  S20  1  0.42388977  0.97401099  0.99413172  1
  S  S21  1  0.58755457  0.97600383  0.03257648  1
  S  S22  1  0.17646788  0.96279483  0.89343233  1
  S  S23  1  0.83510140  0.97055171  0.12655241  1
  S  S24  1  0.09763084  0.49404455  0.66449581  1
  S  S25  1  0.89799396  0.50067681  0.34337219  1
  S  S26  1  0.74520790  0.98006791  0.30779436  1
  S  S27  1  0.26797918  0.99258908  0.69406022  1
  S  S28  1  0.15426223  0.45502333  0.43294256  1
  S  S29  1  0.82996123  0.46976785  0.54339510  1
  S  S30  1  0.43050855  0.43275381  0.81303952  1
  S  S31  1  0.55839591  0.44309894  0.19545819  1
  S  S32  1  0.91690205  0.50576269  0.98826428  1
  S  S33  1  0.07549090  0.50221014  0.00214452  1
  S  S34  1  0.67647309  0.43731306  0.91099776  1
  S  S35  1  0.33107739  0.47152697  0.10385655  1
  S  S36  1  0.58953953  0.98717969  0.66400533  1
  S  S37  1  0.41405990  0.01981881  0.36983385  1
  S  S38  1  0.23809628  0.48690116  0.29372758  1
  S  S39  1  0.76685429  0.42029201  0.70903102  1
  S  S40  1  0.65724345  0.99196805  0.43703466  1
  S  S41  1  0.32695397  0.01524097  0.54307491  1
