# generated using pymatgen
data_Pr2Mn3(SbS3)4
_symmetry_space_group_name_H-M   'P 1'
_cell_length_a   20.02960800
_cell_length_b   3.90410600
_cell_length_c   14.95364829
_cell_angle_alpha   90.00000000
_cell_angle_beta   126.33350609
_cell_angle_gamma   90.00000000
_symmetry_Int_Tables_number   1
_chemical_formula_structural   Pr2Mn3(SbS3)4
_chemical_formula_sum   'Pr4 Mn6 Sb8 S24'
_cell_volume   942.00006694
_cell_formula_units_Z   2
loop_
 _symmetry_equiv_pos_site_id
 _symmetry_equiv_pos_as_xyz
  1  'x, y, z'
loop_
 _atom_site_type_symbol
 _atom_site_label
 _atom_site_symmetry_multiplicity
 _atom_site_fract_x
 _atom_site_fract_y
 _atom_site_fract_z
 _atom_site_occupancy
  Pr  Pr0  1  0.26750270  0.54497427  0.86915692  1
  Pr  Pr1  1  0.73222992  0.52070313  0.13768187  1
  Pr  Pr2  1  0.76657801  0.94325351  0.88228003  1
  Pr  Pr3  1  0.24200635  0.99261375  0.14695567  1
  Mn  Mn4  1  0.27799464  0.54406943  0.58582811  1
  Mn  Mn5  1  0.69830655  0.45456124  0.37417533  1
  Mn  Mn6  1  0.00087616  0.01589192  0.00294511  1
  Mn  Mn7  1  0.79145896  0.96575857  0.59872657  1
  Mn  Mn8  1  0.19180292  0.94159665  0.39830040  1
  Mn  Mn9  1  0.49690376  0.50722786  0.00357535  1
  Sb  Sb10  1  0.90298371  0.99695556  0.45833193  1
  Sb  Sb11  1  0.10015650  0.00041927  0.55106922  1
  Sb  Sb12  1  0.03523264  0.52597620  0.81445272  1
  Sb  Sb13  1  0.96049910  0.49481070  0.18586708  1
  Sb  Sb14  1  0.39218735  0.49231436  0.45307045  1
  Sb  Sb15  1  0.61568657  0.47222306  0.57057286  1
  Sb  Sb16  1  0.54083162  0.02322424  0.83048635  1
  Sb  Sb17  1  0.45922884  0.01738100  0.18861196  1
  S  S18  1  0.92949488  0.97073052  0.78341279  1
  S  S19  1  0.05839768  0.95507121  0.18958823  1
  S  S20  1  0.42380518  0.97407181  0.99419071  1
  S  S21  1  0.58758711  0.97570116  0.03202716  1
  S  S22  1  0.17662296  0.96272385  0.89346249  1
  S  S23  1  0.83532079  0.97088414  0.12679134  1
  S  S24  1  0.09726954  0.49425993  0.66425662  1
  S  S25  1  0.89812932  0.49903759  0.34349285  1
  S  S26  1  0.74471674  0.98015232  0.30766668  1
  S  S27  1  0.26772011  0.99359525  0.69370439  1
  S  S28  1  0.15415487  0.45434438  0.43255745  1
  S  S29  1  0.83010143  0.47005575  0.54353330  1
  S  S30  1  0.43057250  0.43233697  0.81332319  1
  S  S31  1  0.55878623  0.44382680  0.19587759  1
  S  S32  1  0.91677328  0.50693725  0.98847170  1
  S  S33  1  0.07555721  0.50035395  0.00243207  1
  S  S34  1  0.67633896  0.43850842  0.91089699  1
  S  S35  1  0.33094952  0.47054353  0.10366947  1
  S  S36  1  0.58984307  0.98624488  0.66430184  1
  S  S37  1  0.41414739  0.01841209  0.37007199  1
  S  S38  1  0.23845529  0.48670688  0.29386968  1
  S  S39  1  0.76690057  0.42156270  0.70883574  1
  S  S40  1  0.65744820  0.99254210  0.43706359  1
  S  S41  1  0.32671888  0.01517628  0.54280875  1
