# generated using pymatgen
data_Pr2Mn3(SbS3)4
_symmetry_space_group_name_H-M   'P 1'
_cell_length_a   20.02960800
_cell_length_b   3.90410600
_cell_length_c   14.95364829
_cell_angle_alpha   90.00000000
_cell_angle_beta   126.33350609
_cell_angle_gamma   90.00000000
_symmetry_Int_Tables_number   1
_chemical_formula_structural   Pr2Mn3(SbS3)4
_chemical_formula_sum   'Pr4 Mn6 Sb8 S24'
_cell_volume   942.00006694
_cell_formula_units_Z   2
loop_
 _symmetry_equiv_pos_site_id
 _symmetry_equiv_pos_as_xyz
  1  'x, y, z'
loop_
 _atom_site_type_symbol
 _atom_site_label
 _atom_site_symmetry_multiplicity
 _atom_site_fract_x
 _atom_site_fract_y
 _atom_site_fract_z
 _atom_site_occupancy
  Pr  Pr0  1  0.26740593  0.54492230  0.86933251  1
  Pr  Pr1  1  0.73212423  0.52037604  0.13751408  1
  Pr  Pr2  1  0.76658718  0.94327497  0.88229596  1
  Pr  Pr3  1  0.24210157  0.99283177  0.14706614  1
  Mn  Mn4  1  0.27815050  0.54420116  0.58572464  1
  Mn  Mn5  1  0.69827193  0.45482410  0.37395641  1
  Mn  Mn6  1  0.00082321  0.01684321  0.00293499  1
  Mn  Mn7  1  0.79167742  0.96678604  0.59885373  1
  Mn  Mn8  1  0.19172263  0.94216132  0.39817527  1
  Mn  Mn9  1  0.49728077  0.50794023  0.00394656  1
  Sb  Sb10  1  0.90283802  0.99711101  0.45822206  1
  Sb  Sb11  1  0.09995278  0.00035116  0.55092435  1
  Sb  Sb12  1  0.03531754  0.52554562  0.81466530  1
  Sb  Sb13  1  0.96051653  0.49499507  0.18619151  1
  Sb  Sb14  1  0.39242160  0.49247985  0.45322359  1
  Sb  Sb15  1  0.61569317  0.47198810  0.57043458  1
  Sb  Sb16  1  0.54079492  0.02263704  0.83064442  1
  Sb  Sb17  1  0.45917494  0.01746529  0.18827930  1
  S  S18  1  0.92916458  0.97048276  0.78331255  1
  S  S19  1  0.05869815  0.95503448  0.18943815  1
  S  S20  1  0.42361167  0.97365414  0.99431086  1
  S  S21  1  0.58779180  0.97552454  0.03170233  1
  S  S22  1  0.17671106  0.96259105  0.89336727  1
  S  S23  1  0.83536169  0.97143001  0.12698266  1
  S  S24  1  0.09703718  0.49492836  0.66409617  1
  S  S25  1  0.89843030  0.49795438  0.34377774  1
  S  S26  1  0.74424766  0.97948780  0.30757409  1
  S  S27  1  0.26759821  0.99523531  0.69340163  1
  S  S28  1  0.15399845  0.45352447  0.43226856  1
  S  S29  1  0.83025438  0.47032432  0.54363597  1
  S  S30  1  0.43053445  0.43160012  0.81345599  1
  S  S31  1  0.55909231  0.44412118  0.19621774  1
  S  S32  1  0.91663835  0.50746552  0.98862252  1
  S  S33  1  0.07568713  0.49841987  0.00273020  1
  S  S34  1  0.67622927  0.43985907  0.91061727  1
  S  S35  1  0.33095297  0.46947485  0.10361711  1
  S  S36  1  0.59008937  0.98590784  0.66447224  1
  S  S37  1  0.41418256  0.01749996  0.37005410  1
  S  S38  1  0.23876842  0.48658491  0.29395230  1
  S  S39  1  0.76701707  0.42259154  0.70878202  1
  S  S40  1  0.65753541  0.99301460  0.43704214  1
  S  S41  1  0.32656357  0.01506574  0.54261131  1
