# generated using pymatgen
data_Pr2Mn3(SbS3)4
_symmetry_space_group_name_H-M   'P 1'
_cell_length_a   20.02960800
_cell_length_b   3.90410600
_cell_length_c   14.95364829
_cell_angle_alpha   90.00000000
_cell_angle_beta   126.33350609
_cell_angle_gamma   90.00000000
_symmetry_Int_Tables_number   1
_chemical_formula_structural   Pr2Mn3(SbS3)4
_chemical_formula_sum   'Pr4 Mn6 Sb8 S24'
_cell_volume   942.00006694
_cell_formula_units_Z   2
loop_
 _symmetry_equiv_pos_site_id
 _symmetry_equiv_pos_as_xyz
  1  'x, y, z'
loop_
 _atom_site_type_symbol
 _atom_site_label
 _atom_site_symmetry_multiplicity
 _atom_site_fract_x
 _atom_site_fract_y
 _atom_site_fract_z
 _atom_site_occupancy
  Pr  Pr0  1  0.26731788  0.54481535  0.86941226  1
  Pr  Pr1  1  0.73201825  0.52041780  0.13739691  1
  Pr  Pr2  1  0.76669420  0.94334463  0.88234128  1
  Pr  Pr3  1  0.24217450  0.99286321  0.14727626  1
  Mn  Mn4  1  0.27820973  0.54442184  0.58548504  1
  Mn  Mn5  1  0.69815524  0.45499422  0.37369691  1
  Mn  Mn6  1  0.00084754  0.01740390  0.00288291  1
  Mn  Mn7  1  0.79195377  0.96820948  0.59893359  1
  Mn  Mn8  1  0.19162587  0.94249042  0.39796742  1
  Mn  Mn9  1  0.49765200  0.50827862  0.00424728  1
  Sb  Sb10  1  0.90267692  0.99719483  0.45799042  1
  Sb  Sb11  1  0.09979659  0.99997651  0.55079921  1
  Sb  Sb12  1  0.03536854  0.52492405  0.81487506  1
  Sb  Sb13  1  0.96038559  0.49518248  0.18636343  1
  Sb  Sb14  1  0.39257386  0.49256708  0.45335455  1
  Sb  Sb15  1  0.61571080  0.47165248  0.57030247  1
  Sb  Sb16  1  0.54080665  0.02203119  0.83097789  1
  Sb  Sb17  1  0.45914048  0.01761320  0.18801655  1
  S  S18  1  0.92867030  0.97057389  0.78299677  1
  S  S19  1  0.05885291  0.95546568  0.18929108  1
  S  S20  1  0.42335595  0.97333912  0.99427669  1
  S  S21  1  0.58798342  0.97593273  0.03155997  1
  S  S22  1  0.17692876  0.96289217  0.89362061  1
  S  S23  1  0.83554321  0.97212569  0.12722599  1
  S  S24  1  0.09707959  0.49590746  0.66421110  1
  S  S25  1  0.89858195  0.49663922  0.34395284  1
  S  S26  1  0.74388067  0.97808254  0.30742195  1
  S  S27  1  0.26750236  0.99579080  0.69346794  1
  S  S28  1  0.15382211  0.45293808  0.43201195  1
  S  S29  1  0.83032275  0.47019632  0.54389544  1
  S  S30  1  0.43052546  0.43161167  0.81367261  1
  S  S31  1  0.55932543  0.44463631  0.19647585  1
  S  S32  1  0.91654990  0.50774104  0.98871958  1
  S  S33  1  0.07587097  0.49718957  0.00321119  1
  S  S34  1  0.67620973  0.44094725  0.91033973  1
  S  S35  1  0.33093290  0.46811442  0.10358615  1
  S  S36  1  0.59051873  0.98543094  0.66511041  1
  S  S37  1  0.41408427  0.01689616  0.37005069  1
  S  S38  1  0.23900110  0.48613432  0.29403736  1
  S  S39  1  0.76712311  0.42383598  0.70857245  1
  S  S40  1  0.65776142  0.99351578  0.43711523  1
  S  S41  1  0.32636088  0.01472084  0.54245555  1
