# generated using pymatgen
data_Pr2Mn3(SbS3)4
_symmetry_space_group_name_H-M   'P 1'
_cell_length_a   20.02960800
_cell_length_b   3.90410600
_cell_length_c   14.95364829
_cell_angle_alpha   90.00000000
_cell_angle_beta   126.33350609
_cell_angle_gamma   90.00000000
_symmetry_Int_Tables_number   1
_chemical_formula_structural   Pr2Mn3(SbS3)4
_chemical_formula_sum   'Pr4 Mn6 Sb8 S24'
_cell_volume   942.00006694
_cell_formula_units_Z   2
loop_
 _symmetry_equiv_pos_site_id
 _symmetry_equiv_pos_as_xyz
  1  'x, y, z'
loop_
 _atom_site_type_symbol
 _atom_site_label
 _atom_site_symmetry_multiplicity
 _atom_site_fract_x
 _atom_site_fract_y
 _atom_site_fract_z
 _atom_site_occupancy
  Pr  Pr0  1  0.26725479  0.54474521  0.86948640  1
  Pr  Pr1  1  0.73184307  0.52046128  0.13724359  1
  Pr  Pr2  1  0.76675763  0.94371850  0.88241044  1
  Pr  Pr3  1  0.24222006  0.99260500  0.14741565  1
  Mn  Mn4  1  0.27811490  0.54490063  0.58511047  1
  Mn  Mn5  1  0.69810224  0.45551105  0.37347992  1
  Mn  Mn6  1  0.00085537  0.01799209  0.00274578  1
  Mn  Mn7  1  0.79208047  0.96922812  0.59888993  1
  Mn  Mn8  1  0.19154478  0.94250764  0.39787019  1
  Mn  Mn9  1  0.49802055  0.50891248  0.00457968  1
  Sb  Sb10  1  0.90258781  0.99728033  0.45790982  1
  Sb  Sb11  1  0.09966901  0.99946522  0.55069203  1
  Sb  Sb12  1  0.03540523  0.52456274  0.81505341  1
  Sb  Sb13  1  0.96028491  0.49546690  0.18655022  1
  Sb  Sb14  1  0.39266868  0.49261942  0.45346231  1
  Sb  Sb15  1  0.61576931  0.47133898  0.57024124  1
  Sb  Sb16  1  0.54070998  0.02164228  0.83118361  1
  Sb  Sb17  1  0.45903213  0.01776989  0.18773914  1
  S  S18  1  0.92838582  0.96998313  0.78297847  1
  S  S19  1  0.05906977  0.95579515  0.18923835  1
  S  S20  1  0.42314944  0.97274168  0.99422063  1
  S  S21  1  0.58826625  0.97578917  0.03148556  1
  S  S22  1  0.17705103  0.96296439  0.89378306  1
  S  S23  1  0.83581191  0.97281042  0.12762164  1
  S  S24  1  0.09712014  0.49754631  0.66437833  1
  S  S25  1  0.89871991  0.49616602  0.34423046  1
  S  S26  1  0.74366859  0.97692466  0.30725000  1
  S  S27  1  0.26729748  0.99576435  0.69362463  1
  S  S28  1  0.15373821  0.45240892  0.43185342  1
  S  S29  1  0.83023769  0.46947496  0.54410092  1
  S  S30  1  0.43043921  0.43233721  0.81368686  1
  S  S31  1  0.55955218  0.44491774  0.19690172  1
  S  S32  1  0.91656122  0.50829987  0.98878254  1
  S  S33  1  0.07600791  0.49557508  0.00355556  1
  S  S34  1  0.67613731  0.44154330  0.90982887  1
  S  S35  1  0.33107037  0.46683092  0.10346914  1
  S  S36  1  0.59105429  0.98450619  0.66581408  1
  S  S37  1  0.41408058  0.01609986  0.37005437  1
  S  S38  1  0.23928567  0.48542849  0.29417559  1
  S  S39  1  0.76728470  0.42475276  0.70832030  1
  S  S40  1  0.65790939  0.99430573  0.43704948  1
  S  S41  1  0.32615948  0.01484857  0.54239829  1
