# generated using pymatgen
data_Pr2Mn3(SbS3)4
_symmetry_space_group_name_H-M   'P 1'
_cell_length_a   20.02960800
_cell_length_b   3.90410600
_cell_length_c   14.95364829
_cell_angle_alpha   90.00000000
_cell_angle_beta   126.33350609
_cell_angle_gamma   90.00000000
_symmetry_Int_Tables_number   1
_chemical_formula_structural   Pr2Mn3(SbS3)4
_chemical_formula_sum   'Pr4 Mn6 Sb8 S24'
_cell_volume   942.00006694
_cell_formula_units_Z   2
loop_
 _symmetry_equiv_pos_site_id
 _symmetry_equiv_pos_as_xyz
  1  'x, y, z'
loop_
 _atom_site_type_symbol
 _atom_site_label
 _atom_site_symmetry_multiplicity
 _atom_site_fract_x
 _atom_site_fract_y
 _atom_site_fract_z
 _atom_site_occupancy
  Pr  Pr0  1  0.26716851  0.54477901  0.86941621  1
  Pr  Pr1  1  0.73167863  0.52065756  0.13710991  1
  Pr  Pr2  1  0.76679628  0.94411323  0.88242781  1
  Pr  Pr3  1  0.24228167  0.99223387  0.14757515  1
  Mn  Mn4  1  0.27799761  0.54559966  0.58479161  1
  Mn  Mn5  1  0.69820129  0.45619923  0.37344723  1
  Mn  Mn6  1  0.00094801  0.01857012  0.00283455  1
  Mn  Mn7  1  0.79208858  0.97023549  0.59869273  1
  Mn  Mn8  1  0.19142962  0.94282825  0.39786422  1
  Mn  Mn9  1  0.49823365  0.50931413  0.00466958  1
  Sb  Sb10  1  0.90251082  0.99755074  0.45782713  1
  Sb  Sb11  1  0.09957152  0.99922225  0.55071451  1
  Sb  Sb12  1  0.03542223  0.52391154  0.81515574  1
  Sb  Sb13  1  0.96016367  0.49552938  0.18662869  1
  Sb  Sb14  1  0.39269514  0.49299040  0.45360756  1
  Sb  Sb15  1  0.61584210  0.47118783  0.57014954  1
  Sb  Sb16  1  0.54064113  0.02166780  0.83142038  1
  Sb  Sb17  1  0.45887372  0.01791344  0.18736927  1
  S  S18  1  0.92810343  0.96897799  0.78292330  1
  S  S19  1  0.05930883  0.95611928  0.18920498  1
  S  S20  1  0.42310636  0.97273794  0.99422617  1
  S  S21  1  0.58859033  0.97542513  0.03139952  1
  S  S22  1  0.17718555  0.96346510  0.89396166  1
  S  S23  1  0.83577335  0.97400657  0.12771946  1
  S  S24  1  0.09726905  0.49883586  0.66432752  1
  S  S25  1  0.89888800  0.49556681  0.34452070  1
  S  S26  1  0.74356817  0.97585984  0.30728420  1
  S  S27  1  0.26730938  0.99693851  0.69399728  1
  S  S28  1  0.15373868  0.45216176  0.43193773  1
  S  S29  1  0.82998094  0.46896509  0.54415767  1
  S  S30  1  0.43048443  0.43311969  0.81363176  1
  S  S31  1  0.55952956  0.44497986  0.19699830  1
  S  S32  1  0.91648995  0.50849866  0.98866144  1
  S  S33  1  0.07619778  0.49437198  0.00398131  1
  S  S34  1  0.67616113  0.44267194  0.90940894  1
  S  S35  1  0.33130617  0.46604304  0.10350826  1
  S  S36  1  0.59144053  0.98374130  0.66639363  1
  S  S37  1  0.41398283  0.01633576  0.36986105  1
  S  S38  1  0.23958194  0.48469090  0.29414094  1
  S  S39  1  0.76750940  0.42510503  0.70803394  1
  S  S40  1  0.65805837  0.99508625  0.43706027  1
  S  S41  1  0.32583777  0.01498394  0.54228039  1
