# generated using pymatgen
data_Pr2Mn3(SbS3)4
_symmetry_space_group_name_H-M   'P 1'
_cell_length_a   20.02960800
_cell_length_b   3.90410600
_cell_length_c   14.95364829
_cell_angle_alpha   90.00000000
_cell_angle_beta   126.33350609
_cell_angle_gamma   90.00000000
_symmetry_Int_Tables_number   1
_chemical_formula_structural   Pr2Mn3(SbS3)4
_chemical_formula_sum   'Pr4 Mn6 Sb8 S24'
_cell_volume   942.00006694
_cell_formula_units_Z   2
loop_
 _symmetry_equiv_pos_site_id
 _symmetry_equiv_pos_as_xyz
  1  'x, y, z'
loop_
 _atom_site_type_symbol
 _atom_site_label
 _atom_site_symmetry_multiplicity
 _atom_site_fract_x
 _atom_site_fract_y
 _atom_site_fract_z
 _atom_site_occupancy
  Pr  Pr0  1  0.26706046  0.54494939  0.86929812  1
  Pr  Pr1  1  0.73163105  0.52087969  0.13707143  1
  Pr  Pr2  1  0.76693603  0.94461593  0.88258626  1
  Pr  Pr3  1  0.24237431  0.99192843  0.14772909  1
  Mn  Mn4  1  0.27792030  0.54596335  0.58458822  1
  Mn  Mn5  1  0.69833820  0.45721870  0.37369430  1
  Mn  Mn6  1  0.00098728  0.01877528  0.00281390  1
  Mn  Mn7  1  0.79206076  0.97120433  0.59844215  1
  Mn  Mn8  1  0.19141988  0.94337888  0.39797037  1
  Mn  Mn9  1  0.49852469  0.50921479  0.00477642  1
  Sb  Sb10  1  0.90241340  0.99750657  0.45772477  1
  Sb  Sb11  1  0.09946633  0.99906816  0.55067782  1
  Sb  Sb12  1  0.03542365  0.52346487  0.81525075  1
  Sb  Sb13  1  0.96007177  0.49563327  0.18666729  1
  Sb  Sb14  1  0.39272029  0.49360398  0.45369225  1
  Sb  Sb15  1  0.61590006  0.47137981  0.57019347  1
  Sb  Sb16  1  0.54062991  0.02169444  0.83178537  1
  Sb  Sb17  1  0.45873844  0.01786516  0.18709858  1
  S  S18  1  0.92796869  0.96784767  0.78279456  1
  S  S19  1  0.05958830  0.95651837  0.18912686  1
  S  S20  1  0.42311378  0.97342883  0.99416062  1
  S  S21  1  0.58887469  0.97522445  0.03148776  1
  S  S22  1  0.17737139  0.96341252  0.89416091  1
  S  S23  1  0.83577530  0.97514390  0.12774881  1
  S  S24  1  0.09751503  0.50029237  0.66435040  1
  S  S25  1  0.89892986  0.49426624  0.34470295  1
  S  S26  1  0.74343035  0.97583549  0.30736165  1
  S  S27  1  0.26741259  0.99825392  0.69430055  1
  S  S28  1  0.15374215  0.45233336  0.43194137  1
  S  S29  1  0.82956114  0.46880858  0.54401289  1
  S  S30  1  0.43048976  0.43398401  0.81355052  1
  S  S31  1  0.55962616  0.44528571  0.19714905  1
  S  S32  1  0.91628777  0.50858465  0.98850435  1
  S  S33  1  0.07636653  0.49401704  0.00443673  1
  S  S34  1  0.67631950  0.44340940  0.90891071  1
  S  S35  1  0.33156890  0.46583328  0.10354999  1
  S  S36  1  0.59175087  0.98277648  0.66705715  1
  S  S37  1  0.41400267  0.01659222  0.36971805  1
  S  S38  1  0.23981918  0.48428132  0.29408751  1
  S  S39  1  0.76763018  0.42520740  0.70780924  1
  S  S40  1  0.65825615  0.99610274  0.43718614  1
  S  S41  1  0.32567528  0.01454459  0.54227145  1
