# generated using pymatgen
data_Pr2Mn3(SbS3)4
_symmetry_space_group_name_H-M   'P 1'
_cell_length_a   20.02960800
_cell_length_b   3.90410600
_cell_length_c   14.95364829
_cell_angle_alpha   90.00000000
_cell_angle_beta   126.33350609
_cell_angle_gamma   90.00000000
_symmetry_Int_Tables_number   1
_chemical_formula_structural   Pr2Mn3(SbS3)4
_chemical_formula_sum   'Pr4 Mn6 Sb8 S24'
_cell_volume   942.00006694
_cell_formula_units_Z   2
loop_
 _symmetry_equiv_pos_site_id
 _symmetry_equiv_pos_as_xyz
  1  'x, y, z'
loop_
 _atom_site_type_symbol
 _atom_site_label
 _atom_site_symmetry_multiplicity
 _atom_site_fract_x
 _atom_site_fract_y
 _atom_site_fract_z
 _atom_site_occupancy
  Pr  Pr0  1  0.26696921  0.54519938  0.86915036  1
  Pr  Pr1  1  0.73160671  0.52122955  0.13708247  1
  Pr  Pr2  1  0.76695177  0.94526630  0.88262718  1
  Pr  Pr3  1  0.24244547  0.99186497  0.14789152  1
  Mn  Mn4  1  0.27783304  0.54646672  0.58436666  1
  Mn  Mn5  1  0.69835190  0.45839791  0.37370796  1
  Mn  Mn6  1  0.00105709  0.01863382  0.00290190  1
  Mn  Mn7  1  0.79206111  0.97224662  0.59818062  1
  Mn  Mn8  1  0.19149901  0.94399174  0.39817614  1
  Mn  Mn9  1  0.49870613  0.50875100  0.00479011  1
  Sb  Sb10  1  0.90237219  0.99781657  0.45770860  1
  Sb  Sb11  1  0.09946530  0.99892853  0.55083395  1
  Sb  Sb12  1  0.03546379  0.52336026  0.81532651  1
  Sb  Sb13  1  0.96001637  0.49546452  0.18671365  1
  Sb  Sb14  1  0.39276216  0.49449869  0.45384244  1
  Sb  Sb15  1  0.61597385  0.47151964  0.57025098  1
  Sb  Sb16  1  0.54062123  0.02149017  0.83199143  1
  Sb  Sb17  1  0.45863197  0.01817972  0.18684980  1
  S  S18  1  0.92779458  0.96699442  0.78275024  1
  S  S19  1  0.05973914  0.95716537  0.18886951  1
  S  S20  1  0.42315128  0.97460048  0.99422115  1
  S  S21  1  0.58911351  0.97520361  0.03142756  1
  S  S22  1  0.17757021  0.96338056  0.89438036  1
  S  S23  1  0.83585399  0.97583291  0.12797265  1
  S  S24  1  0.09781309  0.50215140  0.66445847  1
  S  S25  1  0.89898279  0.49308530  0.34487768  1
  S  S26  1  0.74333720  0.97573319  0.30752404  1
  S  S27  1  0.26744107  0.99958210  0.69446705  1
  S  S28  1  0.15358655  0.45239569  0.43195363  1
  S  S29  1  0.82934366  0.46899797  0.54406675  1
  S  S30  1  0.43044030  0.43505253  0.81343393  1
  S  S31  1  0.55965399  0.44610222  0.19736734  1
  S  S32  1  0.91611795  0.50890394  0.98836423  1
  S  S33  1  0.07639088  0.49422125  0.00477517  1
  S  S34  1  0.67641282  0.44341404  0.90841951  1
  S  S35  1  0.33179079  0.46586236  0.10334976  1
  S  S36  1  0.59201717  0.98205142  0.66778706  1
  S  S37  1  0.41388040  0.01711782  0.36943647  1
  S  S38  1  0.24002869  0.48424870  0.29403516  1
  S  S39  1  0.76773973  0.42579280  0.70753806  1
  S  S40  1  0.65836544  0.99664446  0.43725441  1
  S  S41  1  0.32539427  0.01465475  0.54218722  1
