# generated using pymatgen
data_Pr2Mn3(SbS3)4
_symmetry_space_group_name_H-M   'P 1'
_cell_length_a   20.02960800
_cell_length_b   3.90410600
_cell_length_c   14.95364829
_cell_angle_alpha   90.00000000
_cell_angle_beta   126.33350609
_cell_angle_gamma   90.00000000
_symmetry_Int_Tables_number   1
_chemical_formula_structural   Pr2Mn3(SbS3)4
_chemical_formula_sum   'Pr4 Mn6 Sb8 S24'
_cell_volume   942.00006694
_cell_formula_units_Z   2
loop_
 _symmetry_equiv_pos_site_id
 _symmetry_equiv_pos_as_xyz
  1  'x, y, z'
loop_
 _atom_site_type_symbol
 _atom_site_label
 _atom_site_symmetry_multiplicity
 _atom_site_fract_x
 _atom_site_fract_y
 _atom_site_fract_z
 _atom_site_occupancy
  Pr  Pr0  1  0.26702631  0.50063364  0.86463198  1
  Pr  Pr1  1  0.73486038  0.51025273  0.13464964  1
  Pr  Pr2  1  0.76355480  0.01608833  0.86124991  1
  Pr  Pr3  1  0.23460900  0.99635930  0.13360057  1
  Mn  Mn4  1  0.29029157  0.47632218  0.59105909  1
  Mn  Mn5  1  0.68550440  0.46980792  0.36538506  1
  Mn  Mn6  1  0.00786751  0.99608708  0.01794943  1
  Mn  Mn7  1  0.80347550  0.01412958  0.61951319  1
  Mn  Mn8  1  0.19805675  0.97357123  0.37294935  1
  Mn  Mn9  1  0.49070519  0.46787131  0.99006321  1
  Sb  Sb10  1  0.89119279  0.98393247  0.45260156  1
  Sb  Sb11  1  0.11108978  0.97954496  0.54414971  1
  Sb  Sb12  1  0.03676109  0.51954880  0.81973319  1
  Sb  Sb13  1  0.96409696  0.50132615  0.18719314  1
  Sb  Sb14  1  0.39492505  0.49768732  0.45089921  1
  Sb  Sb15  1  0.60621057  0.46702287  0.54905502  1
  Sb  Sb16  1  0.53415385  0.99211354  0.80827603  1
  Sb  Sb17  1  0.46578202  0.02334917  0.19163726  1
  S  S18  1  0.93865076  0.00911092  0.81100066  1
  S  S19  1  0.06415860  0.97726249  0.19915253  1
  S  S20  1  0.42092917  0.95903440  0.98825477  1
  S  S21  1  0.58368692  0.03223406  0.01570529  1
  S  S22  1  0.17307909  0.05877756  0.90382581  1
  S  S23  1  0.82959618  0.05043671  0.10288867  1
  S  S24  1  0.09417270  0.48902206  0.64903715  1
  S  S25  1  0.91535079  0.49025858  0.35849867  1
  S  S26  1  0.73517939  0.95975495  0.29781522  1
  S  S27  1  0.26164768  0.00842813  0.70788013  1
  S  S28  1  0.16113914  0.51565909  0.42895710  1
  S  S29  1  0.82312984  0.48740592  0.55054021  1
  S  S30  1  0.42869523  0.48680673  0.79547248  1
  S  S31  1  0.55194971  0.52291351  0.17990229  1
  S  S32  1  0.91446726  0.48709920  0.98796799  1
  S  S33  1  0.09065948  0.50042250  0.03243312  1
  S  S34  1  0.66319745  0.53669015  0.88768756  1
  S  S35  1  0.32893094  0.51102569  0.09624400  1
  S  S36  1  0.60005919  0.00230570  0.66005098  1
  S  S37  1  0.40163226  0.98074440  0.34156469  1
  S  S38  1  0.24036873  0.47318926  0.31229920  1
  S  S39  1  0.76201016  0.51528331  0.69102398  1
  S  S40  1  0.66485916  0.01669771  0.44789765  1
  S  S41  1  0.33076468  0.97529562  0.55691748  1
