# generated using pymatgen
data_Pr2Mn3(SbS3)4
_symmetry_space_group_name_H-M   'P 1'
_cell_length_a   20.02960800
_cell_length_b   3.90410600
_cell_length_c   14.95364829
_cell_angle_alpha   90.00000000
_cell_angle_beta   126.33350609
_cell_angle_gamma   90.00000000
_symmetry_Int_Tables_number   1
_chemical_formula_structural   Pr2Mn3(SbS3)4
_chemical_formula_sum   'Pr4 Mn6 Sb8 S24'
_cell_volume   942.00006694
_cell_formula_units_Z   2
loop_
 _symmetry_equiv_pos_site_id
 _symmetry_equiv_pos_as_xyz
  1  'x, y, z'
loop_
 _atom_site_type_symbol
 _atom_site_label
 _atom_site_symmetry_multiplicity
 _atom_site_fract_x
 _atom_site_fract_y
 _atom_site_fract_z
 _atom_site_occupancy
  Pr  Pr0  1  0.26694421  0.54553991  0.86897292  1
  Pr  Pr1  1  0.73153677  0.52168070  0.13709029  1
  Pr  Pr2  1  0.76697915  0.94602606  0.88271248  1
  Pr  Pr3  1  0.24248561  0.99201441  0.14805025  1
  Mn  Mn4  1  0.27765341  0.54653833  0.58401040  1
  Mn  Mn5  1  0.69849609  0.45960689  0.37373075  1
  Mn  Mn6  1  0.00116018  0.01849366  0.00289922  1
  Mn  Mn7  1  0.79211737  0.97269364  0.59797557  1
  Mn  Mn8  1  0.19160346  0.94459632  0.39823979  1
  Mn  Mn9  1  0.49904055  0.50789803  0.00477940  1
  Sb  Sb10  1  0.90224441  0.99781021  0.45769153  1
  Sb  Sb11  1  0.09948846  0.99868685  0.55093150  1
  Sb  Sb12  1  0.03549762  0.52338882  0.81533189  1
  Sb  Sb13  1  0.95994258  0.49492765  0.18673931  1
  Sb  Sb14  1  0.39281508  0.49517314  0.45393746  1
  Sb  Sb15  1  0.61611952  0.47158739  0.57036861  1
  Sb  Sb16  1  0.54063741  0.02129474  0.83219979  1
  Sb  Sb17  1  0.45852708  0.01820581  0.18662665  1
  S  S18  1  0.92774819  0.96655157  0.78280282  1
  S  S19  1  0.05983253  0.95734301  0.18856589  1
  S  S20  1  0.42308472  0.97547676  0.99417389  1
  S  S21  1  0.58918381  0.97555905  0.03132476  1
  S  S22  1  0.17780025  0.96302260  0.89471196  1
  S  S23  1  0.83584199  0.97687070  0.12805059  1
  S  S24  1  0.09815810  0.50420523  0.66446408  1
  S  S25  1  0.89900067  0.49181254  0.34505078  1
  S  S26  1  0.74321851  0.97593096  0.30772312  1
  S  S27  1  0.26746353  0.00058737  0.69470603  1
  S  S28  1  0.15348373  0.45241820  0.43195233  1
  S  S29  1  0.82907078  0.46897984  0.54401562  1
  S  S30  1  0.43046882  0.43684760  0.81352320  1
  S  S31  1  0.55963359  0.44736808  0.19754014  1
  S  S32  1  0.91617988  0.50884679  0.98842908  1
  S  S33  1  0.07647755  0.49505466  0.00500350  1
  S  S34  1  0.67649916  0.44336407  0.90785641  1
  S  S35  1  0.33199967  0.46575719  0.10306331  1
  S  S36  1  0.59225146  0.98131023  0.66871095  1
  S  S37  1  0.41392272  0.01778760  0.36933860  1
  S  S38  1  0.24013678  0.48344287  0.29384377  1
  S  S39  1  0.76793529  0.42630280  0.70734076  1
  S  S40  1  0.65844459  0.99706568  0.43716140  1
  S  S41  1  0.32532725  0.01485560  0.54237756  1
