# generated using pymatgen
data_Pr2Mn3(SbS3)4
_symmetry_space_group_name_H-M   'P 1'
_cell_length_a   20.02960800
_cell_length_b   3.90410600
_cell_length_c   14.95364829
_cell_angle_alpha   90.00000000
_cell_angle_beta   126.33350609
_cell_angle_gamma   90.00000000
_symmetry_Int_Tables_number   1
_chemical_formula_structural   Pr2Mn3(SbS3)4
_chemical_formula_sum   'Pr4 Mn6 Sb8 S24'
_cell_volume   942.00006694
_cell_formula_units_Z   2
loop_
 _symmetry_equiv_pos_site_id
 _symmetry_equiv_pos_as_xyz
  1  'x, y, z'
loop_
 _atom_site_type_symbol
 _atom_site_label
 _atom_site_symmetry_multiplicity
 _atom_site_fract_x
 _atom_site_fract_y
 _atom_site_fract_z
 _atom_site_occupancy
  Pr  Pr0  1  0.26691025  0.54566989  0.86875662  1
  Pr  Pr1  1  0.73147660  0.52223522  0.13710132  1
  Pr  Pr2  1  0.76698337  0.94647373  0.88279766  1
  Pr  Pr3  1  0.24251938  0.99189691  0.14821783  1
  Mn  Mn4  1  0.27749572  0.54673637  0.58354499  1
  Mn  Mn5  1  0.69865513  0.46147388  0.37392693  1
  Mn  Mn6  1  0.00129699  0.01810804  0.00294813  1
  Mn  Mn7  1  0.79215104  0.97343645  0.59779749  1
  Mn  Mn8  1  0.19164149  0.94430829  0.39830850  1
  Mn  Mn9  1  0.49934816  0.50706408  0.00474065  1
  Sb  Sb10  1  0.90206149  0.99763524  0.45758000  1
  Sb  Sb11  1  0.09950854  0.99861560  0.55098768  1
  Sb  Sb12  1  0.03559963  0.52348829  0.81541358  1
  Sb  Sb13  1  0.95986271  0.49461628  0.18674954  1
  Sb  Sb14  1  0.39283368  0.49564945  0.45388748  1
  Sb  Sb15  1  0.61633719  0.47122937  0.57058178  1
  Sb  Sb16  1  0.54060700  0.02088895  0.83233491  1
  Sb  Sb17  1  0.45834514  0.01814545  0.18632912  1
  S  S18  1  0.92766045  0.96670368  0.78282633  1
  S  S19  1  0.05980905  0.95726409  0.18829628  1
  S  S20  1  0.42298404  0.97598523  0.99408161  1
  S  S21  1  0.58941942  0.97594226  0.03137878  1
  S  S22  1  0.17801190  0.96290990  0.89500555  1
  S  S23  1  0.83586182  0.97739912  0.12813739  1
  S  S24  1  0.09839912  0.50564898  0.66445102  1
  S  S25  1  0.89911366  0.49163507  0.34507902  1
  S  S26  1  0.74304738  0.97638133  0.30780080  1
  S  S27  1  0.26750620  0.00115359  0.69500981  1
  S  S28  1  0.15346966  0.45276549  0.43214087  1
  S  S29  1  0.82881282  0.46899266  0.54415010  1
  S  S30  1  0.43060548  0.43898301  0.81383284  1
  S  S31  1  0.55966318  0.44815640  0.19779315  1
  S  S32  1  0.91621752  0.50850495  0.98848491  1
  S  S33  1  0.07673820  0.49574994  0.00520715  1
  S  S34  1  0.67651019  0.44366340  0.90727253  1
  S  S35  1  0.33216008  0.46592125  0.10276049  1
  S  S36  1  0.59241737  0.98102068  0.66942661  1
  S  S37  1  0.41387499  0.01821747  0.36903966  1
  S  S38  1  0.24012790  0.48184378  0.29375973  1
  S  S39  1  0.76797043  0.42652637  0.70706464  1
  S  S40  1  0.65853119  0.99715796  0.43711786  1
  S  S41  1  0.32537693  0.01549534  0.54245584  1
