# generated using pymatgen
data_Pr2Mn3(SbS3)4
_symmetry_space_group_name_H-M   'P 1'
_cell_length_a   20.02960800
_cell_length_b   3.90410600
_cell_length_c   14.95364829
_cell_angle_alpha   90.00000000
_cell_angle_beta   126.33350609
_cell_angle_gamma   90.00000000
_symmetry_Int_Tables_number   1
_chemical_formula_structural   Pr2Mn3(SbS3)4
_chemical_formula_sum   'Pr4 Mn6 Sb8 S24'
_cell_volume   942.00006694
_cell_formula_units_Z   2
loop_
 _symmetry_equiv_pos_site_id
 _symmetry_equiv_pos_as_xyz
  1  'x, y, z'
loop_
 _atom_site_type_symbol
 _atom_site_label
 _atom_site_symmetry_multiplicity
 _atom_site_fract_x
 _atom_site_fract_y
 _atom_site_fract_z
 _atom_site_occupancy
  Pr  Pr0  1  0.26690469  0.54532292  0.86861582  1
  Pr  Pr1  1  0.73132159  0.52246177  0.13705008  1
  Pr  Pr2  1  0.76697577  0.94691228  0.88294685  1
  Pr  Pr3  1  0.24260085  0.99173145  0.14837190  1
  Mn  Mn4  1  0.27736357  0.54702353  0.58304796  1
  Mn  Mn5  1  0.69864940  0.46315766  0.37395688  1
  Mn  Mn6  1  0.00133699  0.01717441  0.00296308  1
  Mn  Mn7  1  0.79235253  0.97399336  0.59767075  1
  Mn  Mn8  1  0.19167057  0.94434176  0.39840497  1
  Mn  Mn9  1  0.49965011  0.50605029  0.00468238  1
  Sb  Sb10  1  0.90189419  0.99777251  0.45742696  1
  Sb  Sb11  1  0.09959426  0.99855439  0.55110574  1
  Sb  Sb12  1  0.03570763  0.52321290  0.81560335  1
  Sb  Sb13  1  0.95977830  0.49453319  0.18672864  1
  Sb  Sb14  1  0.39289469  0.49596596  0.45390210  1
  Sb  Sb15  1  0.61660332  0.47100295  0.57075969  1
  Sb  Sb16  1  0.54062489  0.02065577  0.83256793  1
  Sb  Sb17  1  0.45819792  0.01793400  0.18600614  1
  S  S18  1  0.92753745  0.96684976  0.78284029  1
  S  S19  1  0.05965061  0.95737818  0.18790939  1
  S  S20  1  0.42281744  0.97715167  0.99392735  1
  S  S21  1  0.58972508  0.97593439  0.03130715  1
  S  S22  1  0.17817984  0.96252042  0.89523060  1
  S  S23  1  0.83586620  0.97807772  0.12824461  1
  S  S24  1  0.09867902  0.50691952  0.66430192  1
  S  S25  1  0.89901161  0.49085809  0.34481593  1
  S  S26  1  0.74278586  0.97602307  0.30770860  1
  S  S27  1  0.26740821  0.00195602  0.69514585  1
  S  S28  1  0.15352263  0.45348557  0.43224747  1
  S  S29  1  0.82855003  0.46923352  0.54423193  1
  S  S30  1  0.43069973  0.44100020  0.81414113  1
  S  S31  1  0.55980818  0.44920136  0.19806520  1
  S  S32  1  0.91618461  0.50776419  0.98835277  1
  S  S33  1  0.07709578  0.49611401  0.00544231  1
  S  S34  1  0.67658445  0.44383541  0.90689854  1
  S  S35  1  0.33222518  0.46531457  0.10224839  1
  S  S36  1  0.59231721  0.98085262  0.66992842  1
  S  S37  1  0.41382100  0.01850425  0.36875039  1
  S  S38  1  0.24002005  0.48090193  0.29367891  1
  S  S39  1  0.76808586  0.42628542  0.70696693  1
  S  S40  1  0.65851289  0.99681434  0.43691054  1
  S  S41  1  0.32539053  0.01579482  0.54243639  1
