# generated using pymatgen
data_Pr2Mn3(SbS3)4
_symmetry_space_group_name_H-M   'P 1'
_cell_length_a   20.02960800
_cell_length_b   3.90410600
_cell_length_c   14.95364829
_cell_angle_alpha   90.00000000
_cell_angle_beta   126.33350609
_cell_angle_gamma   90.00000000
_symmetry_Int_Tables_number   1
_chemical_formula_structural   Pr2Mn3(SbS3)4
_chemical_formula_sum   'Pr4 Mn6 Sb8 S24'
_cell_volume   942.00006694
_cell_formula_units_Z   2
loop_
 _symmetry_equiv_pos_site_id
 _symmetry_equiv_pos_as_xyz
  1  'x, y, z'
loop_
 _atom_site_type_symbol
 _atom_site_label
 _atom_site_symmetry_multiplicity
 _atom_site_fract_x
 _atom_site_fract_y
 _atom_site_fract_z
 _atom_site_occupancy
  Pr  Pr0  1  0.26691784  0.54484493  0.86851793  1
  Pr  Pr1  1  0.73127442  0.52268706  0.13708361  1
  Pr  Pr2  1  0.76709558  0.94751249  0.88319988  1
  Pr  Pr3  1  0.24267326  0.99168158  0.14842749  1
  Mn  Mn4  1  0.27726360  0.54746253  0.58253071  1
  Mn  Mn5  1  0.69866069  0.46453425  0.37394704  1
  Mn  Mn6  1  0.00136863  0.01601700  0.00304834  1
  Mn  Mn7  1  0.79259620  0.97486372  0.59752751  1
  Mn  Mn8  1  0.19161550  0.94441034  0.39837820  1
  Mn  Mn9  1  0.49995484  0.50473387  0.00462605  1
  Sb  Sb10  1  0.90172866  0.99814893  0.45715036  1
  Sb  Sb11  1  0.09964621  0.99870159  0.55116598  1
  Sb  Sb12  1  0.03577659  0.52258555  0.81581258  1
  Sb  Sb13  1  0.95975833  0.49458965  0.18676838  1
  Sb  Sb14  1  0.39305712  0.49626889  0.45402611  1
  Sb  Sb15  1  0.61683787  0.47083093  0.57091950  1
  Sb  Sb16  1  0.54067272  0.02040914  0.83286031  1
  Sb  Sb17  1  0.45802245  0.01802656  0.18559942  1
  S  S18  1  0.92724842  0.96690400  0.78273631  1
  S  S19  1  0.05948460  0.95790661  0.18751498  1
  S  S20  1  0.42268288  0.97715228  0.99380517  1
  S  S21  1  0.59009178  0.97666899  0.03137590  1
  S  S22  1  0.17835321  0.96259243  0.89543198  1
  S  S23  1  0.83584020  0.97869869  0.12845756  1
  S  S24  1  0.09888622  0.50796886  0.66412501  1
  S  S25  1  0.89897002  0.48984416  0.34463228  1
  S  S26  1  0.74257675  0.97599980  0.30751462  1
  S  S27  1  0.26716319  0.00242724  0.69521703  1
  S  S28  1  0.15356696  0.45363094  0.43243482  1
  S  S29  1  0.82843209  0.46949509  0.54439474  1
  S  S30  1  0.43090545  0.44275134  0.81458912  1
  S  S31  1  0.55997152  0.45013963  0.19843616  1
  S  S32  1  0.91610852  0.50682078  0.98826986  1
  S  S33  1  0.07744536  0.49643934  0.00572030  1
  S  S34  1  0.67672839  0.44397432  0.90649866  1
  S  S35  1  0.33218732  0.46509479  0.10180812  1
  S  S36  1  0.59221876  0.98028913  0.67035407  1
  S  S37  1  0.41361423  0.01858040  0.36828250  1
  S  S38  1  0.24000202  0.47970250  0.29356981  1
  S  S39  1  0.76825916  0.42595578  0.70702346  1
  S  S40  1  0.65850097  0.99617775  0.43668478  1
  S  S41  1  0.32523527  0.01546466  0.54215383  1
