# generated using pymatgen
data_Pr2Mn3(SbS3)4
_symmetry_space_group_name_H-M   'P 1'
_cell_length_a   20.02960800
_cell_length_b   3.90410600
_cell_length_c   14.95364829
_cell_angle_alpha   90.00000000
_cell_angle_beta   126.33350609
_cell_angle_gamma   90.00000000
_symmetry_Int_Tables_number   1
_chemical_formula_structural   Pr2Mn3(SbS3)4
_chemical_formula_sum   'Pr4 Mn6 Sb8 S24'
_cell_volume   942.00006694
_cell_formula_units_Z   2
loop_
 _symmetry_equiv_pos_site_id
 _symmetry_equiv_pos_as_xyz
  1  'x, y, z'
loop_
 _atom_site_type_symbol
 _atom_site_label
 _atom_site_symmetry_multiplicity
 _atom_site_fract_x
 _atom_site_fract_y
 _atom_site_fract_z
 _atom_site_occupancy
  Pr  Pr0  1  0.26691118  0.54418510  0.86842353  1
  Pr  Pr1  1  0.73121251  0.52301878  0.13710224  1
  Pr  Pr2  1  0.76718872  0.94845267  0.88345654  1
  Pr  Pr3  1  0.24275130  0.99150350  0.14851738  1
  Mn  Mn4  1  0.27721427  0.54859439  0.58214010  1
  Mn  Mn5  1  0.69859395  0.46594555  0.37391806  1
  Mn  Mn6  1  0.00131323  0.01466336  0.00296234  1
  Mn  Mn7  1  0.79277921  0.97515661  0.59735280  1
  Mn  Mn8  1  0.19149315  0.94448224  0.39831705  1
  Mn  Mn9  1  0.50020609  0.50369759  0.00456699  1
  Sb  Sb10  1  0.90161021  0.99857895  0.45690620  1
  Sb  Sb11  1  0.09970823  0.99869400  0.55124334  1
  Sb  Sb12  1  0.03577522  0.52211811  0.81592430  1
  Sb  Sb13  1  0.95972436  0.49420022  0.18684427  1
  Sb  Sb14  1  0.39315238  0.49646248  0.45413390  1
  Sb  Sb15  1  0.61697027  0.47057715  0.57088170  1
  Sb  Sb16  1  0.54078862  0.02014849  0.83323029  1
  Sb  Sb17  1  0.45788893  0.01812642  0.18529312  1
  S  S18  1  0.92685077  0.96812207  0.78268566  1
  S  S19  1  0.05937361  0.95850845  0.18720877  1
  S  S20  1  0.42244853  0.97729281  0.99353928  1
  S  S21  1  0.59042257  0.97773361  0.03158683  1
  S  S22  1  0.17853535  0.96243504  0.89555324  1
  S  S23  1  0.83594950  0.97935140  0.12861797  1
  S  S24  1  0.09908988  0.50827743  0.66407974  1
  S  S25  1  0.89890353  0.48871604  0.34435737  1
  S  S26  1  0.74219608  0.97580032  0.30738083  1
  S  S27  1  0.26689557  0.00253345  0.69513797  1
  S  S28  1  0.15366144  0.45350456  0.43254599  1
  S  S29  1  0.82816546  0.47078430  0.54441019  1
  S  S30  1  0.43124431  0.44407155  0.81497093  1
  S  S31  1  0.56002368  0.45088040  0.19861284  1
  S  S32  1  0.91616540  0.50620487  0.98827089  1
  S  S33  1  0.07780455  0.49653527  0.00587765  1
  S  S34  1  0.67705176  0.44401875  0.90640136  1
  S  S35  1  0.33213411  0.46494563  0.10147138  1
  S  S36  1  0.59233712  0.98016771  0.67081412  1
  S  S37  1  0.41353558  0.01909815  0.36792969  1
  S  S38  1  0.24004529  0.47860189  0.29338543  1
  S  S39  1  0.76846357  0.42524027  0.70714849  1
  S  S40  1  0.65858340  0.99600270  0.43662705  1
  S  S41  1  0.32508300  0.01427897  0.54190440  1
