# generated using pymatgen
data_Pr2Mn3(SbS3)4
_symmetry_space_group_name_H-M   'P 1'
_cell_length_a   20.02960800
_cell_length_b   3.90410600
_cell_length_c   14.95364829
_cell_angle_alpha   90.00000000
_cell_angle_beta   126.33350609
_cell_angle_gamma   90.00000000
_symmetry_Int_Tables_number   1
_chemical_formula_structural   Pr2Mn3(SbS3)4
_chemical_formula_sum   'Pr4 Mn6 Sb8 S24'
_cell_volume   942.00006694
_cell_formula_units_Z   2
loop_
 _symmetry_equiv_pos_site_id
 _symmetry_equiv_pos_as_xyz
  1  'x, y, z'
loop_
 _atom_site_type_symbol
 _atom_site_label
 _atom_site_symmetry_multiplicity
 _atom_site_fract_x
 _atom_site_fract_y
 _atom_site_fract_z
 _atom_site_occupancy
  Pr  Pr0  1  0.26687529  0.54307113  0.86839666  1
  Pr  Pr1  1  0.73116727  0.52314405  0.13705493  1
  Pr  Pr2  1  0.76726801  0.94955709  0.88367384  1
  Pr  Pr3  1  0.24282267  0.99139258  0.14863221  1
  Mn  Mn4  1  0.27725205  0.55036879  0.58184296  1
  Mn  Mn5  1  0.69847399  0.46735388  0.37367359  1
  Mn  Mn6  1  0.00128075  0.01395716  0.00289659  1
  Mn  Mn7  1  0.79294844  0.97512300  0.59723124  1
  Mn  Mn8  1  0.19131581  0.94465918  0.39821866  1
  Mn  Mn9  1  0.50038235  0.50266084  0.00437023  1
  Sb  Sb10  1  0.90155244  0.99899370  0.45667200  1
  Sb  Sb11  1  0.09975282  0.99838149  0.55132188  1
  Sb  Sb12  1  0.03578369  0.52179617  0.81600394  1
  Sb  Sb13  1  0.95973069  0.49410303  0.18697540  1
  Sb  Sb14  1  0.39321793  0.49637051  0.45424023  1
  Sb  Sb15  1  0.61705751  0.47053161  0.57089280  1
  Sb  Sb16  1  0.54083667  0.02014491  0.83350458  1
  Sb  Sb17  1  0.45778705  0.01800170  0.18489726  1
  S  S18  1  0.92651056  0.96982480  0.78261007  1
  S  S19  1  0.05931232  0.95922563  0.18695457  1
  S  S20  1  0.42218567  0.97666608  0.99328123  1
  S  S21  1  0.59078286  0.97921345  0.03186727  1
  S  S22  1  0.17861920  0.96322048  0.89557968  1
  S  S23  1  0.83606833  0.98021700  0.12871040  1
  S  S24  1  0.09928048  0.50837336  0.66394102  1
  S  S25  1  0.89889644  0.48779964  0.34418887  1
  S  S26  1  0.74189918  0.97624655  0.30736995  1
  S  S27  1  0.26657231  0.00271816  0.69484210  1
  S  S28  1  0.15371955  0.45314985  0.43255220  1
  S  S29  1  0.82780847  0.47169995  0.54427643  1
  S  S30  1  0.43142536  0.44528920  0.81531331  1
  S  S31  1  0.56008444  0.45112745  0.19882313  1
  S  S32  1  0.91619725  0.50612537  0.98832816  1
  S  S33  1  0.07807029  0.49700856  0.00577296  1
  S  S34  1  0.67748930  0.44463092  0.90643923  1
  S  S35  1  0.33207406  0.46501044  0.10109481  1
  S  S36  1  0.59250115  0.98058838  0.67129262  1
  S  S37  1  0.41351992  0.01953163  0.36763341  1
  S  S38  1  0.24007681  0.47800945  0.29324434  1
  S  S39  1  0.76861304  0.42435872  0.70743428  1
  S  S40  1  0.65867984  0.99590319  0.43640116  1
  S  S41  1  0.32489085  0.01356917  0.54164073  1
