# generated using pymatgen
data_Pr2Mn3(SbS3)4
_symmetry_space_group_name_H-M   'P 1'
_cell_length_a   20.02960800
_cell_length_b   3.90410600
_cell_length_c   14.95364829
_cell_angle_alpha   90.00000000
_cell_angle_beta   126.33350609
_cell_angle_gamma   90.00000000
_symmetry_Int_Tables_number   1
_chemical_formula_structural   Pr2Mn3(SbS3)4
_chemical_formula_sum   'Pr4 Mn6 Sb8 S24'
_cell_volume   942.00006694
_cell_formula_units_Z   2
loop_
 _symmetry_equiv_pos_site_id
 _symmetry_equiv_pos_as_xyz
  1  'x, y, z'
loop_
 _atom_site_type_symbol
 _atom_site_label
 _atom_site_symmetry_multiplicity
 _atom_site_fract_x
 _atom_site_fract_y
 _atom_site_fract_z
 _atom_site_occupancy
  Pr  Pr0  1  0.26680708  0.54198891  0.86824739  1
  Pr  Pr1  1  0.73114195  0.52323038  0.13700740  1
  Pr  Pr2  1  0.76743216  0.95057428  0.88390959  1
  Pr  Pr3  1  0.24294065  0.99160683  0.14873306  1
  Mn  Mn4  1  0.27728761  0.55197536  0.58146126  1
  Mn  Mn5  1  0.69834851  0.46883818  0.37324986  1
  Mn  Mn6  1  0.00131041  0.01285751  0.00286688  1
  Mn  Mn7  1  0.79312756  0.97538982  0.59710787  1
  Mn  Mn8  1  0.19120216  0.94482506  0.39829024  1
  Mn  Mn9  1  0.50053639  0.50161404  0.00432528  1
  Sb  Sb10  1  0.90150338  0.99954498  0.45648933  1
  Sb  Sb11  1  0.09969248  0.99806811  0.55125184  1
  Sb  Sb12  1  0.03578826  0.52185673  0.81594494  1
  Sb  Sb13  1  0.95970025  0.49391633  0.18703644  1
  Sb  Sb14  1  0.39328548  0.49623362  0.45429923  1
  Sb  Sb15  1  0.61700224  0.47066342  0.57081706  1
  Sb  Sb16  1  0.54099438  0.02009690  0.83386258  1
  Sb  Sb17  1  0.45767366  0.01754174  0.18440359  1
  S  S18  1  0.92625554  0.97128745  0.78260006  1
  S  S19  1  0.05921785  0.95944908  0.18681447  1
  S  S20  1  0.42189056  0.97601421  0.99296900  1
  S  S21  1  0.59106270  0.98089072  0.03206591  1
  S  S22  1  0.17873055  0.96348446  0.89573443  1
  S  S23  1  0.83616474  0.98021170  0.12880235  1
  S  S24  1  0.09943110  0.50794020  0.66392353  1
  S  S25  1  0.89875126  0.48704296  0.34386180  1
  S  S26  1  0.74171493  0.97594560  0.30740732  1
  S  S27  1  0.26635246  0.00305334  0.69458346  1
  S  S28  1  0.15363506  0.45189904  0.43248984  1
  S  S29  1  0.82737317  0.47238102  0.54397485  1
  S  S30  1  0.43162529  0.44694335  0.81553018  1
  S  S31  1  0.56006484  0.45105133  0.19889125  1
  S  S32  1  0.91631307  0.50628982  0.98842694  1
  S  S33  1  0.07834087  0.49670969  0.00564181  1
  S  S34  1  0.67788137  0.44457917  0.90658897  1
  S  S35  1  0.33213270  0.46492835  0.10092841  1
  S  S36  1  0.59276033  0.98129173  0.67163740  1
  S  S37  1  0.41348477  0.02013631  0.36739882  1
  S  S38  1  0.24002299  0.47740145  0.29292261  1
  S  S39  1  0.76883611  0.42359131  0.70779663  1
  S  S40  1  0.65880202  0.99568039  0.43609015  1
  S  S41  1  0.32474090  0.01244153  0.54167660  1
