# generated using pymatgen
data_Pr2Mn3(SbS3)4
_symmetry_space_group_name_H-M   'P 1'
_cell_length_a   20.02960800
_cell_length_b   3.90410600
_cell_length_c   14.95364829
_cell_angle_alpha   90.00000000
_cell_angle_beta   126.33350609
_cell_angle_gamma   90.00000000
_symmetry_Int_Tables_number   1
_chemical_formula_structural   Pr2Mn3(SbS3)4
_chemical_formula_sum   'Pr4 Mn6 Sb8 S24'
_cell_volume   942.00006694
_cell_formula_units_Z   2
loop_
 _symmetry_equiv_pos_site_id
 _symmetry_equiv_pos_as_xyz
  1  'x, y, z'
loop_
 _atom_site_type_symbol
 _atom_site_label
 _atom_site_symmetry_multiplicity
 _atom_site_fract_x
 _atom_site_fract_y
 _atom_site_fract_z
 _atom_site_occupancy
  Pr  Pr0  1  0.26666976  0.54087244  0.86812498  1
  Pr  Pr1  1  0.73114416  0.52309231  0.13701274  1
  Pr  Pr2  1  0.76754950  0.95145249  0.88407926  1
  Pr  Pr3  1  0.24314555  0.99149232  0.14886266  1
  Mn  Mn4  1  0.27721104  0.55273008  0.58097915  1
  Mn  Mn5  1  0.69820163  0.46990627  0.37285049  1
  Mn  Mn6  1  0.00135548  0.01157044  0.00285154  1
  Mn  Mn7  1  0.79331215  0.97546272  0.59708994  1
  Mn  Mn8  1  0.19122052  0.94512078  0.39857016  1
  Mn  Mn9  1  0.50065568  0.50078743  0.00428526  1
  Sb  Sb10  1  0.90147205  0.00023742  0.45639862  1
  Sb  Sb11  1  0.09970840  0.99764022  0.55130495  1
  Sb  Sb12  1  0.03583690  0.52192624  0.81598844  1
  Sb  Sb13  1  0.95962391  0.49414135  0.18706690  1
  Sb  Sb14  1  0.39332496  0.49572022  0.45427158  1
  Sb  Sb15  1  0.61693515  0.47076150  0.57073839  1
  Sb  Sb16  1  0.54115402  0.02004521  0.83429645  1
  Sb  Sb17  1  0.45756489  0.01730982  0.18394779  1
  S  S18  1  0.92607740  0.97291531  0.78265705  1
  S  S19  1  0.05924786  0.95938907  0.18669751  1
  S  S20  1  0.42164893  0.97571449  0.99274913  1
  S  S21  1  0.59117766  0.98263942  0.03214729  1
  S  S22  1  0.17870694  0.96446963  0.89558001  1
  S  S23  1  0.83620923  0.98040621  0.12884466  1
  S  S24  1  0.09965107  0.50832912  0.66395262  1
  S  S25  1  0.89857312  0.48613816  0.34377595  1
  S  S26  1  0.74160794  0.97578507  0.30744553  1
  S  S27  1  0.26602662  0.00344004  0.69405451  1
  S  S28  1  0.15365654  0.45058166  0.43247301  1
  S  S29  1  0.82694351  0.47318466  0.54348091  1
  S  S30  1  0.43183263  0.44880020  0.81578532  1
  S  S31  1  0.56008081  0.45086373  0.19905306  1
  S  S32  1  0.91642105  0.50643079  0.98855788  1
  S  S33  1  0.07869415  0.49642411  0.00555939  1
  S  S34  1  0.67809070  0.44451278  0.90649229  1
  S  S35  1  0.33209817  0.46495140  0.10067300  1
  S  S36  1  0.59301500  0.98184657  0.67185800  1
  S  S37  1  0.41340168  0.02090614  0.36706781  1
  S  S38  1  0.24004172  0.47646449  0.29261476  1
  S  S39  1  0.76898700  0.42308974  0.70793757  1
  S  S40  1  0.65893954  0.99592657  0.43569531  1
  S  S41  1  0.32473464  0.01163833  0.54181377  1
