# generated using pymatgen
data_Pr2Mn3(SbS3)4
_symmetry_space_group_name_H-M   'P 1'
_cell_length_a   20.02960800
_cell_length_b   3.90410600
_cell_length_c   14.95364829
_cell_angle_alpha   90.00000000
_cell_angle_beta   126.33350609
_cell_angle_gamma   90.00000000
_symmetry_Int_Tables_number   1
_chemical_formula_structural   Pr2Mn3(SbS3)4
_chemical_formula_sum   'Pr4 Mn6 Sb8 S24'
_cell_volume   942.00006694
_cell_formula_units_Z   2
loop_
 _symmetry_equiv_pos_site_id
 _symmetry_equiv_pos_as_xyz
  1  'x, y, z'
loop_
 _atom_site_type_symbol
 _atom_site_label
 _atom_site_symmetry_multiplicity
 _atom_site_fract_x
 _atom_site_fract_y
 _atom_site_fract_z
 _atom_site_occupancy
  Pr  Pr0  1  0.26651688  0.53987103  0.86791252  1
  Pr  Pr1  1  0.73108123  0.52291571  0.13695270  1
  Pr  Pr2  1  0.76765900  0.95224414  0.88425289  1
  Pr  Pr3  1  0.24327811  0.99132386  0.14903216  1
  Mn  Mn4  1  0.27709926  0.55373869  0.58033981  1
  Mn  Mn5  1  0.69805765  0.47081874  0.37243746  1
  Mn  Mn6  1  0.00131397  0.01016200  0.00289517  1
  Mn  Mn7  1  0.79350729  0.97586050  0.59717656  1
  Mn  Mn8  1  0.19112471  0.94547850  0.39872327  1
  Mn  Mn9  1  0.50074666  0.50018258  0.00417427  1
  Sb  Sb10  1  0.90145425  0.00088886  0.45640153  1
  Sb  Sb11  1  0.09975811  0.99717698  0.55143480  1
  Sb  Sb12  1  0.03592503  0.52203853  0.81607268  1
  Sb  Sb13  1  0.95968276  0.49446110  0.18710773  1
  Sb  Sb14  1  0.39336980  0.49500221  0.45423925  1
  Sb  Sb15  1  0.61684557  0.47102085  0.57068959  1
  Sb  Sb16  1  0.54118377  0.02019518  0.83457191  1
  Sb  Sb17  1  0.45743444  0.01720471  0.18361835  1
  S  S18  1  0.92609426  0.97444559  0.78284311  1
  S  S19  1  0.05913746  0.95987206  0.18642187  1
  S  S20  1  0.42139994  0.97507924  0.99247924  1
  S  S21  1  0.59122394  0.98414679  0.03218696  1
  S  S22  1  0.17876817  0.96516888  0.89545853  1
  S  S23  1  0.83635850  0.98122125  0.12884235  1
  S  S24  1  0.09979642  0.50798354  0.66386610  1
  S  S25  1  0.89826497  0.48513535  0.34335486  1
  S  S26  1  0.74132886  0.97508791  0.30742302  1
  S  S27  1  0.26583113  0.00344354  0.69382737  1
  S  S28  1  0.15366342  0.45040975  0.43252729  1
  S  S29  1  0.82661108  0.47382399  0.54323243  1
  S  S30  1  0.43205236  0.45029519  0.81596221  1
  S  S31  1  0.56013134  0.45100852  0.19920605  1
  S  S32  1  0.91660267  0.50654134  0.98868846  1
  S  S33  1  0.07908853  0.49625329  0.00551824  1
  S  S34  1  0.67819505  0.44417410  0.90642319  1
  S  S35  1  0.33205018  0.46542871  0.10040924  1
  S  S36  1  0.59324177  0.98228176  0.67219144  1
  S  S37  1  0.41340001  0.02169238  0.36690557  1
  S  S38  1  0.24017313  0.47599044  0.29243033  1
  S  S39  1  0.76907270  0.42246299  0.70824642  1
  S  S40  1  0.65911829  0.99666738  0.43524308  1
  S  S41  1  0.32465054  0.01088348  0.54191844  1
