# generated using pymatgen
data_Pr2Mn3(SbS3)4
_symmetry_space_group_name_H-M   'P 1'
_cell_length_a   20.02960800
_cell_length_b   3.90410600
_cell_length_c   14.95364829
_cell_angle_alpha   90.00000000
_cell_angle_beta   126.33350609
_cell_angle_gamma   90.00000000
_symmetry_Int_Tables_number   1
_chemical_formula_structural   Pr2Mn3(SbS3)4
_chemical_formula_sum   'Pr4 Mn6 Sb8 S24'
_cell_volume   942.00006694
_cell_formula_units_Z   2
loop_
 _symmetry_equiv_pos_site_id
 _symmetry_equiv_pos_as_xyz
  1  'x, y, z'
loop_
 _atom_site_type_symbol
 _atom_site_label
 _atom_site_symmetry_multiplicity
 _atom_site_fract_x
 _atom_site_fract_y
 _atom_site_fract_z
 _atom_site_occupancy
  Pr  Pr0  1  0.26634102  0.53899026  0.86764268  1
  Pr  Pr1  1  0.73099860  0.52264985  0.13679943  1
  Pr  Pr2  1  0.76774330  0.95280360  0.88437322  1
  Pr  Pr3  1  0.24343585  0.99114635  0.14915945  1
  Mn  Mn4  1  0.27698780  0.55507882  0.57979888  1
  Mn  Mn5  1  0.69782790  0.47143301  0.37193079  1
  Mn  Mn6  1  0.00137019  0.00867675  0.00297669  1
  Mn  Mn7  1  0.79365735  0.97660997  0.59731229  1
  Mn  Mn8  1  0.19117066  0.94513247  0.39906291  1
  Mn  Mn9  1  0.50086171  0.49955406  0.00404045  1
  Sb  Sb10  1  0.90137823  0.00178133  0.45630867  1
  Sb  Sb11  1  0.09972317  0.99665559  0.55149928  1
  Sb  Sb12  1  0.03602996  0.52251802  0.81617150  1
  Sb  Sb13  1  0.95977804  0.49454956  0.18710128  1
  Sb  Sb14  1  0.39343875  0.49436121  0.45417384  1
  Sb  Sb15  1  0.61681408  0.47144683  0.57074688  1
  Sb  Sb16  1  0.54116765  0.02023322  0.83484022  1
  Sb  Sb17  1  0.45735390  0.01707931  0.18338728  1
  S  S18  1  0.92613349  0.97599574  0.78324412  1
  S  S19  1  0.05889063  0.96092585  0.18603585  1
  S  S20  1  0.42127090  0.97495349  0.99240877  1
  S  S21  1  0.59130041  0.98505240  0.03223448  1
  S  S22  1  0.17878906  0.96556402  0.89513870  1
  S  S23  1  0.83649267  0.98282041  0.12884736  1
  S  S24  1  0.10003006  0.50763024  0.66392694  1
  S  S25  1  0.89805278  0.48421412  0.34288535  1
  S  S26  1  0.74108568  0.97490850  0.30770303  1
  S  S27  1  0.26562119  0.00315361  0.69361633  1
  S  S28  1  0.15379795  0.45051095  0.43280573  1
  S  S29  1  0.82621636  0.47360114  0.54302315  1
  S  S30  1  0.43218579  0.45197204  0.81610382  1
  S  S31  1  0.56009037  0.45142109  0.19921934  1
  S  S32  1  0.91666348  0.50734709  0.98871510  1
  S  S33  1  0.07935389  0.49679148  0.00543542  1
  S  S34  1  0.67835440  0.44415597  0.90641400  1
  S  S35  1  0.33204931  0.46631326  0.09995165  1
  S  S36  1  0.59338831  0.98294987  0.67246750  1
  S  S37  1  0.41348525  0.02198992  0.36687571  1
  S  S38  1  0.24033049  0.47517730  0.29248499  1
  S  S39  1  0.76913360  0.42223465  0.70859921  1
  S  S40  1  0.65921904  0.99760495  0.43497075  1
  S  S41  1  0.32448675  0.01063291  0.54212173  1
