# generated using pymatgen
data_Pr2Mn3(SbS3)4
_symmetry_space_group_name_H-M   'P 1'
_cell_length_a   20.02960800
_cell_length_b   3.90410600
_cell_length_c   14.95364829
_cell_angle_alpha   90.00000000
_cell_angle_beta   126.33350609
_cell_angle_gamma   90.00000000
_symmetry_Int_Tables_number   1
_chemical_formula_structural   Pr2Mn3(SbS3)4
_chemical_formula_sum   'Pr4 Mn6 Sb8 S24'
_cell_volume   942.00006694
_cell_formula_units_Z   2
loop_
 _symmetry_equiv_pos_site_id
 _symmetry_equiv_pos_as_xyz
  1  'x, y, z'
loop_
 _atom_site_type_symbol
 _atom_site_label
 _atom_site_symmetry_multiplicity
 _atom_site_fract_x
 _atom_site_fract_y
 _atom_site_fract_z
 _atom_site_occupancy
  Pr  Pr0  1  0.26715118  0.50092848  0.86474853  1
  Pr  Pr1  1  0.73474655  0.51028104  0.13450403  1
  Pr  Pr2  1  0.76355058  0.01657930  0.86122877  1
  Pr  Pr3  1  0.23457081  0.99671738  0.13348488  1
  Mn  Mn4  1  0.29046731  0.47578097  0.59128709  1
  Mn  Mn5  1  0.68544573  0.46930757  0.36537702  1
  Mn  Mn6  1  0.00781798  0.99604340  0.01772203  1
  Mn  Mn7  1  0.80330663  0.01375652  0.61954256  1
  Mn  Mn8  1  0.19797768  0.97399989  0.37280797  1
  Mn  Mn9  1  0.49062993  0.46730401  0.99004215  1
  Sb  Sb10  1  0.89121000  0.98380563  0.45269489  1
  Sb  Sb11  1  0.11094918  0.97886605  0.54407993  1
  Sb  Sb12  1  0.03666450  0.51967072  0.81956488  1
  Sb  Sb13  1  0.96415702  0.50136573  0.18739377  1
  Sb  Sb14  1  0.39476742  0.49758736  0.45078681  1
  Sb  Sb15  1  0.60616246  0.46736612  0.54894774  1
  Sb  Sb16  1  0.53407990  0.99173740  0.80823699  1
  Sb  Sb17  1  0.46582500  0.02343536  0.19170673  1
  S  S18  1  0.93861006  0.00888592  0.81098199  1
  S  S19  1  0.06420685  0.97765587  0.19897349  1
  S  S20  1  0.42103772  0.95938318  0.98874663  1
  S  S21  1  0.58371073  0.03277259  0.01563050  1
  S  S22  1  0.17308898  0.05896654  0.90384088  1
  S  S23  1  0.82966343  0.05078756  0.10330516  1
  S  S24  1  0.09423067  0.49043062  0.64920946  1
  S  S25  1  0.91538643  0.48985327  0.35872174  1
  S  S26  1  0.73515436  0.96096839  0.29754460  1
  S  S27  1  0.26140645  0.00802635  0.70779658  1
  S  S28  1  0.16140433  0.51633593  0.42954325  1
  S  S29  1  0.82304850  0.48716194  0.55033638  1
  S  S30  1  0.42882035  0.48567384  0.79527312  1
  S  S31  1  0.55195768  0.52209406  0.17973640  1
  S  S32  1  0.91457642  0.48713500  0.98769464  1
  S  S33  1  0.09031853  0.49982025  0.03214721  1
  S  S34  1  0.66314059  0.53844399  0.88772928  1
  S  S35  1  0.32881139  0.51083899  0.09607722  1
  S  S36  1  0.59992879  0.00248578  0.66029250  1
  S  S37  1  0.40175768  0.98090706  0.34151454  1
  S  S38  1  0.24046321  0.47262953  0.31235909  1
  S  S39  1  0.76200066  0.51578829  0.69095815  1
  S  S40  1  0.66477742  0.01577328  0.44785138  1
  S  S41  1  0.33083453  0.97593571  0.55683646  1
