# generated using pymatgen
data_Pr2Mn3(SbS3)4
_symmetry_space_group_name_H-M   'P 1'
_cell_length_a   20.02960800
_cell_length_b   3.90410600
_cell_length_c   14.95364829
_cell_angle_alpha   90.00000000
_cell_angle_beta   126.33350609
_cell_angle_gamma   90.00000000
_symmetry_Int_Tables_number   1
_chemical_formula_structural   Pr2Mn3(SbS3)4
_chemical_formula_sum   'Pr4 Mn6 Sb8 S24'
_cell_volume   942.00006694
_cell_formula_units_Z   2
loop_
 _symmetry_equiv_pos_site_id
 _symmetry_equiv_pos_as_xyz
  1  'x, y, z'
loop_
 _atom_site_type_symbol
 _atom_site_label
 _atom_site_symmetry_multiplicity
 _atom_site_fract_x
 _atom_site_fract_y
 _atom_site_fract_z
 _atom_site_occupancy
  Pr  Pr0  1  0.26611391  0.53828298  0.86728996  1
  Pr  Pr1  1  0.73094348  0.52241564  0.13660563  1
  Pr  Pr2  1  0.76777746  0.95342837  0.88448581  1
  Pr  Pr3  1  0.24350375  0.99091538  0.14920038  1
  Mn  Mn4  1  0.27677371  0.55574030  0.57929612  1
  Mn  Mn5  1  0.69755418  0.47217802  0.37154048  1
  Mn  Mn6  1  0.00140455  0.00715735  0.00300166  1
  Mn  Mn7  1  0.79382208  0.97740892  0.59733287  1
  Mn  Mn8  1  0.19114424  0.94529389  0.39923276  1
  Mn  Mn9  1  0.50099054  0.49869242  0.00395210  1
  Sb  Sb10  1  0.90131928  0.00255681  0.45618676  1
  Sb  Sb11  1  0.09972992  0.99596997  0.55150103  1
  Sb  Sb12  1  0.03615668  0.52300250  0.81624205  1
  Sb  Sb13  1  0.95987791  0.49432539  0.18704829  1
  Sb  Sb14  1  0.39353081  0.49356741  0.45405663  1
  Sb  Sb15  1  0.61683089  0.47215452  0.57081120  1
  Sb  Sb16  1  0.54119495  0.02037149  0.83513538  1
  Sb  Sb17  1  0.45724965  0.01691731  0.18326308  1
  S  S18  1  0.92614397  0.97770765  0.78364417  1
  S  S19  1  0.05870063  0.96252768  0.18581106  1
  S  S20  1  0.42111228  0.97458253  0.99231544  1
  S  S21  1  0.59143540  0.98560247  0.03234677  1
  S  S22  1  0.17898438  0.96523954  0.89476896  1
  S  S23  1  0.83663616  0.98501810  0.12885586  1
  S  S24  1  0.10027085  0.50749112  0.66389900  1
  S  S25  1  0.89791362  0.48387243  0.34268718  1
  S  S26  1  0.74087744  0.97462310  0.30805104  1
  S  S27  1  0.26525223  0.00297497  0.69340400  1
  S  S28  1  0.15401689  0.45033261  0.43299880  1
  S  S29  1  0.82586439  0.47379890  0.54277894  1
  S  S30  1  0.43239357  0.45288761  0.81642712  1
  S  S31  1  0.56011319  0.45259926  0.19932612  1
  S  S32  1  0.91657104  0.50803174  0.98855681  1
  S  S33  1  0.07955420  0.49752741  0.00533856  1
  S  S34  1  0.67848274  0.44359498  0.90660602  1
  S  S35  1  0.33199326  0.46721740  0.09960230  1
  S  S36  1  0.59353071  0.98401559  0.67279891  1
  S  S37  1  0.41353932  0.02245583  0.36688871  1
  S  S38  1  0.24061484  0.47496988  0.29272766  1
  S  S39  1  0.76913036  0.42148143  0.70888694  1
  S  S40  1  0.65940215  0.99862856  0.43475519  1
  S  S41  1  0.32425658  0.01083707  0.54226008  1
