# generated using pymatgen
data_Pr2Mn3(SbS3)4
_symmetry_space_group_name_H-M   'P 1'
_cell_length_a   20.02960800
_cell_length_b   3.90410600
_cell_length_c   14.95364829
_cell_angle_alpha   90.00000000
_cell_angle_beta   126.33350609
_cell_angle_gamma   90.00000000
_symmetry_Int_Tables_number   1
_chemical_formula_structural   Pr2Mn3(SbS3)4
_chemical_formula_sum   'Pr4 Mn6 Sb8 S24'
_cell_volume   942.00006694
_cell_formula_units_Z   2
loop_
 _symmetry_equiv_pos_site_id
 _symmetry_equiv_pos_as_xyz
  1  'x, y, z'
loop_
 _atom_site_type_symbol
 _atom_site_label
 _atom_site_symmetry_multiplicity
 _atom_site_fract_x
 _atom_site_fract_y
 _atom_site_fract_z
 _atom_site_occupancy
  Pr  Pr0  1  0.26583845  0.53753365  0.86691244  1
  Pr  Pr1  1  0.73093547  0.52256550  0.13649129  1
  Pr  Pr2  1  0.76788685  0.95379867  0.88468674  1
  Pr  Pr3  1  0.24349176  0.99074181  0.14909501  1
  Mn  Mn4  1  0.27661058  0.55646807  0.57889642  1
  Mn  Mn5  1  0.69739968  0.47283276  0.37119138  1
  Mn  Mn6  1  0.00142963  0.00596888  0.00303056  1
  Mn  Mn7  1  0.79393356  0.97847716  0.59733098  1
  Mn  Mn8  1  0.19119151  0.94562542  0.39949125  1
  Mn  Mn9  1  0.50102497  0.49782706  0.00383087  1
  Sb  Sb10  1  0.90123613  0.00309137  0.45597376  1
  Sb  Sb11  1  0.09974622  0.99544709  0.55155649  1
  Sb  Sb12  1  0.03623074  0.52382316  0.81629084  1
  Sb  Sb13  1  0.95998860  0.49405588  0.18703898  1
  Sb  Sb14  1  0.39353253  0.49296227  0.45382582  1
  Sb  Sb15  1  0.61680171  0.47275946  0.57083957  1
  Sb  Sb16  1  0.54120085  0.02055998  0.83541762  1
  Sb  Sb17  1  0.45724172  0.01687633  0.18326828  1
  S  S18  1  0.92604664  0.97882846  0.78381160  1
  S  S19  1  0.05873477  0.96407123  0.18592147  1
  S  S20  1  0.42099294  0.97398762  0.99238405  1
  S  S21  1  0.59143726  0.98629857  0.03252899  1
  S  S22  1  0.17918467  0.96502470  0.89446865  1
  S  S23  1  0.83681843  0.98757922  0.12909427  1
  S  S24  1  0.10044993  0.50733655  0.66390137  1
  S  S25  1  0.89791701  0.48365726  0.34265933  1
  S  S26  1  0.74091326  0.97510329  0.30848960  1
  S  S27  1  0.26509320  0.00236235  0.69324418  1
  S  S28  1  0.15419970  0.45081412  0.43317726  1
  S  S29  1  0.82529964  0.47380937  0.54238143  1
  S  S30  1  0.43265713  0.45401832  0.81663433  1
  S  S31  1  0.56007630  0.45370551  0.19952674  1
  S  S32  1  0.91651305  0.50799018  0.98836732  1
  S  S33  1  0.07965255  0.49795613  0.00536228  1
  S  S34  1  0.67852568  0.44315340  0.90659396  1
  S  S35  1  0.33198624  0.46813266  0.09933107  1
  S  S36  1  0.59378179  0.98402468  0.67311036  1
  S  S37  1  0.41360693  0.02243356  0.36692458  1
  S  S38  1  0.24080566  0.47471943  0.29293711  1
  S  S39  1  0.76900097  0.42128013  0.70919272  1
  S  S40  1  0.65957656  0.99927684  0.43436609  1
  S  S41  1  0.32405437  0.01141088  0.54256881  1
