# generated using pymatgen
data_Pr2Mn3(SbS3)4
_symmetry_space_group_name_H-M   'P 1'
_cell_length_a   20.02960800
_cell_length_b   3.90410600
_cell_length_c   14.95364829
_cell_angle_alpha   90.00000000
_cell_angle_beta   126.33350609
_cell_angle_gamma   90.00000000
_symmetry_Int_Tables_number   1
_chemical_formula_structural   Pr2Mn3(SbS3)4
_chemical_formula_sum   'Pr4 Mn6 Sb8 S24'
_cell_volume   942.00006694
_cell_formula_units_Z   2
loop_
 _symmetry_equiv_pos_site_id
 _symmetry_equiv_pos_as_xyz
  1  'x, y, z'
loop_
 _atom_site_type_symbol
 _atom_site_label
 _atom_site_symmetry_multiplicity
 _atom_site_fract_x
 _atom_site_fract_y
 _atom_site_fract_z
 _atom_site_occupancy
  Pr  Pr0  1  0.26554858  0.53648414  0.86663932  1
  Pr  Pr1  1  0.73089220  0.52268904  0.13627834  1
  Pr  Pr2  1  0.76795846  0.95415911  0.88485764  1
  Pr  Pr3  1  0.24346910  0.99047506  0.14894507  1
  Mn  Mn4  1  0.27641302  0.55730709  0.57849666  1
  Mn  Mn5  1  0.69716337  0.47373296  0.37075134  1
  Mn  Mn6  1  0.00150306  0.00481616  0.00318025  1
  Mn  Mn7  1  0.79413499  0.97895983  0.59742316  1
  Mn  Mn8  1  0.19118650  0.94599498  0.39959701  1
  Mn  Mn9  1  0.50116769  0.49719817  0.00404092  1
  Sb  Sb10  1  0.90119882  0.00374978  0.45585983  1
  Sb  Sb11  1  0.09972781  0.99501018  0.55159571  1
  Sb  Sb12  1  0.03627765  0.52467832  0.81633622  1
  Sb  Sb13  1  0.96007091  0.49389145  0.18708272  1
  Sb  Sb14  1  0.39354875  0.49245441  0.45367417  1
  Sb  Sb15  1  0.61681560  0.47358651  0.57083674  1
  Sb  Sb16  1  0.54127840  0.02086163  0.83576090  1
  Sb  Sb17  1  0.45733410  0.01685110  0.18332985  1
  S  S18  1  0.92590757  0.97996787  0.78395851  1
  S  S19  1  0.05878515  0.96560317  0.18605653  1
  S  S20  1  0.42065471  0.97417239  0.99230160  1
  S  S21  1  0.59132472  0.98676773  0.03260372  1
  S  S22  1  0.17940044  0.96462525  0.89425761  1
  S  S23  1  0.83715085  0.98950349  0.12943268  1
  S  S24  1  0.10056823  0.50747740  0.66388321  1
  S  S25  1  0.89779127  0.48380844  0.34241613  1
  S  S26  1  0.74090676  0.97536454  0.30896890  1
  S  S27  1  0.26492390  0.00198805  0.69319907  1
  S  S28  1  0.15425844  0.45108027  0.43329109  1
  S  S29  1  0.82491639  0.47393670  0.54208707  1
  S  S30  1  0.43303411  0.45461316  0.81695324  1
  S  S31  1  0.55987877  0.45430105  0.19971852  1
  S  S32  1  0.91645891  0.50805747  0.98824266  1
  S  S33  1  0.07973218  0.49809846  0.00539700  1
  S  S34  1  0.67844594  0.44216521  0.90653053  1
  S  S35  1  0.33210796  0.46882106  0.09926224  1
  S  S36  1  0.59400381  0.98419977  0.67338432  1
  S  S37  1  0.41353323  0.02308990  0.36680715  1
  S  S38  1  0.24104976  0.47362421  0.29314464  1
  S  S39  1  0.76876391  0.42052635  0.70922686  1
  S  S40  1  0.65976711  0.00027643  0.43418108  1
  S  S41  1  0.32401687  0.01200491  0.54295410  1
