# generated using pymatgen
data_Pr2Mn3(SbS3)4
_symmetry_space_group_name_H-M   'P 1'
_cell_length_a   20.02960800
_cell_length_b   3.90410600
_cell_length_c   14.95364829
_cell_angle_alpha   90.00000000
_cell_angle_beta   126.33350609
_cell_angle_gamma   90.00000000
_symmetry_Int_Tables_number   1
_chemical_formula_structural   Pr2Mn3(SbS3)4
_chemical_formula_sum   'Pr4 Mn6 Sb8 S24'
_cell_volume   942.00006694
_cell_formula_units_Z   2
loop_
 _symmetry_equiv_pos_site_id
 _symmetry_equiv_pos_as_xyz
  1  'x, y, z'
loop_
 _atom_site_type_symbol
 _atom_site_label
 _atom_site_symmetry_multiplicity
 _atom_site_fract_x
 _atom_site_fract_y
 _atom_site_fract_z
 _atom_site_occupancy
  Pr  Pr0  1  0.26528704  0.53558883  0.86635420  1
  Pr  Pr1  1  0.73082484  0.52280236  0.13609359  1
  Pr  Pr2  1  0.76798419  0.95455066  0.88497342  1
  Pr  Pr3  1  0.24346104  0.99064713  0.14879880  1
  Mn  Mn4  1  0.27632637  0.55779756  0.57823469  1
  Mn  Mn5  1  0.69687953  0.47436702  0.37023647  1
  Mn  Mn6  1  0.00159860  0.00352186  0.00332266  1
  Mn  Mn7  1  0.79426305  0.97954026  0.59750170  1
  Mn  Mn8  1  0.19126564  0.94662213  0.39961703  1
  Mn  Mn9  1  0.50131137  0.49687015  0.00432511  1
  Sb  Sb10  1  0.90117473  0.00428916  0.45578299  1
  Sb  Sb11  1  0.09975182  0.99453467  0.55167772  1
  Sb  Sb12  1  0.03633845  0.52571049  0.81638341  1
  Sb  Sb13  1  0.96022686  0.49362096  0.18724003  1
  Sb  Sb14  1  0.39357106  0.49195260  0.45357058  1
  Sb  Sb15  1  0.61684875  0.47429621  0.57086998  1
  Sb  Sb16  1  0.54130519  0.02122679  0.83613681  1
  Sb  Sb17  1  0.45745267  0.01678775  0.18343521  1
  S  S18  1  0.92579765  0.98062253  0.78407087  1
  S  S19  1  0.05896108  0.96645443  0.18618720  1
  S  S20  1  0.42044948  0.97407851  0.99232150  1
  S  S21  1  0.59121434  0.98768678  0.03257012  1
  S  S22  1  0.17959913  0.96443930  0.89410713  1
  S  S23  1  0.83742046  0.99080260  0.12971506  1
  S  S24  1  0.10073847  0.50697682  0.66402598  1
  S  S25  1  0.89775816  0.48481091  0.34226205  1
  S  S26  1  0.74077214  0.97601709  0.30936349  1
  S  S27  1  0.26468830  0.00130207  0.69307829  1
  S  S28  1  0.15424060  0.45116323  0.43333888  1
  S  S29  1  0.82477808  0.47412173  0.54203643  1
  S  S30  1  0.43348744  0.45509742  0.81729932  1
  S  S31  1  0.55969285  0.45464454  0.19970660  1
  S  S32  1  0.91648855  0.50801929  0.98831731  1
  S  S33  1  0.07962519  0.49824454  0.00536791  1
  S  S34  1  0.67846599  0.44163752  0.90643032  1
  S  S35  1  0.33217509  0.46945485  0.09910716  1
  S  S36  1  0.59418241  0.98450866  0.67372842  1
  S  S37  1  0.41352367  0.02355179  0.36683841  1
  S  S38  1  0.24137827  0.47327215  0.29341333  1
  S  S39  1  0.76872361  0.41974514  0.70939062  1
  S  S40  1  0.65996725  0.00083131  0.43391170  1
  S  S41  1  0.32403968  0.01287043  0.54335166  1
