# generated using pymatgen
data_Pr2Mn3(SbS3)4
_symmetry_space_group_name_H-M   'P 1'
_cell_length_a   20.02960800
_cell_length_b   3.90410600
_cell_length_c   14.95364829
_cell_angle_alpha   90.00000000
_cell_angle_beta   126.33350609
_cell_angle_gamma   90.00000000
_symmetry_Int_Tables_number   1
_chemical_formula_structural   Pr2Mn3(SbS3)4
_chemical_formula_sum   'Pr4 Mn6 Sb8 S24'
_cell_volume   942.00006694
_cell_formula_units_Z   2
loop_
 _symmetry_equiv_pos_site_id
 _symmetry_equiv_pos_as_xyz
  1  'x, y, z'
loop_
 _atom_site_type_symbol
 _atom_site_label
 _atom_site_symmetry_multiplicity
 _atom_site_fract_x
 _atom_site_fract_y
 _atom_site_fract_z
 _atom_site_occupancy
  Pr  Pr0  1  0.26505872  0.53438962  0.86615210  1
  Pr  Pr1  1  0.73080603  0.52298304  0.13599415  1
  Pr  Pr2  1  0.76797319  0.95513970  0.88512860  1
  Pr  Pr3  1  0.24339153  0.99079083  0.14862766  1
  Mn  Mn4  1  0.27612872  0.55803351  0.57784165  1
  Mn  Mn5  1  0.69664457  0.47514947  0.36977339  1
  Mn  Mn6  1  0.00170340  0.00196335  0.00338830  1
  Mn  Mn7  1  0.79429166  0.98010748  0.59744926  1
  Mn  Mn8  1  0.19140500  0.94724117  0.39980061  1
  Mn  Mn9  1  0.50139358  0.49679675  0.00452514  1
  Sb  Sb10  1  0.90109555  0.00455135  0.45563653  1
  Sb  Sb11  1  0.09978496  0.99445625  0.55177901  1
  Sb  Sb12  1  0.03635830  0.52655405  0.81637165  1
  Sb  Sb13  1  0.96030462  0.49344005  0.18737555  1
  Sb  Sb14  1  0.39360965  0.49148162  0.45347462  1
  Sb  Sb15  1  0.61689761  0.47505637  0.57097749  1
  Sb  Sb16  1  0.54129736  0.02160654  0.83646757  1
  Sb  Sb17  1  0.45752579  0.01661419  0.18352301  1
  S  S18  1  0.92577143  0.98108876  0.78422386  1
  S  S19  1  0.05923808  0.96728892  0.18646957  1
  S  S20  1  0.42042820  0.97393486  0.99235369  1
  S  S21  1  0.59126896  0.98875780  0.03266363  1
  S  S22  1  0.17979580  0.96496896  0.89412729  1
  S  S23  1  0.83764318  0.99231494  0.12989079  1
  S  S24  1  0.10098265  0.50708843  0.66408447  1
  S  S25  1  0.89746501  0.48604566  0.34181638  1
  S  S26  1  0.74072033  0.97686107  0.30983805  1
  S  S27  1  0.26453653  0.99998053  0.69314264  1
  S  S28  1  0.15421735  0.45067540  0.43340464  1
  S  S29  1  0.82477773  0.47420968  0.54208308  1
  S  S30  1  0.43388826  0.45620973  0.81765689  1
  S  S31  1  0.55944324  0.45465163  0.19957547  1
  S  S32  1  0.91662473  0.50761754  0.98843671  1
  S  S33  1  0.07964204  0.49880814  0.00519443  1
  S  S34  1  0.67842690  0.44154980  0.90635477  1
  S  S35  1  0.33237378  0.46983466  0.09909670  1
  S  S36  1  0.59438710  0.98421419  0.67411674  1
  S  S37  1  0.41345778  0.02376903  0.36674313  1
  S  S38  1  0.24172567  0.47293929  0.29388908  1
  S  S39  1  0.76870842  0.41943363  0.70957892  1
  S  S40  1  0.66002510  0.00108026  0.43327637  1
  S  S41  1  0.32386776  0.01396593  0.54369117  1
