# generated using pymatgen
data_Pr2Mn3(SbS3)4
_symmetry_space_group_name_H-M   'P 1'
_cell_length_a   20.02960800
_cell_length_b   3.90410600
_cell_length_c   14.95364829
_cell_angle_alpha   90.00000000
_cell_angle_beta   126.33350609
_cell_angle_gamma   90.00000000
_symmetry_Int_Tables_number   1
_chemical_formula_structural   Pr2Mn3(SbS3)4
_chemical_formula_sum   'Pr4 Mn6 Sb8 S24'
_cell_volume   942.00006694
_cell_formula_units_Z   2
loop_
 _symmetry_equiv_pos_site_id
 _symmetry_equiv_pos_as_xyz
  1  'x, y, z'
loop_
 _atom_site_type_symbol
 _atom_site_label
 _atom_site_symmetry_multiplicity
 _atom_site_fract_x
 _atom_site_fract_y
 _atom_site_fract_z
 _atom_site_occupancy
  Pr  Pr0  1  0.26483053  0.53302614  0.86586858  1
  Pr  Pr1  1  0.73075693  0.52317638  0.13589016  1
  Pr  Pr2  1  0.76787293  0.95596241  0.88518816  1
  Pr  Pr3  1  0.24323190  0.99126346  0.14837772  1
  Mn  Mn4  1  0.27584235  0.55833799  0.57738583  1
  Mn  Mn5  1  0.69640843  0.47570106  0.36928974  1
  Mn  Mn6  1  0.00172710  0.00069499  0.00321946  1
  Mn  Mn7  1  0.79430392  0.98066096  0.59739294  1
  Mn  Mn8  1  0.19176036  0.94790190  0.40016200  1
  Mn  Mn9  1  0.50153684  0.49654160  0.00488074  1
  Sb  Sb10  1  0.90098787  0.00502703  0.45551945  1
  Sb  Sb11  1  0.09972982  0.99468812  0.55179175  1
  Sb  Sb12  1  0.03639301  0.52718634  0.81637513  1
  Sb  Sb13  1  0.96044225  0.49365430  0.18750523  1
  Sb  Sb14  1  0.39370569  0.49062686  0.45343255  1
  Sb  Sb15  1  0.61683156  0.47550473  0.57101971  1
  Sb  Sb16  1  0.54132864  0.02229659  0.83675512  1
  Sb  Sb17  1  0.45767605  0.01643699  0.18368151  1
  S  S18  1  0.92590369  0.98126733  0.78443909  1
  S  S19  1  0.05949646  0.96758934  0.18674090  1
  S  S20  1  0.42050102  0.97429713  0.99236510  1
  S  S21  1  0.59130925  0.98977341  0.03272039  1
  S  S22  1  0.18006195  0.96544005  0.89412225  1
  S  S23  1  0.83774822  0.99411554  0.13011716  1
  S  S24  1  0.10119417  0.50785875  0.66415628  1
  S  S25  1  0.89730566  0.48766035  0.34135205  1
  S  S26  1  0.74067248  0.97735728  0.31024798  1
  S  S27  1  0.26455181  0.99866738  0.69333323  1
  S  S28  1  0.15420538  0.45011748  0.43347236  1
  S  S29  1  0.82484534  0.47455075  0.54226992  1
  S  S30  1  0.43415433  0.45748007  0.81776455  1
  S  S31  1  0.55913256  0.45439614  0.19940171  1
  S  S32  1  0.91660981  0.50738775  0.98835746  1
  S  S33  1  0.07966482  0.49937977  0.00517509  1
  S  S34  1  0.67841458  0.44130784  0.90637306  1
  S  S35  1  0.33263234  0.47060802  0.09899412  1
  S  S36  1  0.59462040  0.98391305  0.67440167  1
  S  S37  1  0.41345956  0.02351520  0.36667139  1
  S  S38  1  0.24206269  0.47309262  0.29431165  1
  S  S39  1  0.76858455  0.41943038  0.70970410  1
  S  S40  1  0.65999088  0.00141201  0.43256197  1
  S  S41  1  0.32362842  0.01480072  0.54397526  1
