# generated using pymatgen
data_Pr2Mn3(SbS3)4
_symmetry_space_group_name_H-M   'P 1'
_cell_length_a   20.02960800
_cell_length_b   3.90410600
_cell_length_c   14.95364829
_cell_angle_alpha   90.00000000
_cell_angle_beta   126.33350609
_cell_angle_gamma   90.00000000
_symmetry_Int_Tables_number   1
_chemical_formula_structural   Pr2Mn3(SbS3)4
_chemical_formula_sum   'Pr4 Mn6 Sb8 S24'
_cell_volume   942.00006694
_cell_formula_units_Z   2
loop_
 _symmetry_equiv_pos_site_id
 _symmetry_equiv_pos_as_xyz
  1  'x, y, z'
loop_
 _atom_site_type_symbol
 _atom_site_label
 _atom_site_symmetry_multiplicity
 _atom_site_fract_x
 _atom_site_fract_y
 _atom_site_fract_z
 _atom_site_occupancy
  Pr  Pr0  1  0.26468614  0.53185181  0.86566348  1
  Pr  Pr1  1  0.73066972  0.52323937  0.13581939  1
  Pr  Pr2  1  0.76785473  0.95654655  0.88525709  1
  Pr  Pr3  1  0.24309058  0.99166913  0.14811919  1
  Mn  Mn4  1  0.27554046  0.55851033  0.57697885  1
  Mn  Mn5  1  0.69614773  0.47603999  0.36887939  1
  Mn  Mn6  1  0.00177547  0.99924730  0.00316197  1
  Mn  Mn7  1  0.79438884  0.98110883  0.59746739  1
  Mn  Mn8  1  0.19201864  0.94843955  0.40039136  1
  Mn  Mn9  1  0.50156907  0.49663154  0.00516493  1
  Sb  Sb10  1  0.90087261  0.00546460  0.45538949  1
  Sb  Sb11  1  0.09968743  0.99502597  0.55186668  1
  Sb  Sb12  1  0.03636630  0.52747808  0.81626311  1
  Sb  Sb13  1  0.96058350  0.49380842  0.18762913  1
  Sb  Sb14  1  0.39377454  0.48980370  0.45332427  1
  Sb  Sb15  1  0.61672656  0.47583276  0.57096331  1
  Sb  Sb16  1  0.54142141  0.02265863  0.83707570  1
  Sb  Sb17  1  0.45780355  0.01637353  0.18383259  1
  S  S18  1  0.92606518  0.98113548  0.78465935  1
  S  S19  1  0.05951739  0.96719370  0.18686175  1
  S  S20  1  0.42074130  0.97462437  0.99256112  1
  S  S21  1  0.59150989  0.99034931  0.03281353  1
  S  S22  1  0.18026134  0.96628619  0.89421209  1
  S  S23  1  0.83779456  0.99602437  0.13066470  1
  S  S24  1  0.10131159  0.50937645  0.66433864  1
  S  S25  1  0.89709013  0.48855340  0.34095731  1
  S  S26  1  0.74053048  0.97746760  0.31057407  1
  S  S27  1  0.26460365  0.99729532  0.69368947  1
  S  S28  1  0.15435122  0.44967787  0.43362464  1
  S  S29  1  0.82497663  0.47507001  0.54254685  1
  S  S30  1  0.43438009  0.45846213  0.81784238  1
  S  S31  1  0.55890031  0.45431279  0.19925756  1
  S  S32  1  0.91650189  0.50680027  0.98819602  1
  S  S33  1  0.07959759  0.50046924  0.00514075  1
  S  S34  1  0.67837091  0.44130383  0.90622543  1
  S  S35  1  0.33294068  0.47064511  0.09878716  1
  S  S36  1  0.59485220  0.98320048  0.67468875  1
  S  S37  1  0.41357442  0.02303482  0.36664460  1
  S  S38  1  0.24227750  0.47373122  0.29484011  1
  S  S39  1  0.76840975  0.41952339  0.70976219  1
  S  S40  1  0.65988775  0.00221727  0.43209090  1
  S  S41  1  0.32345182  0.01561899  0.54421370  1
