# generated using pymatgen
data_Pr2Mn3(SbS3)4
_symmetry_space_group_name_H-M   'P 1'
_cell_length_a   20.02960800
_cell_length_b   3.90410600
_cell_length_c   14.95364829
_cell_angle_alpha   90.00000000
_cell_angle_beta   126.33350609
_cell_angle_gamma   90.00000000
_symmetry_Int_Tables_number   1
_chemical_formula_structural   Pr2Mn3(SbS3)4
_chemical_formula_sum   'Pr4 Mn6 Sb8 S24'
_cell_volume   942.00006694
_cell_formula_units_Z   2
loop_
 _symmetry_equiv_pos_site_id
 _symmetry_equiv_pos_as_xyz
  1  'x, y, z'
loop_
 _atom_site_type_symbol
 _atom_site_label
 _atom_site_symmetry_multiplicity
 _atom_site_fract_x
 _atom_site_fract_y
 _atom_site_fract_z
 _atom_site_occupancy
  Pr  Pr0  1  0.26460352  0.53089136  0.86552021  1
  Pr  Pr1  1  0.73051456  0.52354958  0.13565690  1
  Pr  Pr2  1  0.76781264  0.95717109  0.88527586  1
  Pr  Pr3  1  0.24295649  0.99183622  0.14788258  1
  Mn  Mn4  1  0.27521979  0.55887559  0.57669939  1
  Mn  Mn5  1  0.69592670  0.47650817  0.36858351  1
  Mn  Mn6  1  0.00170745  0.99790785  0.00306401  1
  Mn  Mn7  1  0.79441654  0.98173064  0.59751759  1
  Mn  Mn8  1  0.19223305  0.94862836  0.40048065  1
  Mn  Mn9  1  0.50166547  0.49672843  0.00545537  1
  Sb  Sb10  1  0.90076486  0.00589051  0.45515159  1
  Sb  Sb11  1  0.09964040  0.99556055  0.55192860  1
  Sb  Sb12  1  0.03634349  0.52781113  0.81611315  1
  Sb  Sb13  1  0.96071595  0.49374584  0.18782874  1
  Sb  Sb14  1  0.39391536  0.48860148  0.45333341  1
  Sb  Sb15  1  0.61664103  0.47576057  0.57086945  1
  Sb  Sb16  1  0.54147425  0.02310258  0.83731267  1
  Sb  Sb17  1  0.45800154  0.01606270  0.18410233  1
  S  S18  1  0.92611024  0.98128646  0.78471984  1
  S  S19  1  0.05949226  0.96639683  0.18697178  1
  S  S20  1  0.42090621  0.97436992  0.99262498  1
  S  S21  1  0.59172991  0.99035687  0.03280346  1
  S  S22  1  0.18041239  0.96710655  0.89413472  1
  S  S23  1  0.83775040  0.99776064  0.13096298  1
  S  S24  1  0.10142809  0.51077368  0.66442752  1
  S  S25  1  0.89686993  0.48928712  0.34065476  1
  S  S26  1  0.74024225  0.97744698  0.31083155  1
  S  S27  1  0.26482588  0.99629271  0.69419108  1
  S  S28  1  0.15458063  0.45003632  0.43375317  1
  S  S29  1  0.82500494  0.47577464  0.54280716  1
  S  S30  1  0.43445557  0.45988177  0.81777573  1
  S  S31  1  0.55868060  0.45401053  0.19903078  1
  S  S32  1  0.91626326  0.50596463  0.98784000  1
  S  S33  1  0.07943473  0.50119375  0.00494497  1
  S  S34  1  0.67841679  0.44194319  0.90605767  1
  S  S35  1  0.33327819  0.47131203  0.09875264  1
  S  S36  1  0.59504682  0.98257340  0.67487509  1
  S  S37  1  0.41375580  0.02217924  0.36661943  1
  S  S38  1  0.24245661  0.47466788  0.29534665  1
  S  S39  1  0.76833491  0.41918670  0.70983365  1
  S  S40  1  0.65972139  0.00278740  0.43155735  1
  S  S41  1  0.32332045  0.01627988  0.54448693  1
