# generated using pymatgen
data_Pr2Mn3(SbS3)4
_symmetry_space_group_name_H-M   'P 1'
_cell_length_a   20.02960800
_cell_length_b   3.90410600
_cell_length_c   14.95364829
_cell_angle_alpha   90.00000000
_cell_angle_beta   126.33350609
_cell_angle_gamma   90.00000000
_symmetry_Int_Tables_number   1
_chemical_formula_structural   Pr2Mn3(SbS3)4
_chemical_formula_sum   'Pr4 Mn6 Sb8 S24'
_cell_volume   942.00006694
_cell_formula_units_Z   2
loop_
 _symmetry_equiv_pos_site_id
 _symmetry_equiv_pos_as_xyz
  1  'x, y, z'
loop_
 _atom_site_type_symbol
 _atom_site_label
 _atom_site_symmetry_multiplicity
 _atom_site_fract_x
 _atom_site_fract_y
 _atom_site_fract_z
 _atom_site_occupancy
  Pr  Pr0  1  0.26459349  0.53032936  0.86544905  1
  Pr  Pr1  1  0.73038814  0.52382725  0.13558508  1
  Pr  Pr2  1  0.76779771  0.95743496  0.88529469  1
  Pr  Pr3  1  0.24285987  0.99223764  0.14765019  1
  Mn  Mn4  1  0.27489120  0.55921678  0.57636700  1
  Mn  Mn5  1  0.69563330  0.47657057  0.36831293  1
  Mn  Mn6  1  0.00170087  0.99650701  0.00303986  1
  Mn  Mn7  1  0.79445210  0.98208413  0.59752489  1
  Mn  Mn8  1  0.19247998  0.94860393  0.40056306  1
  Mn  Mn9  1  0.50180348  0.49713862  0.00567792  1
  Sb  Sb10  1  0.90063563  0.00607339  0.45488630  1
  Sb  Sb11  1  0.09957973  0.99600576  0.55193457  1
  Sb  Sb12  1  0.03630633  0.52821578  0.81598137  1
  Sb  Sb13  1  0.96086634  0.49351875  0.18797409  1
  Sb  Sb14  1  0.39407194  0.48757709  0.45332733  1
  Sb  Sb15  1  0.61662994  0.47508583  0.57085537  1
  Sb  Sb16  1  0.54155466  0.02374586  0.83768495  1
  Sb  Sb17  1  0.45820336  0.01583500  0.18433559  1
  S  S18  1  0.92603228  0.98122179  0.78478860  1
  S  S19  1  0.05948069  0.96587257  0.18707798  1
  S  S20  1  0.42118086  0.97365280  0.99283423  1
  S  S21  1  0.59188126  0.99011821  0.03289600  1
  S  S22  1  0.18054614  0.96781955  0.89395780  1
  S  S23  1  0.83775456  0.99859710  0.13110771  1
  S  S24  1  0.10165610  0.51168096  0.66474602  1
  S  S25  1  0.89659999  0.49029820  0.34037044  1
  S  S26  1  0.73987223  0.97718454  0.31088855  1
  S  S27  1  0.26492115  0.99554325  0.69443719  1
  S  S28  1  0.15490045  0.45067541  0.43382919  1
  S  S29  1  0.82484378  0.47600764  0.54293513  1
  S  S30  1  0.43461012  0.46126430  0.81764072  1
  S  S31  1  0.55862118  0.45383332  0.19896117  1
  S  S32  1  0.91608517  0.50576033  0.98772786  1
  S  S33  1  0.07926119  0.50288908  0.00465727  1
  S  S34  1  0.67849637  0.44191650  0.90605911  1
  S  S35  1  0.33373864  0.47169374  0.09898902  1
  S  S36  1  0.59541698  0.98193334  0.67518676  1
  S  S37  1  0.41389697  0.02149575  0.36669412  1
  S  S38  1  0.24265981  0.47544735  0.29587734  1
  S  S39  1  0.76825230  0.41873676  0.70992585  1
  S  S40  1  0.65960265  0.00238404  0.43101264  1
  S  S41  1  0.32314307  0.01717078  0.54476835  1
