# generated using pymatgen
data_Pr2Mn3(SbS3)4
_symmetry_space_group_name_H-M   'P 1'
_cell_length_a   20.02960800
_cell_length_b   3.90410600
_cell_length_c   14.95364829
_cell_angle_alpha   90.00000000
_cell_angle_beta   126.33350609
_cell_angle_gamma   90.00000000
_symmetry_Int_Tables_number   1
_chemical_formula_structural   Pr2Mn3(SbS3)4
_chemical_formula_sum   'Pr4 Mn6 Sb8 S24'
_cell_volume   942.00006694
_cell_formula_units_Z   2
loop_
 _symmetry_equiv_pos_site_id
 _symmetry_equiv_pos_as_xyz
  1  'x, y, z'
loop_
 _atom_site_type_symbol
 _atom_site_label
 _atom_site_symmetry_multiplicity
 _atom_site_fract_x
 _atom_site_fract_y
 _atom_site_fract_z
 _atom_site_occupancy
  Pr  Pr0  1  0.26446941  0.52990662  0.86534198  1
  Pr  Pr1  1  0.73036366  0.52445672  0.13558940  1
  Pr  Pr2  1  0.76787180  0.95742270  0.88543477  1
  Pr  Pr3  1  0.24277070  0.99275244  0.14743825  1
  Mn  Mn4  1  0.27461001  0.55960944  0.57603839  1
  Mn  Mn5  1  0.69541532  0.47684443  0.36831111  1
  Mn  Mn6  1  0.00175350  0.99586803  0.00301644  1
  Mn  Mn7  1  0.79449807  0.98216604  0.59747299  1
  Mn  Mn8  1  0.19266141  0.94843876  0.40044868  1
  Mn  Mn9  1  0.50192182  0.49718365  0.00596706  1
  Sb  Sb10  1  0.90052090  0.00616377  0.45464348  1
  Sb  Sb11  1  0.09958342  0.99635681  0.55192644  1
  Sb  Sb12  1  0.03617287  0.52862284  0.81570693  1
  Sb  Sb13  1  0.96099163  0.49347009  0.18803945  1
  Sb  Sb14  1  0.39426329  0.48643166  0.45344039  1
  Sb  Sb15  1  0.61665915  0.47461884  0.57087455  1
  Sb  Sb16  1  0.54168449  0.02439262  0.83804715  1
  Sb  Sb17  1  0.45835220  0.01589125  0.18456942  1
  S  S18  1  0.92588321  0.98183290  0.78477484  1
  S  S19  1  0.05950479  0.96524679  0.18720134  1
  S  S20  1  0.42155372  0.97296122  0.99305698  1
  S  S21  1  0.59197412  0.98942792  0.03295625  1
  S  S22  1  0.18073730  0.96930502  0.89391282  1
  S  S23  1  0.83760276  0.99991628  0.13115166  1
  S  S24  1  0.10185516  0.51217136  0.66496407  1
  S  S25  1  0.89626566  0.49199230  0.33991880  1
  S  S26  1  0.73967994  0.97665103  0.31105903  1
  S  S27  1  0.26480610  0.99481701  0.69441587  1
  S  S28  1  0.15521604  0.45124906  0.43379287  1
  S  S29  1  0.82465826  0.47578846  0.54309980  1
  S  S30  1  0.43472554  0.46260904  0.81752640  1
  S  S31  1  0.55854698  0.45401674  0.19882615  1
  S  S32  1  0.91593880  0.50597823  0.98788515  1
  S  S33  1  0.07902994  0.50448325  0.00439921  1
  S  S34  1  0.67862626  0.44150309  0.90622727  1
  S  S35  1  0.33409925  0.47151730  0.09915511  1
  S  S36  1  0.59579423  0.98119136  0.67552959  1
  S  S37  1  0.41417276  0.02056483  0.36688348  1
  S  S38  1  0.24298622  0.47677109  0.29648510  1
  S  S39  1  0.76808027  0.41807719  0.71014155  1
  S  S40  1  0.65959001  0.00199179  0.43046317  1
  S  S41  1  0.32290434  0.01772988  0.54497952  1
