# generated using pymatgen
data_Pr2Mn3(SbS3)4
_symmetry_space_group_name_H-M   'P 1'
_cell_length_a   20.02960800
_cell_length_b   3.90410600
_cell_length_c   14.95364829
_cell_angle_alpha   90.00000000
_cell_angle_beta   126.33350609
_cell_angle_gamma   90.00000000
_symmetry_Int_Tables_number   1
_chemical_formula_structural   Pr2Mn3(SbS3)4
_chemical_formula_sum   'Pr4 Mn6 Sb8 S24'
_cell_volume   942.00006694
_cell_formula_units_Z   2
loop_
 _symmetry_equiv_pos_site_id
 _symmetry_equiv_pos_as_xyz
  1  'x, y, z'
loop_
 _atom_site_type_symbol
 _atom_site_label
 _atom_site_symmetry_multiplicity
 _atom_site_fract_x
 _atom_site_fract_y
 _atom_site_fract_z
 _atom_site_occupancy
  Pr  Pr0  1  0.26731925  0.50126932  0.86491333  1
  Pr  Pr1  1  0.73462605  0.51009550  0.13440626  1
  Pr  Pr2  1  0.76357898  0.01719435  0.86122692  1
  Pr  Pr3  1  0.23453104  0.99686647  0.13330595  1
  Mn  Mn4  1  0.29072119  0.47504311  0.59161136  1
  Mn  Mn5  1  0.68531168  0.46928066  0.36533764  1
  Mn  Mn6  1  0.00778372  0.99583560  0.01746019  1
  Mn  Mn7  1  0.80320365  0.01331359  0.61962396  1
  Mn  Mn8  1  0.19797099  0.97433189  0.37277413  1
  Mn  Mn9  1  0.49053261  0.46686853  0.98999322  1
  Sb  Sb10  1  0.89124001  0.98374878  0.45276754  1
  Sb  Sb11  1  0.11080926  0.97838376  0.54408812  1
  Sb  Sb12  1  0.03654244  0.51975009  0.81944650  1
  Sb  Sb13  1  0.96426566  0.50124164  0.18760358  1
  Sb  Sb14  1  0.39462806  0.49771410  0.45067761  1
  Sb  Sb15  1  0.60613832  0.46759255  0.54886323  1
  Sb  Sb16  1  0.53397951  0.99136617  0.80811016  1
  Sb  Sb17  1  0.46586152  0.02377090  0.19186543  1
  S  S18  1  0.93861329  0.00901634  0.81086315  1
  S  S19  1  0.06419811  0.97797824  0.19886603  1
  S  S20  1  0.42113442  0.95985466  0.98922249  1
  S  S21  1  0.58373069  0.03285078  0.01540385  1
  S  S22  1  0.17319791  0.05919726  0.90397504  1
  S  S23  1  0.82973058  0.05086831  0.10373853  1
  S  S24  1  0.09426921  0.49151387  0.64938293  1
  S  S25  1  0.91547678  0.48944158  0.35892531  1
  S  S26  1  0.73503263  0.96194861  0.29735830  1
  S  S27  1  0.26121261  0.00746485  0.70772323  1
  S  S28  1  0.16174786  0.51635623  0.43003080  1
  S  S29  1  0.82286686  0.48686953  0.55004438  1
  S  S30  1  0.42891956  0.48460806  0.79504525  1
  S  S31  1  0.55190253  0.52163800  0.17948289  1
  S  S32  1  0.91460403  0.48662193  0.98747922  1
  S  S33  1  0.09005958  0.49933014  0.03205628  1
  S  S34  1  0.66316140  0.53993498  0.88792179  1
  S  S35  1  0.32871210  0.51082441  0.09580180  1
  S  S36  1  0.59975359  0.00319272  0.66050622  1
  S  S37  1  0.40187265  0.98074326  0.34165437  1
  S  S38  1  0.24061600  0.47207417  0.31257015  1
  S  S39  1  0.76184510  0.51603871  0.69067982  1
  S  S40  1  0.66475199  0.01500994  0.44785853  1
  S  S41  1  0.33094003  0.97685820  0.55679426  1
