# generated using pymatgen
data_Pr2Mn3(SbS3)4
_symmetry_space_group_name_H-M   'P 1'
_cell_length_a   20.02960800
_cell_length_b   3.90410600
_cell_length_c   14.95364829
_cell_angle_alpha   90.00000000
_cell_angle_beta   126.33350609
_cell_angle_gamma   90.00000000
_symmetry_Int_Tables_number   1
_chemical_formula_structural   Pr2Mn3(SbS3)4
_chemical_formula_sum   'Pr4 Mn6 Sb8 S24'
_cell_volume   942.00006694
_cell_formula_units_Z   2
loop_
 _symmetry_equiv_pos_site_id
 _symmetry_equiv_pos_as_xyz
  1  'x, y, z'
loop_
 _atom_site_type_symbol
 _atom_site_label
 _atom_site_symmetry_multiplicity
 _atom_site_fract_x
 _atom_site_fract_y
 _atom_site_fract_z
 _atom_site_occupancy
  Pr  Pr0  1  0.26429732  0.52954367  0.86524313  1
  Pr  Pr1  1  0.73030839  0.52525337  0.13550919  1
  Pr  Pr2  1  0.76789549  0.95747544  0.88555174  1
  Pr  Pr3  1  0.24279565  0.99320784  0.14735718  1
  Mn  Mn4  1  0.27426611  0.55944869  0.57563419  1
  Mn  Mn5  1  0.69522035  0.47710272  0.36820542  1
  Mn  Mn6  1  0.00187441  0.99571739  0.00297884  1
  Mn  Mn7  1  0.79460890  0.98230521  0.59750182  1
  Mn  Mn8  1  0.19291868  0.94852379  0.40035642  1
  Mn  Mn9  1  0.50199101  0.49721001  0.00616399  1
  Sb  Sb10  1  0.90038806  0.00645350  0.45440907  1
  Sb  Sb11  1  0.09967959  0.99689691  0.55203730  1
  Sb  Sb12  1  0.03604012  0.52927124  0.81549793  1
  Sb  Sb13  1  0.96103875  0.49292891  0.18802729  1
  Sb  Sb14  1  0.39445839  0.48534694  0.45361658  1
  Sb  Sb15  1  0.61662567  0.47421900  0.57091330  1
  Sb  Sb16  1  0.54175110  0.02513384  0.83834387  1
  Sb  Sb17  1  0.45852209  0.01601105  0.18480632  1
  S  S18  1  0.92579460  0.98287390  0.78489364  1
  S  S19  1  0.05943342  0.96514986  0.18737421  1
  S  S20  1  0.42183137  0.97273503  0.99313549  1
  S  S21  1  0.59217015  0.98829089  0.03294008  1
  S  S22  1  0.18078749  0.97131603  0.89386366  1
  S  S23  1  0.83758413  0.00130735  0.13116533  1
  S  S24  1  0.10222858  0.51243975  0.66531813  1
  S  S25  1  0.89610563  0.49375361  0.33971950  1
  S  S26  1  0.73966197  0.97617608  0.31139131  1
  S  S27  1  0.26462954  0.99406850  0.69419613  1
  S  S28  1  0.15561701  0.45135572  0.43387084  1
  S  S29  1  0.82458803  0.47635531  0.54330816  1
  S  S30  1  0.43485435  0.46371972  0.81751952  1
  S  S31  1  0.55851272  0.45403054  0.19879534  1
  S  S32  1  0.91586101  0.50655569  0.98808484  1
  S  S33  1  0.07895709  0.50600896  0.00437454  1
  S  S34  1  0.67882105  0.44136684  0.90651006  1
  S  S35  1  0.33435766  0.47127984  0.09936950  1
  S  S36  1  0.59609807  0.98038266  0.67594119  1
  S  S37  1  0.41449005  0.01976924  0.36703625  1
  S  S38  1  0.24349557  0.47769030  0.29717869  1
  S  S39  1  0.76815657  0.41711371  0.71040533  1
  S  S40  1  0.65971053  0.00224367  0.42999610  1
  S  S41  1  0.32272638  0.01800627  0.54524184  1
