# generated using pymatgen
data_Pr2Mn3(SbS3)4
_symmetry_space_group_name_H-M   'P 1'
_cell_length_a   20.02960800
_cell_length_b   3.90410600
_cell_length_c   14.95364829
_cell_angle_alpha   90.00000000
_cell_angle_beta   126.33350609
_cell_angle_gamma   90.00000000
_symmetry_Int_Tables_number   1
_chemical_formula_structural   Pr2Mn3(SbS3)4
_chemical_formula_sum   'Pr4 Mn6 Sb8 S24'
_cell_volume   942.00006694
_cell_formula_units_Z   2
loop_
 _symmetry_equiv_pos_site_id
 _symmetry_equiv_pos_as_xyz
  1  'x, y, z'
loop_
 _atom_site_type_symbol
 _atom_site_label
 _atom_site_symmetry_multiplicity
 _atom_site_fract_x
 _atom_site_fract_y
 _atom_site_fract_z
 _atom_site_occupancy
  Pr  Pr0  1  0.26421064  0.52937008  0.86519445  1
  Pr  Pr1  1  0.73034790  0.52562841  0.13555675  1
  Pr  Pr2  1  0.76788954  0.95747411  0.88570303  1
  Pr  Pr3  1  0.24284864  0.99362155  0.14729525  1
  Mn  Mn4  1  0.27384405  0.55902369  0.57512952  1
  Mn  Mn5  1  0.69496875  0.47784035  0.36800550  1
  Mn  Mn6  1  0.00189820  0.99537240  0.00264630  1
  Mn  Mn7  1  0.79475724  0.98242873  0.59757671  1
  Mn  Mn8  1  0.19324771  0.94907716  0.40038856  1
  Mn  Mn9  1  0.50196301  0.49692592  0.00632029  1
  Sb  Sb10  1  0.90024758  0.00647987  0.45424589  1
  Sb  Sb11  1  0.09972875  0.99742968  0.55206487  1
  Sb  Sb12  1  0.03590534  0.53000896  0.81526705  1
  Sb  Sb13  1  0.96099913  0.49259385  0.18800431  1
  Sb  Sb14  1  0.39463092  0.48413157  0.45379524  1
  Sb  Sb15  1  0.61664704  0.47342294  0.57105000  1
  Sb  Sb16  1  0.54179561  0.02574230  0.83862780  1
  Sb  Sb17  1  0.45869275  0.01583097  0.18507897  1
  S  S18  1  0.92568607  0.98394409  0.78494624  1
  S  S19  1  0.05932393  0.96478775  0.18743487  1
  S  S20  1  0.42216564  0.97203522  0.99310670  1
  S  S21  1  0.59226128  0.98767416  0.03304444  1
  S  S22  1  0.18078232  0.97326664  0.89378051  1
  S  S23  1  0.83755736  0.00273311  0.13114217  1
  S  S24  1  0.10245072  0.51261316  0.66549637  1
  S  S25  1  0.89615173  0.49501567  0.33964813  1
  S  S26  1  0.73964190  0.97607062  0.31163806  1
  S  S27  1  0.26439716  0.99319781  0.69395838  1
  S  S28  1  0.15597563  0.45096784  0.43417574  1
  S  S29  1  0.82440879  0.47667937  0.54356202  1
  S  S30  1  0.43509885  0.46470511  0.81746708  1
  S  S31  1  0.55847823  0.45390235  0.19870061  1
  S  S32  1  0.91587568  0.50681716  0.98820064  1
  S  S33  1  0.07903003  0.50691996  0.00427782  1
  S  S34  1  0.67879274  0.44137105  0.90652226  1
  S  S35  1  0.33455723  0.47165154  0.09977365  1
  S  S36  1  0.59643562  0.97998052  0.67623344  1
  S  S37  1  0.41488378  0.01868878  0.36719571  1
  S  S38  1  0.24402509  0.47878119  0.29780917  1
  S  S39  1  0.76824371  0.41603870  0.71061395  1
  S  S40  1  0.65979538  0.00249923  0.42965200  1
  S  S41  1  0.32257270  0.01816348  0.54542530  1
