# generated using pymatgen
data_Pr2Mn3(SbS3)4
_symmetry_space_group_name_H-M   'P 1'
_cell_length_a   20.02960800
_cell_length_b   3.90410600
_cell_length_c   14.95364829
_cell_angle_alpha   90.00000000
_cell_angle_beta   126.33350609
_cell_angle_gamma   90.00000000
_symmetry_Int_Tables_number   1
_chemical_formula_structural   Pr2Mn3(SbS3)4
_chemical_formula_sum   'Pr4 Mn6 Sb8 S24'
_cell_volume   942.00006694
_cell_formula_units_Z   2
loop_
 _symmetry_equiv_pos_site_id
 _symmetry_equiv_pos_as_xyz
  1  'x, y, z'
loop_
 _atom_site_type_symbol
 _atom_site_label
 _atom_site_symmetry_multiplicity
 _atom_site_fract_x
 _atom_site_fract_y
 _atom_site_fract_z
 _atom_site_occupancy
  Pr  Pr0  1  0.26412719  0.52885805  0.86515289  1
  Pr  Pr1  1  0.73035772  0.52594225  0.13559951  1
  Pr  Pr2  1  0.76787739  0.95727674  0.88574875  1
  Pr  Pr3  1  0.24287461  0.99360675  0.14715913  1
  Mn  Mn4  1  0.27341508  0.55861943  0.57449488  1
  Mn  Mn5  1  0.69480425  0.47866481  0.36788717  1
  Mn  Mn6  1  0.00205943  0.99467281  0.00249254  1
  Mn  Mn7  1  0.79496732  0.98246931  0.59780650  1
  Mn  Mn8  1  0.19337399  0.94992919  0.40026119  1
  Mn  Mn9  1  0.50192280  0.49672049  0.00650369  1
  Sb  Sb10  1  0.90008186  0.00706473  0.45412937  1
  Sb  Sb11  1  0.09977770  0.99809291  0.55204547  1
  Sb  Sb12  1  0.03574081  0.53079584  0.81489497  1
  Sb  Sb13  1  0.96097648  0.49256679  0.18800721  1
  Sb  Sb14  1  0.39482767  0.48351416  0.45399048  1
  Sb  Sb15  1  0.61664334  0.47251957  0.57118594  1
  Sb  Sb16  1  0.54186147  0.02601544  0.83886306  1
  Sb  Sb17  1  0.45892196  0.01580086  0.18541633  1
  S  S18  1  0.92562010  0.98552820  0.78506765  1
  S  S19  1  0.05911008  0.96389208  0.18747638  1
  S  S20  1  0.42241581  0.97179430  0.99295607  1
  S  S21  1  0.59240045  0.98727320  0.03311213  1
  S  S22  1  0.18098969  0.97485129  0.89407078  1
  S  S23  1  0.83780800  0.00333590  0.13148001  1
  S  S24  1  0.10256494  0.51265254  0.66574574  1
  S  S25  1  0.89613499  0.49602882  0.33962575  1
  S  S26  1  0.73949401  0.97629840  0.31189414  1
  S  S27  1  0.26414833  0.99219267  0.69355527  1
  S  S28  1  0.15636606  0.45019325  0.43456006  1
  S  S29  1  0.82416968  0.47673399  0.54389836  1
  S  S30  1  0.43526332  0.46561811  0.81752504  1
  S  S31  1  0.55837011  0.45379928  0.19859859  1
  S  S32  1  0.91589351  0.50789717  0.98818911  1
  S  S33  1  0.07900258  0.50806785  0.00422690  1
  S  S34  1  0.67871930  0.44160420  0.90642380  1
  S  S35  1  0.33480594  0.47157333  0.10022034  1
  S  S36  1  0.59658840  0.97921144  0.67628487  1
  S  S37  1  0.41534288  0.01755427  0.36746075  1
  S  S38  1  0.24454527  0.47887275  0.29825497  1
  S  S39  1  0.76848041  0.41465247  0.71096325  1
  S  S40  1  0.65986281  0.00230737  0.42919454  1
  S  S41  1  0.32237347  0.01883240  0.54553304  1
