# generated using pymatgen
data_Pr2Mn3(SbS3)4
_symmetry_space_group_name_H-M   'P 1'
_cell_length_a   20.02960800
_cell_length_b   3.90410600
_cell_length_c   14.95364829
_cell_angle_alpha   90.00000000
_cell_angle_beta   126.33350609
_cell_angle_gamma   90.00000000
_symmetry_Int_Tables_number   1
_chemical_formula_structural   Pr2Mn3(SbS3)4
_chemical_formula_sum   'Pr4 Mn6 Sb8 S24'
_cell_volume   942.00006694
_cell_formula_units_Z   2
loop_
 _symmetry_equiv_pos_site_id
 _symmetry_equiv_pos_as_xyz
  1  'x, y, z'
loop_
 _atom_site_type_symbol
 _atom_site_label
 _atom_site_symmetry_multiplicity
 _atom_site_fract_x
 _atom_site_fract_y
 _atom_site_fract_z
 _atom_site_occupancy
  Pr  Pr0  1  0.26403796  0.52821405  0.86507183  1
  Pr  Pr1  1  0.73035697  0.52634621  0.13555206  1
  Pr  Pr2  1  0.76788016  0.95694064  0.88589664  1
  Pr  Pr3  1  0.24290714  0.99379692  0.14700850  1
  Mn  Mn4  1  0.27308950  0.55847477  0.57396949  1
  Mn  Mn5  1  0.69465752  0.47927275  0.36788702  1
  Mn  Mn6  1  0.00220234  0.99413328  0.00231381  1
  Mn  Mn7  1  0.79505487  0.98281784  0.59790625  1
  Mn  Mn8  1  0.19346667  0.95064578  0.39996448  1
  Mn  Mn9  1  0.50185279  0.49622751  0.00658739  1
  Sb  Sb10  1  0.89996683  0.00778002  0.45401745  1
  Sb  Sb11  1  0.09988217  0.99868344  0.55220402  1
  Sb  Sb12  1  0.03569779  0.53149505  0.81462829  1
  Sb  Sb13  1  0.96088696  0.49253302  0.18792714  1
  Sb  Sb14  1  0.39507731  0.48293919  0.45426624  1
  Sb  Sb15  1  0.61663613  0.47151392  0.57126687  1
  Sb  Sb16  1  0.54192108  0.02624097  0.83904874  1
  Sb  Sb17  1  0.45905332  0.01568379  0.18570459  1
  S  S18  1  0.92555470  0.98688447  0.78508553  1
  S  S19  1  0.05896533  0.96286881  0.18736067  1
  S  S20  1  0.42258268  0.97157726  0.99274377  1
  S  S21  1  0.59248690  0.98691671  0.03330341  1
  S  S22  1  0.18124745  0.97601221  0.89425175  1
  S  S23  1  0.83793855  0.00351954  0.13175641  1
  S  S24  1  0.10264813  0.51298216  0.66596782  1
  S  S25  1  0.89612316  0.49673312  0.33973282  1
  S  S26  1  0.73947190  0.97686713  0.31220309  1
  S  S27  1  0.26403400  0.99117572  0.69309326  1
  S  S28  1  0.15669979  0.44925239  0.43490018  1
  S  S29  1  0.82406272  0.47640194  0.54423451  1
  S  S30  1  0.43529021  0.46640273  0.81749333  1
  S  S31  1  0.55825183  0.45345912  0.19839762  1
  S  S32  1  0.91587444  0.50894957  0.98826079  1
  S  S33  1  0.07906018  0.50978250  0.00425392  1
  S  S34  1  0.67868045  0.44164604  0.90646283  1
  S  S35  1  0.33508848  0.47189336  0.10077259  1
  S  S36  1  0.59670037  0.97798123  0.67634721  1
  S  S37  1  0.41583490  0.01658030  0.36773823  1
  S  S38  1  0.24513267  0.47850693  0.29874338  1
  S  S39  1  0.76881246  0.41365807  0.71150458  1
  S  S40  1  0.66000719  0.00218179  0.42877100  1
  S  S41  1  0.32236763  0.01929062  0.54584697  1
