# generated using pymatgen
data_Pr2Mn3(SbS3)4
_symmetry_space_group_name_H-M   'P 1'
_cell_length_a   20.02960800
_cell_length_b   3.90410600
_cell_length_c   14.95364829
_cell_angle_alpha   90.00000000
_cell_angle_beta   126.33350609
_cell_angle_gamma   90.00000000
_symmetry_Int_Tables_number   1
_chemical_formula_structural   Pr2Mn3(SbS3)4
_chemical_formula_sum   'Pr4 Mn6 Sb8 S24'
_cell_volume   942.00006694
_cell_formula_units_Z   2
loop_
 _symmetry_equiv_pos_site_id
 _symmetry_equiv_pos_as_xyz
  1  'x, y, z'
loop_
 _atom_site_type_symbol
 _atom_site_label
 _atom_site_symmetry_multiplicity
 _atom_site_fract_x
 _atom_site_fract_y
 _atom_site_fract_z
 _atom_site_occupancy
  Pr  Pr0  1  0.26392646  0.52764573  0.86490720  1
  Pr  Pr1  1  0.73039079  0.52704154  0.13550799  1
  Pr  Pr2  1  0.76790823  0.95654039  0.88602795  1
  Pr  Pr3  1  0.24295156  0.99418259  0.14690674  1
  Mn  Mn4  1  0.27289472  0.55811969  0.57369005  1
  Mn  Mn5  1  0.69459661  0.47921021  0.36798629  1
  Mn  Mn6  1  0.00243736  0.99328729  0.00222750  1
  Mn  Mn7  1  0.79504901  0.98300599  0.59782050  1
  Mn  Mn8  1  0.19360297  0.95150449  0.39983521  1
  Mn  Mn9  1  0.50177864  0.49606608  0.00661048  1
  Sb  Sb10  1  0.89985934  0.00824198  0.45396854  1
  Sb  Sb11  1  0.09990455  0.99896337  0.55224389  1
  Sb  Sb12  1  0.03564809  0.53248638  0.81436606  1
  Sb  Sb13  1  0.96087443  0.49251545  0.18798436  1
  Sb  Sb14  1  0.39523524  0.48217672  0.45444396  1
  Sb  Sb15  1  0.61662551  0.47063200  0.57132881  1
  Sb  Sb16  1  0.54202721  0.02661216  0.83926991  1
  Sb  Sb17  1  0.45917847  0.01557387  0.18604128  1
  S  S18  1  0.92543830  0.98779436  0.78509230  1
  S  S19  1  0.05898225  0.96209394  0.18746062  1
  S  S20  1  0.42256004  0.97161427  0.99236429  1
  S  S21  1  0.59250554  0.98646305  0.03332141  1
  S  S22  1  0.18156740  0.97713441  0.89452988  1
  S  S23  1  0.83815742  0.00274012  0.13194227  1
  S  S24  1  0.10269347  0.51377634  0.66633040  1
  S  S25  1  0.89603761  0.49713751  0.33991175  1
  S  S26  1  0.73932291  0.97799745  0.31234653  1
  S  S27  1  0.26371421  0.99045619  0.69255047  1
  S  S28  1  0.15709247  0.44874432  0.43513776  1
  S  S29  1  0.82393913  0.47565148  0.54457146  1
  S  S30  1  0.43538578  0.46744644  0.81748336  1
  S  S31  1  0.55828347  0.45323041  0.19832985  1
  S  S32  1  0.91585823  0.50928712  0.98834719  1
  S  S33  1  0.07919974  0.51160580  0.00423222  1
  S  S34  1  0.67858872  0.44199444  0.90641068  1
  S  S35  1  0.33530508  0.47240819  0.10110588  1
  S  S36  1  0.59682397  0.97642603  0.67642335  1
  S  S37  1  0.41622056  0.01563000  0.36798274  1
  S  S38  1  0.24553241  0.47795785  0.29911120  1
  S  S39  1  0.76901015  0.41283069  0.71184188  1
  S  S40  1  0.66002971  0.00201956  0.42825026  1
  S  S41  1  0.32246314  0.02029260  0.54620494  1
