# generated using pymatgen
data_Pr2Mn3(SbS3)4
_symmetry_space_group_name_H-M   'P 1'
_cell_length_a   20.02960800
_cell_length_b   3.90410600
_cell_length_c   14.95364829
_cell_angle_alpha   90.00000000
_cell_angle_beta   126.33350609
_cell_angle_gamma   90.00000000
_symmetry_Int_Tables_number   1
_chemical_formula_structural   Pr2Mn3(SbS3)4
_chemical_formula_sum   'Pr4 Mn6 Sb8 S24'
_cell_volume   942.00006694
_cell_formula_units_Z   2
loop_
 _symmetry_equiv_pos_site_id
 _symmetry_equiv_pos_as_xyz
  1  'x, y, z'
loop_
 _atom_site_type_symbol
 _atom_site_label
 _atom_site_symmetry_multiplicity
 _atom_site_fract_x
 _atom_site_fract_y
 _atom_site_fract_z
 _atom_site_occupancy
  Pr  Pr0  1  0.26386744  0.52701098  0.86473915  1
  Pr  Pr1  1  0.73043655  0.52768259  0.13550475  1
  Pr  Pr2  1  0.76787971  0.95620553  0.88608388  1
  Pr  Pr3  1  0.24303007  0.99490495  0.14679754  1
  Mn  Mn4  1  0.27283102  0.55747133  0.57355079  1
  Mn  Mn5  1  0.69441821  0.47905554  0.36794114  1
  Mn  Mn6  1  0.00258281  0.99172263  0.00215697  1
  Mn  Mn7  1  0.79490457  0.98335502  0.59760222  1
  Mn  Mn8  1  0.19369336  0.95200364  0.39962755  1
  Mn  Mn9  1  0.50168666  0.49553452  0.00671506  1
  Sb  Sb10  1  0.89972600  0.00860846  0.45395011  1
  Sb  Sb11  1  0.09992632  0.99912230  0.55231401  1
  Sb  Sb12  1  0.03558369  0.53337195  0.81409400  1
  Sb  Sb13  1  0.96086839  0.49227210  0.18803772  1
  Sb  Sb14  1  0.39532683  0.48144675  0.45457760  1
  Sb  Sb15  1  0.61652363  0.47002997  0.57135977  1
  Sb  Sb16  1  0.54210804  0.02694422  0.83938523  1
  Sb  Sb17  1  0.45927461  0.01574441  0.18636147  1
  S  S18  1  0.92538187  0.98871750  0.78523578  1
  S  S19  1  0.05910428  0.96127097  0.18769860  1
  S  S20  1  0.42245915  0.97173418  0.99182240  1
  S  S21  1  0.59241233  0.98591376  0.03341645  1
  S  S22  1  0.18179380  0.97820596  0.89469843  1
  S  S23  1  0.83841697  0.00246986  0.13222039  1
  S  S24  1  0.10263001  0.51436781  0.66656305  1
  S  S25  1  0.89602293  0.49777511  0.34021294  1
  S  S26  1  0.73912482  0.97907136  0.31261105  1
  S  S27  1  0.26348357  0.98945378  0.69196467  1
  S  S28  1  0.15735616  0.44893247  0.43517354  1
  S  S29  1  0.82381053  0.47491762  0.54482849  1
  S  S30  1  0.43569663  0.46882346  0.81754328  1
  S  S31  1  0.55826817  0.45392520  0.19826081  1
  S  S32  1  0.91593764  0.50968479  0.98842679  1
  S  S33  1  0.07942140  0.51300734  0.00438322  1
  S  S34  1  0.67846417  0.44272228  0.90639686  1
  S  S35  1  0.33537492  0.47247746  0.10137073  1
  S  S36  1  0.59684443  0.97513882  0.67640084  1
  S  S37  1  0.41653527  0.01431248  0.36833200  1
  S  S38  1  0.24592252  0.47741574  0.29930430  1
  S  S39  1  0.76903610  0.41218650  0.71196502  1
  S  S40  1  0.66011279  0.00119222  0.42792904  1
  S  S41  1  0.32258057  0.02105120  0.54658400  1
