# generated using pymatgen
data_Pr2Mn3(SbS3)4
_symmetry_space_group_name_H-M   'P 1'
_cell_length_a   20.02960800
_cell_length_b   3.90410600
_cell_length_c   14.95364829
_cell_angle_alpha   90.00000000
_cell_angle_beta   126.33350609
_cell_angle_gamma   90.00000000
_symmetry_Int_Tables_number   1
_chemical_formula_structural   Pr2Mn3(SbS3)4
_chemical_formula_sum   'Pr4 Mn6 Sb8 S24'
_cell_volume   942.00006694
_cell_formula_units_Z   2
loop_
 _symmetry_equiv_pos_site_id
 _symmetry_equiv_pos_as_xyz
  1  'x, y, z'
loop_
 _atom_site_type_symbol
 _atom_site_label
 _atom_site_symmetry_multiplicity
 _atom_site_fract_x
 _atom_site_fract_y
 _atom_site_fract_z
 _atom_site_occupancy
  Pr  Pr0  1  0.26381889  0.52593524  0.86465258  1
  Pr  Pr1  1  0.73044856  0.52841690  0.13549738  1
  Pr  Pr2  1  0.76791691  0.95589330  0.88614305  1
  Pr  Pr3  1  0.24308155  0.99556818  0.14668817  1
  Mn  Mn4  1  0.27279211  0.55698099  0.57332456  1
  Mn  Mn5  1  0.69423565  0.47867284  0.36789879  1
  Mn  Mn6  1  0.00278277  0.99028542  0.00216682  1
  Mn  Mn7  1  0.79479593  0.98352465  0.59733399  1
  Mn  Mn8  1  0.19373833  0.95211659  0.39938763  1
  Mn  Mn9  1  0.50153629  0.49529209  0.00683222  1
  Sb  Sb10  1  0.89954759  0.00877923  0.45388511  1
  Sb  Sb11  1  0.09989818  0.99937134  0.55233749  1
  Sb  Sb12  1  0.03545502  0.53420454  0.81374996  1
  Sb  Sb13  1  0.96083576  0.49200554  0.18802581  1
  Sb  Sb14  1  0.39541705  0.48088282  0.45473714  1
  Sb  Sb15  1  0.61647154  0.46942591  0.57130329  1
  Sb  Sb16  1  0.54218648  0.02708473  0.83944683  1
  Sb  Sb17  1  0.45935491  0.01590808  0.18659497  1
  S  S18  1  0.92538983  0.98889036  0.78543784  1
  S  S19  1  0.05909239  0.96060417  0.18774228  1
  S  S20  1  0.42234134  0.97223246  0.99135262  1
  S  S21  1  0.59236846  0.98483522  0.03347471  1
  S  S22  1  0.18182658  0.97890393  0.89462238  1
  S  S23  1  0.83864997  0.00217542  0.13231349  1
  S  S24  1  0.10239006  0.51468891  0.66657189  1
  S  S25  1  0.89584208  0.49838299  0.34037362  1
  S  S26  1  0.73897413  0.97941942  0.31294741  1
  S  S27  1  0.26331134  0.98825890  0.69154641  1
  S  S28  1  0.15743103  0.44844774  0.43514066  1
  S  S29  1  0.82364765  0.47410350  0.54502144  1
  S  S30  1  0.43596890  0.47028064  0.81740983  1
  S  S31  1  0.55827513  0.45473513  0.19835108  1
  S  S32  1  0.91604082  0.50999925  0.98859520  1
  S  S33  1  0.07956470  0.51428056  0.00443560  1
  S  S34  1  0.67839018  0.44311959  0.90643506  1
  S  S35  1  0.33547076  0.47185535  0.10164505  1
  S  S36  1  0.59702426  0.97425319  0.67664861  1
  S  S37  1  0.41687305  0.01277956  0.36862849  1
  S  S38  1  0.24618434  0.47684633  0.29955580  1
  S  S39  1  0.76905366  0.41185199  0.71215504  1
  S  S40  1  0.66026010  0.99986271  0.42781146  1
  S  S41  1  0.32275148  0.02204827  0.54704590  1
