# generated using pymatgen
data_Pr2Mn3(SbS3)4
_symmetry_space_group_name_H-M   'P 1'
_cell_length_a   20.02960800
_cell_length_b   3.90410600
_cell_length_c   14.95364829
_cell_angle_alpha   90.00000000
_cell_angle_beta   126.33350609
_cell_angle_gamma   90.00000000
_symmetry_Int_Tables_number   1
_chemical_formula_structural   Pr2Mn3(SbS3)4
_chemical_formula_sum   'Pr4 Mn6 Sb8 S24'
_cell_volume   942.00006694
_cell_formula_units_Z   2
loop_
 _symmetry_equiv_pos_site_id
 _symmetry_equiv_pos_as_xyz
  1  'x, y, z'
loop_
 _atom_site_type_symbol
 _atom_site_label
 _atom_site_symmetry_multiplicity
 _atom_site_fract_x
 _atom_site_fract_y
 _atom_site_fract_z
 _atom_site_occupancy
  Pr  Pr0  1  0.26382441  0.52520602  0.86457456  1
  Pr  Pr1  1  0.73044734  0.52913864  0.13538840  1
  Pr  Pr2  1  0.76797712  0.95546895  0.88612106  1
  Pr  Pr3  1  0.24314023  0.99606878  0.14664123  1
  Mn  Mn4  1  0.27290342  0.55653611  0.57310721  1
  Mn  Mn5  1  0.69413488  0.47835168  0.36795616  1
  Mn  Mn6  1  0.00297445  0.98895423  0.00223660  1
  Mn  Mn7  1  0.79465203  0.98371920  0.59708421  1
  Mn  Mn8  1  0.19380355  0.95207438  0.39916768  1
  Mn  Mn9  1  0.50142029  0.49474446  0.00696702  1
  Sb  Sb10  1  0.89931311  0.00903606  0.45374395  1
  Sb  Sb11  1  0.09986639  0.99971386  0.55235785  1
  Sb  Sb12  1  0.03531095  0.53496504  0.81344586  1
  Sb  Sb13  1  0.96080623  0.49154707  0.18790624  1
  Sb  Sb14  1  0.39548141  0.48051105  0.45492853  1
  Sb  Sb15  1  0.61638779  0.46876549  0.57119749  1
  Sb  Sb16  1  0.54219653  0.02698602  0.83950798  1
  Sb  Sb17  1  0.45938014  0.01605721  0.18680150  1
  S  S18  1  0.92540620  0.98875200  0.78565848  1
  S  S19  1  0.05907411  0.96017487  0.18780480  1
  S  S20  1  0.42220801  0.97251315  0.99102398  1
  S  S21  1  0.59226520  0.98404075  0.03344984  1
  S  S22  1  0.18191600  0.97970454  0.89459898  1
  S  S23  1  0.83877219  0.00128306  0.13243317  1
  S  S24  1  0.10232160  0.51494452  0.66665556  1
  S  S25  1  0.89558923  0.49920651  0.34048098  1
  S  S26  1  0.73894673  0.98031297  0.31315759  1
  S  S27  1  0.26315771  0.98720503  0.69125554  1
  S  S28  1  0.15750020  0.44752398  0.43506065  1
  S  S29  1  0.82361947  0.47347842  0.54522439  1
  S  S30  1  0.43629974  0.47183887  0.81735372  1
  S  S31  1  0.55841868  0.45593618  0.19863863  1
  S  S32  1  0.91634903  0.50977880  0.98896880  1
  S  S33  1  0.07970913  0.51565886  0.00457392  1
  S  S34  1  0.67843412  0.44281231  0.90648882  1
  S  S35  1  0.33548004  0.47104454  0.10194546  1
  S  S36  1  0.59712936  0.97303268  0.67672176  1
  S  S37  1  0.41724479  0.01138521  0.36902592  1
  S  S38  1  0.24641795  0.47528876  0.29969776  1
  S  S39  1  0.76901248  0.41163386  0.71245378  1
  S  S40  1  0.66035805  0.99918345  0.42761537  1
  S  S41  1  0.32289529  0.02289668  0.54740160  1
