# generated using pymatgen
data_Pr2Mn3(SbS3)4
_symmetry_space_group_name_H-M   'P 1'
_cell_length_a   20.02960800
_cell_length_b   3.90410600
_cell_length_c   14.95364829
_cell_angle_alpha   90.00000000
_cell_angle_beta   126.33350609
_cell_angle_gamma   90.00000000
_symmetry_Int_Tables_number   1
_chemical_formula_structural   Pr2Mn3(SbS3)4
_chemical_formula_sum   'Pr4 Mn6 Sb8 S24'
_cell_volume   942.00006694
_cell_formula_units_Z   2
loop_
 _symmetry_equiv_pos_site_id
 _symmetry_equiv_pos_as_xyz
  1  'x, y, z'
loop_
 _atom_site_type_symbol
 _atom_site_label
 _atom_site_symmetry_multiplicity
 _atom_site_fract_x
 _atom_site_fract_y
 _atom_site_fract_z
 _atom_site_occupancy
  Pr  Pr0  1  0.26383234  0.52471674  0.86450370  1
  Pr  Pr1  1  0.73048826  0.52966539  0.13534125  1
  Pr  Pr2  1  0.76798157  0.95488916  0.88606871  1
  Pr  Pr3  1  0.24313060  0.99647080  0.14656367  1
  Mn  Mn4  1  0.27307332  0.55577106  0.57303873  1
  Mn  Mn5  1  0.69408528  0.47757710  0.36804067  1
  Mn  Mn6  1  0.00313994  0.98738003  0.00248245  1
  Mn  Mn7  1  0.79456395  0.98380456  0.59675659  1
  Mn  Mn8  1  0.19391804  0.95177099  0.39891197  1
  Mn  Mn9  1  0.50137487  0.49447505  0.00716416  1
  Sb  Sb10  1  0.89912467  0.00937803  0.45362984  1
  Sb  Sb11  1  0.09984260  0.00031454  0.55224345  1
  Sb  Sb12  1  0.03512407  0.53617200  0.81313944  1
  Sb  Sb13  1  0.96075684  0.49112609  0.18773821  1
  Sb  Sb14  1  0.39552005  0.48017079  0.45507571  1
  Sb  Sb15  1  0.61635388  0.46825566  0.57112543  1
  Sb  Sb16  1  0.54215910  0.02687902  0.83957349  1
  Sb  Sb17  1  0.45942073  0.01609600  0.18695350  1
  S  S18  1  0.92548783  0.98887459  0.78595371  1
  S  S19  1  0.05900794  0.95909687  0.18789633  1
  S  S20  1  0.42199629  0.97240874  0.99053819  1
  S  S21  1  0.59200658  0.98334568  0.03339703  1
  S  S22  1  0.18195413  0.98017640  0.89465224  1
  S  S23  1  0.83868090  0.00048756  0.13236574  1
  S  S24  1  0.10237737  0.51512345  0.66692381  1
  S  S25  1  0.89542704  0.50042630  0.34069736  1
  S  S26  1  0.73900438  0.98097441  0.31357110  1
  S  S27  1  0.26296151  0.98686081  0.69081162  1
  S  S28  1  0.15742440  0.44697869  0.43502700  1
  S  S29  1  0.82355207  0.47287801  0.54530147  1
  S  S30  1  0.43647366  0.47326268  0.81712651  1
  S  S31  1  0.55845988  0.45686349  0.19869672  1
  S  S32  1  0.91667570  0.51080482  0.98936734  1
  S  S33  1  0.07990550  0.51684365  0.00477435  1
  S  S34  1  0.67849895  0.44228311  0.90659135  1
  S  S35  1  0.33540459  0.47002227  0.10219949  1
  S  S36  1  0.59720089  0.97137118  0.67685275  1
  S  S37  1  0.41760150  0.01022397  0.36934597  1
  S  S38  1  0.24655862  0.47433017  0.29993456  1
  S  S39  1  0.76901078  0.41139032  0.71277768  1
  S  S40  1  0.66043160  0.99826111  0.42736438  1
  S  S41  1  0.32302910  0.02356244  0.54791375  1
