# generated using pymatgen
data_Pr2Mn3(SbS3)4
_symmetry_space_group_name_H-M   'P 1'
_cell_length_a   20.02960800
_cell_length_b   3.90410600
_cell_length_c   14.95364829
_cell_angle_alpha   90.00000000
_cell_angle_beta   126.33350609
_cell_angle_gamma   90.00000000
_symmetry_Int_Tables_number   1
_chemical_formula_structural   Pr2Mn3(SbS3)4
_chemical_formula_sum   'Pr4 Mn6 Sb8 S24'
_cell_volume   942.00006694
_cell_formula_units_Z   2
loop_
 _symmetry_equiv_pos_site_id
 _symmetry_equiv_pos_as_xyz
  1  'x, y, z'
loop_
 _atom_site_type_symbol
 _atom_site_label
 _atom_site_symmetry_multiplicity
 _atom_site_fract_x
 _atom_site_fract_y
 _atom_site_fract_z
 _atom_site_occupancy
  Pr  Pr0  1  0.26378600  0.52424619  0.86439702  1
  Pr  Pr1  1  0.73055684  0.53010917  0.13534621  1
  Pr  Pr2  1  0.76802756  0.95401441  0.88602515  1
  Pr  Pr3  1  0.24317286  0.99671637  0.14657307  1
  Mn  Mn4  1  0.27328672  0.55493834  0.57311554  1
  Mn  Mn5  1  0.69409141  0.47673145  0.36833749  1
  Mn  Mn6  1  0.00327096  0.98614349  0.00287601  1
  Mn  Mn7  1  0.79450522  0.98393638  0.59653191  1
  Mn  Mn8  1  0.19410934  0.95180253  0.39875811  1
  Mn  Mn9  1  0.50126044  0.49408520  0.00720568  1
  Sb  Sb10  1  0.89897122  0.00984125  0.45346179  1
  Sb  Sb11  1  0.09979479  0.00093339  0.55211866  1
  Sb  Sb12  1  0.03494942  0.53707863  0.81281967  1
  Sb  Sb13  1  0.96073924  0.49111160  0.18766514  1
  Sb  Sb14  1  0.39559145  0.47993329  0.45522018  1
  Sb  Sb15  1  0.61633096  0.46773061  0.57107365  1
  Sb  Sb16  1  0.54204744  0.02670642  0.83951712  1
  Sb  Sb17  1  0.45952150  0.01616641  0.18722633  1
  S  S18  1  0.92552258  0.98839416  0.78634152  1
  S  S19  1  0.05904660  0.95775062  0.18789780  1
  S  S20  1  0.42180582  0.97224202  0.99017260  1
  S  S21  1  0.59177759  0.98362875  0.03343677  1
  S  S22  1  0.18178911  0.98015136  0.89480357  1
  S  S23  1  0.83852606  0.00024695  0.13229358  1
  S  S24  1  0.10262826  0.51542672  0.66736690  1
  S  S25  1  0.89527954  0.50105135  0.34097426  1
  S  S26  1  0.73899978  0.98093750  0.31392903  1
  S  S27  1  0.26292921  0.98644434  0.69054042  1
  S  S28  1  0.15731562  0.44578389  0.43504779  1
  S  S29  1  0.82347082  0.47181193  0.54537681  1
  S  S30  1  0.43674226  0.47535997  0.81713473  1
  S  S31  1  0.55847174  0.45804296  0.19868636  1
  S  S32  1  0.91694015  0.51115568  0.98975185  1
  S  S33  1  0.08008690  0.51800093  0.00488220  1
  S  S34  1  0.67861875  0.44186756  0.90677994  1
  S  S35  1  0.33542020  0.46857040  0.10258059  1
  S  S36  1  0.59731674  0.96970770  0.67702503  1
  S  S37  1  0.41795832  0.00870214  0.36956148  1
  S  S38  1  0.24662446  0.47326541  0.30017434  1
  S  S39  1  0.76893649  0.41172914  0.71307499  1
  S  S40  1  0.66043230  0.99756109  0.42711167  1
  S  S41  1  0.32325031  0.02390926  0.54837205  1
