# generated using pymatgen
data_Pr2Mn3(SbS3)4
_symmetry_space_group_name_H-M   'P 1'
_cell_length_a   20.02960800
_cell_length_b   3.90410600
_cell_length_c   14.95364829
_cell_angle_alpha   90.00000000
_cell_angle_beta   126.33350609
_cell_angle_gamma   90.00000000
_symmetry_Int_Tables_number   1
_chemical_formula_structural   Pr2Mn3(SbS3)4
_chemical_formula_sum   'Pr4 Mn6 Sb8 S24'
_cell_volume   942.00006694
_cell_formula_units_Z   2
loop_
 _symmetry_equiv_pos_site_id
 _symmetry_equiv_pos_as_xyz
  1  'x, y, z'
loop_
 _atom_site_type_symbol
 _atom_site_label
 _atom_site_symmetry_multiplicity
 _atom_site_fract_x
 _atom_site_fract_y
 _atom_site_fract_z
 _atom_site_occupancy
  Pr  Pr0  1  0.26746834  0.50145342  0.86511243  1
  Pr  Pr1  1  0.73460642  0.50983224  0.13439139  1
  Pr  Pr2  1  0.76356256  0.01784434  0.86117782  1
  Pr  Pr3  1  0.23449835  0.99677503  0.13312735  1
  Mn  Mn4  1  0.29095315  0.47448913  0.59197823  1
  Mn  Mn5  1  0.68524081  0.46926078  0.36523807  1
  Mn  Mn6  1  0.00771957  0.99560537  0.01715221  1
  Mn  Mn7  1  0.80305644  0.01335020  0.61967709  1
  Mn  Mn8  1  0.19801690  0.97445040  0.37277331  1
  Mn  Mn9  1  0.49035014  0.46647340  0.98990132  1
  Sb  Sb10  1  0.89126826  0.98377910  0.45272372  1
  Sb  Sb11  1  0.11071691  0.97822994  0.54411296  1
  Sb  Sb12  1  0.03639510  0.51997488  0.81940447  1
  Sb  Sb13  1  0.96434579  0.50100484  0.18790495  1
  Sb  Sb14  1  0.39453432  0.49796110  0.45057298  1
  Sb  Sb15  1  0.60618011  0.46773273  0.54886240  1
  Sb  Sb16  1  0.53386960  0.99099592  0.80799140  1
  Sb  Sb17  1  0.46587487  0.02384766  0.19197127  1
  S  S18  1  0.93863308  0.00881894  0.81073681  1
  S  S19  1  0.06421254  0.97803124  0.19882806  1
  S  S20  1  0.42124697  0.96027265  0.98970226  1
  S  S21  1  0.58367204  0.03298601  0.01519992  1
  S  S22  1  0.17320402  0.05944478  0.90401215  1
  S  S23  1  0.82966155  0.05072300  0.10395049  1
  S  S24  1  0.09433372  0.49232371  0.64952838  1
  S  S25  1  0.91554642  0.48895984  0.35910387  1
  S  S26  1  0.73504233  0.96325489  0.29732849  1
  S  S27  1  0.26105429  0.00702180  0.70777195  1
  S  S28  1  0.16215284  0.51693027  0.43038418  1
  S  S29  1  0.82267119  0.48633590  0.54963470  1
  S  S30  1  0.42915726  0.48369946  0.79485054  1
  S  S31  1  0.55198357  0.52133342  0.17928238  1
  S  S32  1  0.91461990  0.48635368  0.98737125  1
  S  S33  1  0.08975206  0.49913638  0.03192579  1
  S  S34  1  0.66320794  0.54143540  0.88820407  1
  S  S35  1  0.32863824  0.51020381  0.09559804  1
  S  S36  1  0.59947314  0.00377752  0.66062057  1
  S  S37  1  0.40188490  0.98116757  0.34177171  1
  S  S38  1  0.24068920  0.47215263  0.31264471  1
  S  S39  1  0.76171970  0.51642505  0.69058203  1
  S  S40  1  0.66462565  0.01429178  0.44774867  1
  S  S41  1  0.33102193  0.97790772  0.55676998  1
