# generated using pymatgen
data_Pr2Mn3(SbS3)4
_symmetry_space_group_name_H-M   'P 1'
_cell_length_a   20.02960800
_cell_length_b   3.90410600
_cell_length_c   14.95364829
_cell_angle_alpha   90.00000000
_cell_angle_beta   126.33350609
_cell_angle_gamma   90.00000000
_symmetry_Int_Tables_number   1
_chemical_formula_structural   Pr2Mn3(SbS3)4
_chemical_formula_sum   'Pr4 Mn6 Sb8 S24'
_cell_volume   942.00006694
_cell_formula_units_Z   2
loop_
 _symmetry_equiv_pos_site_id
 _symmetry_equiv_pos_as_xyz
  1  'x, y, z'
loop_
 _atom_site_type_symbol
 _atom_site_label
 _atom_site_symmetry_multiplicity
 _atom_site_fract_x
 _atom_site_fract_y
 _atom_site_fract_z
 _atom_site_occupancy
  Pr  Pr0  1  0.26377959  0.52401261  0.86442075  1
  Pr  Pr1  1  0.73053272  0.53072671  0.13532064  1
  Pr  Pr2  1  0.76813450  0.95344456  0.88599562  1
  Pr  Pr3  1  0.24323797  0.99710690  0.14657017  1
  Mn  Mn4  1  0.27344954  0.55357432  0.57309566  1
  Mn  Mn5  1  0.69406149  0.47593846  0.36849304  1
  Mn  Mn6  1  0.00344831  0.98515548  0.00335801  1
  Mn  Mn7  1  0.79452859  0.98367117  0.59633899  1
  Mn  Mn8  1  0.19431959  0.95196122  0.39869152  1
  Mn  Mn9  1  0.50109116  0.49433014  0.00710359  1
  Sb  Sb10  1  0.89874018  0.01011132  0.45319844  1
  Sb  Sb11  1  0.09978110  0.00140896  0.55198844  1
  Sb  Sb12  1  0.03478904  0.53805251  0.81253969  1
  Sb  Sb13  1  0.96076256  0.49108851  0.18766034  1
  Sb  Sb14  1  0.39566082  0.47991560  0.45530250  1
  Sb  Sb15  1  0.61636839  0.46716812  0.57105349  1
  Sb  Sb16  1  0.54194052  0.02641185  0.83951976  1
  Sb  Sb17  1  0.45952029  0.01635260  0.18726260  1
  S  S18  1  0.92553514  0.98814565  0.78663032  1
  S  S19  1  0.05896867  0.95666396  0.18769625  1
  S  S20  1  0.42169854  0.97187507  0.98986549  1
  S  S21  1  0.59144689  0.98380700  0.03333018  1
  S  S22  1  0.18154864  0.98027264  0.89493109  1
  S  S23  1  0.83839446  0.00018448  0.13192916  1
  S  S24  1  0.10273660  0.51513180  0.66751486  1
  S  S25  1  0.89521711  0.50149687  0.34112271  1
  S  S26  1  0.73895045  0.98119459  0.31428761  1
  S  S27  1  0.26285236  0.98601463  0.69018009  1
  S  S28  1  0.15716689  0.44478320  0.43508577  1
  S  S29  1  0.82355499  0.47062376  0.54538044  1
  S  S30  1  0.43704120  0.47724726  0.81715240  1
  S  S31  1  0.55844235  0.45881409  0.19888276  1
  S  S32  1  0.91696818  0.51117711  0.98984658  1
  S  S33  1  0.08032813  0.51871714  0.00489513  1
  S  S34  1  0.67863594  0.44142247  0.90675352  1
  S  S35  1  0.33544595  0.46652074  0.10312360  1
  S  S36  1  0.59733636  0.96805943  0.67713750  1
  S  S37  1  0.41837951  0.00687308  0.36984637  1
  S  S38  1  0.24665764  0.47172843  0.30034147  1
  S  S39  1  0.76884252  0.41157191  0.71341857  1
  S  S40  1  0.66044625  0.99729990  0.42671738  1
  S  S41  1  0.32337414  0.02384459  0.54866564  1
