# generated using pymatgen
data_Pr2Mn3(SbS3)4
_symmetry_space_group_name_H-M   'P 1'
_cell_length_a   20.02960800
_cell_length_b   3.90410600
_cell_length_c   14.95364829
_cell_angle_alpha   90.00000000
_cell_angle_beta   126.33350609
_cell_angle_gamma   90.00000000
_symmetry_Int_Tables_number   1
_chemical_formula_structural   Pr2Mn3(SbS3)4
_chemical_formula_sum   'Pr4 Mn6 Sb8 S24'
_cell_volume   942.00006694
_cell_formula_units_Z   2
loop_
 _symmetry_equiv_pos_site_id
 _symmetry_equiv_pos_as_xyz
  1  'x, y, z'
loop_
 _atom_site_type_symbol
 _atom_site_label
 _atom_site_symmetry_multiplicity
 _atom_site_fract_x
 _atom_site_fract_y
 _atom_site_fract_z
 _atom_site_occupancy
  Pr  Pr0  1  0.26375063  0.52379519  0.86437515  1
  Pr  Pr1  1  0.73043776  0.53159324  0.13519224  1
  Pr  Pr2  1  0.76825338  0.95312316  0.88598140  1
  Pr  Pr3  1  0.24338831  0.99767949  0.14667032  1
  Mn  Mn4  1  0.27354806  0.55300027  0.57310557  1
  Mn  Mn5  1  0.69423201  0.47477941  0.36880570  1
  Mn  Mn6  1  0.00351339  0.98417335  0.00378372  1
  Mn  Mn7  1  0.79455855  0.98325560  0.59635564  1
  Mn  Mn8  1  0.19447678  0.95177138  0.39868548  1
  Mn  Mn9  1  0.50094328  0.49464691  0.00706579  1
  Sb  Sb10  1  0.89854514  0.01054472  0.45291288  1
  Sb  Sb11  1  0.09983463  0.00159308  0.55181844  1
  Sb  Sb12  1  0.03472677  0.53886696  0.81232562  1
  Sb  Sb13  1  0.96079124  0.49120671  0.18767667  1
  Sb  Sb14  1  0.39568550  0.47984514  0.45540167  1
  Sb  Sb15  1  0.61630222  0.46630649  0.57086940  1
  Sb  Sb16  1  0.54176337  0.02595636  0.83934102  1
  Sb  Sb17  1  0.45961983  0.01640590  0.18730274  1
  S  S18  1  0.92549242  0.98818260  0.78667109  1
  S  S19  1  0.05888481  0.95595744  0.18745764  1
  S  S20  1  0.42142755  0.97165286  0.98964206  1
  S  S21  1  0.59096504  0.98342911  0.03321168  1
  S  S22  1  0.18131562  0.98020701  0.89495982  1
  S  S23  1  0.83829147  0.99961861  0.13155886  1
  S  S24  1  0.10262914  0.51546284  0.66747298  1
  S  S25  1  0.89518476  0.50174837  0.34118900  1
  S  S26  1  0.73886327  0.98117414  0.31454956  1
  S  S27  1  0.26272524  0.98567231  0.68994025  1
  S  S28  1  0.15691422  0.44386456  0.43495436  1
  S  S29  1  0.82367617  0.46987359  0.54546458  1
  S  S30  1  0.43733594  0.47881148  0.81724028  1
  S  S31  1  0.55862903  0.46006685  0.19914631  1
  S  S32  1  0.91704284  0.51066672  0.98977373  1
  S  S33  1  0.08045888  0.51909078  0.00475709  1
  S  S34  1  0.67867276  0.44182257  0.90669990  1
  S  S35  1  0.33550031  0.46512716  0.10354123  1
  S  S36  1  0.59745752  0.96626798  0.67721546  1
  S  S37  1  0.41876115  0.00558776  0.37027611  1
  S  S38  1  0.24653614  0.47048248  0.30042771  1
  S  S39  1  0.76868707  0.41191682  0.71371007  1
  S  S40  1  0.66025917  0.99727093  0.42620528  1
  S  S41  1  0.32344641  0.02354471  0.54889396  1
