# generated using pymatgen
data_Pr2Mn3(SbS3)4
_symmetry_space_group_name_H-M   'P 1'
_cell_length_a   20.02960800
_cell_length_b   3.90410600
_cell_length_c   14.95364829
_cell_angle_alpha   90.00000000
_cell_angle_beta   126.33350609
_cell_angle_gamma   90.00000000
_symmetry_Int_Tables_number   1
_chemical_formula_structural   Pr2Mn3(SbS3)4
_chemical_formula_sum   'Pr4 Mn6 Sb8 S24'
_cell_volume   942.00006694
_cell_formula_units_Z   2
loop_
 _symmetry_equiv_pos_site_id
 _symmetry_equiv_pos_as_xyz
  1  'x, y, z'
loop_
 _atom_site_type_symbol
 _atom_site_label
 _atom_site_symmetry_multiplicity
 _atom_site_fract_x
 _atom_site_fract_y
 _atom_site_fract_z
 _atom_site_occupancy
  Pr  Pr0  1  0.26366999  0.52363882  0.86427280  1
  Pr  Pr1  1  0.73036142  0.53232645  0.13505966  1
  Pr  Pr2  1  0.76831604  0.95282166  0.88584928  1
  Pr  Pr3  1  0.24352767  0.99819181  0.14672813  1
  Mn  Mn4  1  0.27371582  0.55250377  0.57317531  1
  Mn  Mn5  1  0.69441691  0.47428681  0.36912129  1
  Mn  Mn6  1  0.00355638  0.98330980  0.00412944  1
  Mn  Mn7  1  0.79451104  0.98244551  0.59640065  1
  Mn  Mn8  1  0.19457136  0.95200988  0.39877699  1
  Mn  Mn9  1  0.50081928  0.49491000  0.00705129  1
  Sb  Sb10  1  0.89831908  0.01108526  0.45254569  1
  Sb  Sb11  1  0.09985559  0.00184377  0.55165424  1
  Sb  Sb12  1  0.03467304  0.53998562  0.81220527  1
  Sb  Sb13  1  0.96082447  0.49148730  0.18769578  1
  Sb  Sb14  1  0.39569909  0.47979279  0.45544408  1
  Sb  Sb15  1  0.61619661  0.46562297  0.57067654  1
  Sb  Sb16  1  0.54149776  0.02556982  0.83905225  1
  Sb  Sb17  1  0.45976676  0.01660218  0.18748097  1
  S  S18  1  0.92540569  0.98843544  0.78663896  1
  S  S19  1  0.05868455  0.95601360  0.18716690  1
  S  S20  1  0.42123667  0.97109951  0.98953037  1
  S  S21  1  0.59046872  0.98201454  0.03293715  1
  S  S22  1  0.18104277  0.98008063  0.89491858  1
  S  S23  1  0.83818683  0.99993529  0.13127679  1
  S  S24  1  0.10262342  0.51556410  0.66746050  1
  S  S25  1  0.89508855  0.50202192  0.34130432  1
  S  S26  1  0.73877885  0.98121385  0.31459500  1
  S  S27  1  0.26275630  0.98495088  0.68984273  1
  S  S28  1  0.15678745  0.44267234  0.43481368  1
  S  S29  1  0.82373757  0.46941630  0.54531320  1
  S  S30  1  0.43776720  0.48009960  0.81734487  1
  S  S31  1  0.55881709  0.46103638  0.19929846  1
  S  S32  1  0.91718324  0.51051576  0.98979417  1
  S  S33  1  0.08063233  0.52019089  0.00461369  1
  S  S34  1  0.67876117  0.44221134  0.90683160  1
  S  S35  1  0.33539542  0.46373588  0.10389174  1
  S  S36  1  0.59742454  0.96450263  0.67694911  1
  S  S37  1  0.41910114  0.00452609  0.37057861  1
  S  S38  1  0.24648729  0.46930846  0.30069890  1
  S  S39  1  0.76848876  0.41250218  0.71392090  1
  S  S40  1  0.66005098  0.99746591  0.42593022  1
  S  S41  1  0.32351871  0.02287724  0.54910085  1
