# generated using pymatgen
data_Pr2Mn3(SbS3)4
_symmetry_space_group_name_H-M   'P 1'
_cell_length_a   20.02960800
_cell_length_b   3.90410600
_cell_length_c   14.95364829
_cell_angle_alpha   90.00000000
_cell_angle_beta   126.33350609
_cell_angle_gamma   90.00000000
_symmetry_Int_Tables_number   1
_chemical_formula_structural   Pr2Mn3(SbS3)4
_chemical_formula_sum   'Pr4 Mn6 Sb8 S24'
_cell_volume   942.00006694
_cell_formula_units_Z   2
loop_
 _symmetry_equiv_pos_site_id
 _symmetry_equiv_pos_as_xyz
  1  'x, y, z'
loop_
 _atom_site_type_symbol
 _atom_site_label
 _atom_site_symmetry_multiplicity
 _atom_site_fract_x
 _atom_site_fract_y
 _atom_site_fract_z
 _atom_site_occupancy
  Pr  Pr0  1  0.26351032  0.52349279  0.86414824  1
  Pr  Pr1  1  0.73038459  0.53299381  0.13499214  1
  Pr  Pr2  1  0.76840181  0.95241760  0.88587909  1
  Pr  Pr3  1  0.24361238  0.99847142  0.14682074  1
  Mn  Mn4  1  0.27390101  0.55209342  0.57317819  1
  Mn  Mn5  1  0.69453665  0.47353918  0.36927196  1
  Mn  Mn6  1  0.00369541  0.98254066  0.00437249  1
  Mn  Mn7  1  0.79450870  0.98170390  0.59644856  1
  Mn  Mn8  1  0.19467026  0.95247214  0.39889046  1
  Mn  Mn9  1  0.50064381  0.49483457  0.00708002  1
  Sb  Sb10  1  0.89816726  0.01115930  0.45230878  1
  Sb  Sb11  1  0.09985717  0.00249314  0.55150750  1
  Sb  Sb12  1  0.03469307  0.54114292  0.81222277  1
  Sb  Sb13  1  0.96093650  0.49208133  0.18778392  1
  Sb  Sb14  1  0.39575342  0.47922384  0.45555101  1
  Sb  Sb15  1  0.61613737  0.46518376  0.57063118  1
  Sb  Sb16  1  0.54132172  0.02486212  0.83882871  1
  Sb  Sb17  1  0.45996155  0.01661548  0.18775104  1
  S  S18  1  0.92530186  0.98837599  0.78658411  1
  S  S19  1  0.05861756  0.95601458  0.18691259  1
  S  S20  1  0.42112217  0.97006676  0.98946614  1
  S  S21  1  0.59012830  0.98118488  0.03266114  1
  S  S22  1  0.18077220  0.98000022  0.89491258  1
  S  S23  1  0.83820832  0.00030801  0.13119320  1
  S  S24  1  0.10266272  0.51527929  0.66747833  1
  S  S25  1  0.89499310  0.50260828  0.34133199  1
  S  S26  1  0.73858746  0.98154666  0.31451711  1
  S  S27  1  0.26284653  0.98414121  0.68974393  1
  S  S28  1  0.15672007  0.44167108  0.43466809  1
  S  S29  1  0.82373275  0.46884983  0.54492820  1
  S  S30  1  0.43820775  0.48072780  0.81734812  1
  S  S31  1  0.55905420  0.46198093  0.19946170  1
  S  S32  1  0.91732290  0.51096776  0.98985293  1
  S  S33  1  0.08083591  0.52160742  0.00452717  1
  S  S34  1  0.67891776  0.44213729  0.90709698  1
  S  S35  1  0.33525142  0.46260275  0.10425036  1
  S  S36  1  0.59741179  0.96345063  0.67658682  1
  S  S37  1  0.41936762  0.00370678  0.37092382  1
  S  S38  1  0.24631121  0.46824374  0.30079012  1
  S  S39  1  0.76810126  0.41264609  0.71378285  1
  S  S40  1  0.66003209  0.99716100  0.42586385  1
  S  S41  1  0.32338568  0.02211784  0.54911423  1
