# generated using pymatgen
data_Pr2Mn3(SbS3)4
_symmetry_space_group_name_H-M   'P 1'
_cell_length_a   20.02960800
_cell_length_b   3.90410600
_cell_length_c   14.95364829
_cell_angle_alpha   90.00000000
_cell_angle_beta   126.33350609
_cell_angle_gamma   90.00000000
_symmetry_Int_Tables_number   1
_chemical_formula_structural   Pr2Mn3(SbS3)4
_chemical_formula_sum   'Pr4 Mn6 Sb8 S24'
_cell_volume   942.00006694
_cell_formula_units_Z   2
loop_
 _symmetry_equiv_pos_site_id
 _symmetry_equiv_pos_as_xyz
  1  'x, y, z'
loop_
 _atom_site_type_symbol
 _atom_site_label
 _atom_site_symmetry_multiplicity
 _atom_site_fract_x
 _atom_site_fract_y
 _atom_site_fract_z
 _atom_site_occupancy
  Pr  Pr0  1  0.26329470  0.52372154  0.86398378  1
  Pr  Pr1  1  0.73042256  0.53351970  0.13492538  1
  Pr  Pr2  1  0.76844741  0.95182693  0.88582946  1
  Pr  Pr3  1  0.24366817  0.99871669  0.14691109  1
  Mn  Mn4  1  0.27405733  0.55122262  0.57326536  1
  Mn  Mn5  1  0.69470686  0.47294147  0.36951143  1
  Mn  Mn6  1  0.00375191  0.98181425  0.00448469  1
  Mn  Mn7  1  0.79447816  0.98153344  0.59641722  1
  Mn  Mn8  1  0.19478007  0.95278703  0.39901586  1
  Mn  Mn9  1  0.50046006  0.49490524  0.00710605  1
  Sb  Sb10  1  0.89809989  0.01109320  0.45220503  1
  Sb  Sb11  1  0.09994365  0.00296402  0.55150896  1
  Sb  Sb12  1  0.03464486  0.54204709  0.81221277  1
  Sb  Sb13  1  0.96109364  0.49281536  0.18795305  1
  Sb  Sb14  1  0.39578548  0.47897207  0.45573392  1
  Sb  Sb15  1  0.61612144  0.46477188  0.57049177  1
  Sb  Sb16  1  0.54115389  0.02420546  0.83860980  1
  Sb  Sb17  1  0.46022057  0.01680791  0.18805954  1
  S  S18  1  0.92524109  0.98849314  0.78673827  1
  S  S19  1  0.05859859  0.95615419  0.18660143  1
  S  S20  1  0.42092906  0.97024438  0.98930061  1
  S  S21  1  0.58979286  0.97999635  0.03252447  1
  S  S22  1  0.18057923  0.97940120  0.89508191  1
  S  S23  1  0.83824819  0.00069223  0.13121807  1
  S  S24  1  0.10263265  0.51516974  0.66735741  1
  S  S25  1  0.89507214  0.50301659  0.34136820  1
  S  S26  1  0.73847007  0.98142745  0.31446107  1
  S  S27  1  0.26272033  0.98327456  0.68936798  1
  S  S28  1  0.15665766  0.44048275  0.43468641  1
  S  S29  1  0.82364643  0.46829631  0.54455560  1
  S  S30  1  0.43848659  0.48116556  0.81727021  1
  S  S31  1  0.55924543  0.46242045  0.19950551  1
  S  S32  1  0.91734197  0.51193248  0.98980233  1
  S  S33  1  0.08078575  0.52239102  0.00444036  1
  S  S34  1  0.67884809  0.44207823  0.90697279  1
  S  S35  1  0.33523413  0.46175420  0.10474955  1
  S  S36  1  0.59741515  0.96203469  0.67630039  1
  S  S37  1  0.41945122  0.00305168  0.37120567  1
  S  S38  1  0.24603973  0.46765893  0.30059917  1
  S  S39  1  0.76781059  0.41261650  0.71364671  1
  S  S40  1  0.65995015  0.99665615  0.42573826  1
  S  S41  1  0.32326376  0.02090394  0.54924782  1
