# generated using pymatgen
data_Pr2Mn3(SbS3)4
_symmetry_space_group_name_H-M   'P 1'
_cell_length_a   20.02960800
_cell_length_b   3.90410600
_cell_length_c   14.95364829
_cell_angle_alpha   90.00000000
_cell_angle_beta   126.33350609
_cell_angle_gamma   90.00000000
_symmetry_Int_Tables_number   1
_chemical_formula_structural   Pr2Mn3(SbS3)4
_chemical_formula_sum   'Pr4 Mn6 Sb8 S24'
_cell_volume   942.00006694
_cell_formula_units_Z   2
loop_
 _symmetry_equiv_pos_site_id
 _symmetry_equiv_pos_as_xyz
  1  'x, y, z'
loop_
 _atom_site_type_symbol
 _atom_site_label
 _atom_site_symmetry_multiplicity
 _atom_site_fract_x
 _atom_site_fract_y
 _atom_site_fract_z
 _atom_site_occupancy
  Pr  Pr0  1  0.26310695  0.52421609  0.86382946  1
  Pr  Pr1  1  0.73046614  0.53394583  0.13480192  1
  Pr  Pr2  1  0.76847973  0.95130762  0.88585319  1
  Pr  Pr3  1  0.24372550  0.99886123  0.14699789  1
  Mn  Mn4  1  0.27423733  0.54994836  0.57335625  1
  Mn  Mn5  1  0.69483278  0.47255188  0.36984363  1
  Mn  Mn6  1  0.00383449  0.98072262  0.00468374  1
  Mn  Mn7  1  0.79447588  0.98148070  0.59640978  1
  Mn  Mn8  1  0.19494170  0.95276826  0.39911029  1
  Mn  Mn9  1  0.50034946  0.49518759  0.00728057  1
  Sb  Sb10  1  0.89815001  0.01098639  0.45221680  1
  Sb  Sb11  1  0.10000307  0.00341040  0.55151787  1
  Sb  Sb12  1  0.03460354  0.54296605  0.81220644  1
  Sb  Sb13  1  0.96119648  0.49367516  0.18806006  1
  Sb  Sb14  1  0.39579646  0.47870178  0.45592204  1
  Sb  Sb15  1  0.61601489  0.46414388  0.57028745  1
  Sb  Sb16  1  0.54097492  0.02334417  0.83838616  1
  Sb  Sb17  1  0.46043459  0.01711219  0.18827125  1
  S  S18  1  0.92520141  0.98795694  0.78689459  1
  S  S19  1  0.05870530  0.95657941  0.18649621  1
  S  S20  1  0.42063441  0.97023392  0.98916010  1
  S  S21  1  0.58932611  0.97865411  0.03225322  1
  S  S22  1  0.18029372  0.97823648  0.89517544  1
  S  S23  1  0.83832655  0.00175555  0.13125559  1
  S  S24  1  0.10251592  0.51513560  0.66713225  1
  S  S25  1  0.89518228  0.50263045  0.34125280  1
  S  S26  1  0.73837863  0.98131593  0.31430103  1
  S  S27  1  0.26263011  0.98244649  0.68910293  1
  S  S28  1  0.15661861  0.43963534  0.43455704  1
  S  S29  1  0.82353418  0.46767561  0.54422226  1
  S  S30  1  0.43897743  0.48151921  0.81728184  1
  S  S31  1  0.55934468  0.46316840  0.19954020  1
  S  S32  1  0.91737233  0.51368706  0.98987635  1
  S  S33  1  0.08077419  0.52282411  0.00421072  1
  S  S34  1  0.67869413  0.44225940  0.90693463  1
  S  S35  1  0.33502474  0.46032911  0.10502522  1
  S  S36  1  0.59741604  0.96064228  0.67599586  1
  S  S37  1  0.41945829  0.00158238  0.37139633  1
  S  S38  1  0.24585244  0.46697959  0.30050371  1
  S  S39  1  0.76756296  0.41246598  0.71347872  1
  S  S40  1  0.65995584  0.99670277  0.42569217  1
  S  S41  1  0.32322269  0.01984148  0.54957900  1
