# generated using pymatgen
data_Pr2Mn3(SbS3)4
_symmetry_space_group_name_H-M   'P 1'
_cell_length_a   20.02960800
_cell_length_b   3.90410600
_cell_length_c   14.95364829
_cell_angle_alpha   90.00000000
_cell_angle_beta   126.33350609
_cell_angle_gamma   90.00000000
_symmetry_Int_Tables_number   1
_chemical_formula_structural   Pr2Mn3(SbS3)4
_chemical_formula_sum   'Pr4 Mn6 Sb8 S24'
_cell_volume   942.00006694
_cell_formula_units_Z   2
loop_
 _symmetry_equiv_pos_site_id
 _symmetry_equiv_pos_as_xyz
  1  'x, y, z'
loop_
 _atom_site_type_symbol
 _atom_site_label
 _atom_site_symmetry_multiplicity
 _atom_site_fract_x
 _atom_site_fract_y
 _atom_site_fract_z
 _atom_site_occupancy
  Pr  Pr0  1  0.26293911  0.52511074  0.86364799  1
  Pr  Pr1  1  0.73050118  0.53430165  0.13465799  1
  Pr  Pr2  1  0.76858273  0.95068132  0.88598794  1
  Pr  Pr3  1  0.24378769  0.99884497  0.14710986  1
  Mn  Mn4  1  0.27443950  0.54867580  0.57354610  1
  Mn  Mn5  1  0.69488460  0.47205800  0.37021039  1
  Mn  Mn6  1  0.00381621  0.97957331  0.00497708  1
  Mn  Mn7  1  0.79451953  0.98136585  0.59637833  1
  Mn  Mn8  1  0.19518432  0.95313288  0.39923380  1
  Mn  Mn9  1  0.50016108  0.49547975  0.00741141  1
  Sb  Sb10  1  0.89824466  0.01069012  0.45227937  1
  Sb  Sb11  1  0.10007614  0.00392297  0.55147367  1
  Sb  Sb12  1  0.03464598  0.54385367  0.81231901  1
  Sb  Sb13  1  0.96133474  0.49420287  0.18817526  1
  Sb  Sb14  1  0.39580469  0.47838860  0.45617001  1
  Sb  Sb15  1  0.61591687  0.46361413  0.57009371  1
  Sb  Sb16  1  0.54079754  0.02269995  0.83812512  1
  Sb  Sb17  1  0.46064388  0.01715044  0.18850481  1
  S  S18  1  0.92518186  0.98705396  0.78691753  1
  S  S19  1  0.05868886  0.95780327  0.18645779  1
  S  S20  1  0.42040179  0.97032411  0.98903565  1
  S  S21  1  0.58888430  0.97822028  0.03196088  1
  S  S22  1  0.17999494  0.97721326  0.89540062  1
  S  S23  1  0.83837821  0.00263022  0.13137010  1
  S  S24  1  0.10241125  0.51495859  0.66684179  1
  S  S25  1  0.89533760  0.50165054  0.34098223  1
  S  S26  1  0.73839935  0.98113185  0.31404301  1
  S  S27  1  0.26257519  0.98161737  0.68869052  1
  S  S28  1  0.15651505  0.43864511  0.43450384  1
  S  S29  1  0.82337799  0.46689683  0.54388055  1
  S  S30  1  0.43951011  0.48226895  0.81745514  1
  S  S31  1  0.55930009  0.46311216  0.19916546  1
  S  S32  1  0.91758847  0.51514089  0.99010610  1
  S  S33  1  0.08082300  0.52301201  0.00417837  1
  S  S34  1  0.67847710  0.44333723  0.90699780  1
  S  S35  1  0.33493859  0.45852941  0.10522632  1
  S  S36  1  0.59756965  0.95956925  0.67592455  1
  S  S37  1  0.41951495  0.00091033  0.37155471  1
  S  S38  1  0.24576128  0.46640842  0.30029600  1
  S  S39  1  0.76749631  0.41324868  0.71345185  1
  S  S40  1  0.65990383  0.99631702  0.42573981  1
  S  S41  1  0.32326530  0.01914060  0.54970952  1
