# generated using pymatgen
data_Pr2Mn3(SbS3)4
_symmetry_space_group_name_H-M   'P 1'
_cell_length_a   20.02960800
_cell_length_b   3.90410600
_cell_length_c   14.95364829
_cell_angle_alpha   90.00000000
_cell_angle_beta   126.33350609
_cell_angle_gamma   90.00000000
_symmetry_Int_Tables_number   1
_chemical_formula_structural   Pr2Mn3(SbS3)4
_chemical_formula_sum   'Pr4 Mn6 Sb8 S24'
_cell_volume   942.00006694
_cell_formula_units_Z   2
loop_
 _symmetry_equiv_pos_site_id
 _symmetry_equiv_pos_as_xyz
  1  'x, y, z'
loop_
 _atom_site_type_symbol
 _atom_site_label
 _atom_site_symmetry_multiplicity
 _atom_site_fract_x
 _atom_site_fract_y
 _atom_site_fract_z
 _atom_site_occupancy
  Pr  Pr0  1  0.26280468  0.52595930  0.86355099  1
  Pr  Pr1  1  0.73044602  0.53443956  0.13448227  1
  Pr  Pr2  1  0.76867652  0.94978938  0.88609038  1
  Pr  Pr3  1  0.24383800  0.99903454  0.14724140  1
  Mn  Mn4  1  0.27463274  0.54761276  0.57389161  1
  Mn  Mn5  1  0.69490709  0.47118642  0.37044126  1
  Mn  Mn6  1  0.00378247  0.97866737  0.00531763  1
  Mn  Mn7  1  0.79453551  0.98153422  0.59636013  1
  Mn  Mn8  1  0.19533581  0.95351316  0.39934114  1
  Mn  Mn9  1  0.49991945  0.49565461  0.00738453  1
  Sb  Sb10  1  0.89828244  0.01040736  0.45231592  1
  Sb  Sb11  1  0.10009496  0.00440519  0.55130435  1
  Sb  Sb12  1  0.03465354  0.54467164  0.81242010  1
  Sb  Sb13  1  0.96145583  0.49438473  0.18833886  1
  Sb  Sb14  1  0.39583618  0.47827624  0.45651264  1
  Sb  Sb15  1  0.61585839  0.46278645  0.56998629  1
  Sb  Sb16  1  0.54062156  0.02215829  0.83778384  1
  Sb  Sb17  1  0.46077322  0.01682423  0.18856214  1
  S  S18  1  0.92523627  0.98709135  0.78686864  1
  S  S19  1  0.05860654  0.95923295  0.18637991  1
  S  S20  1  0.42008696  0.97036359  0.98886963  1
  S  S21  1  0.58828200  0.97822132  0.03154163  1
  S  S22  1  0.17958479  0.97607031  0.89547257  1
  S  S23  1  0.83861970  0.00417507  0.13173182  1
  S  S24  1  0.10213610  0.51439643  0.66640065  1
  S  S25  1  0.89546246  0.50111780  0.34081657  1
  S  S26  1  0.73851185  0.98094616  0.31396613  1
  S  S27  1  0.26261937  0.98109288  0.68829372  1
  S  S28  1  0.15646475  0.43817121  0.43463122  1
  S  S29  1  0.82313900  0.46590536  0.54321758  1
  S  S30  1  0.44002031  0.48381346  0.81758703  1
  S  S31  1  0.55929652  0.46333728  0.19881063  1
  S  S32  1  0.91769494  0.51643864  0.99028870  1
  S  S33  1  0.08072900  0.52329710  0.00405086  1
  S  S34  1  0.67824469  0.44434679  0.90709897  1
  S  S35  1  0.33490400  0.45660265  0.10536406  1
  S  S36  1  0.59776791  0.95857093  0.67577133  1
  S  S37  1  0.41970135  0.00068696  0.37177575  1
  S  S38  1  0.24572859  0.46552957  0.30020542  1
  S  S39  1  0.76741307  0.41366883  0.71334014  1
  S  S40  1  0.65984483  0.99541336  0.42593701  1
  S  S41  1  0.32321858  0.01908348  0.54988066  1
