# generated using pymatgen
data_Pr2Mn3(SbS3)4
_symmetry_space_group_name_H-M   'P 1'
_cell_length_a   20.02960800
_cell_length_b   3.90410600
_cell_length_c   14.95364829
_cell_angle_alpha   90.00000000
_cell_angle_beta   126.33350609
_cell_angle_gamma   90.00000000
_symmetry_Int_Tables_number   1
_chemical_formula_structural   Pr2Mn3(SbS3)4
_chemical_formula_sum   'Pr4 Mn6 Sb8 S24'
_cell_volume   942.00006694
_cell_formula_units_Z   2
loop_
 _symmetry_equiv_pos_site_id
 _symmetry_equiv_pos_as_xyz
  1  'x, y, z'
loop_
 _atom_site_type_symbol
 _atom_site_label
 _atom_site_symmetry_multiplicity
 _atom_site_fract_x
 _atom_site_fract_y
 _atom_site_fract_z
 _atom_site_occupancy
  Pr  Pr0  1  0.26271259  0.52693119  0.86353177  1
  Pr  Pr1  1  0.73039425  0.53457171  0.13424896  1
  Pr  Pr2  1  0.76877475  0.94907364  0.88615840  1
  Pr  Pr3  1  0.24388615  0.99936005  0.14736758  1
  Mn  Mn4  1  0.27485669  0.54704578  0.57424445  1
  Mn  Mn5  1  0.69504596  0.47101768  0.37074431  1
  Mn  Mn6  1  0.00378442  0.97760835  0.00556536  1
  Mn  Mn7  1  0.79449489  0.98217306  0.59631161  1
  Mn  Mn8  1  0.19566861  0.95356906  0.39966473  1
  Mn  Mn9  1  0.49964853  0.49568718  0.00728832  1
  Sb  Sb10  1  0.89836391  0.01020171  0.45227490  1
  Sb  Sb11  1  0.10007921  0.00496817  0.55119613  1
  Sb  Sb12  1  0.03468573  0.54513826  0.81253386  1
  Sb  Sb13  1  0.96158880  0.49455721  0.18850449  1
  Sb  Sb14  1  0.39587712  0.47793775  0.45675598  1
  Sb  Sb15  1  0.61575796  0.46203408  0.56984976  1
  Sb  Sb16  1  0.54043285  0.02186758  0.83748439  1
  Sb  Sb17  1  0.46090984  0.01689460  0.18857967  1
  S  S18  1  0.92534887  0.98755350  0.78680207  1
  S  S19  1  0.05841330  0.96036798  0.18618883  1
  S  S20  1  0.41980754  0.97025761  0.98874077  1
  S  S21  1  0.58765206  0.97823536  0.03113233  1
  S  S22  1  0.17891306  0.97510897  0.89534308  1
  S  S23  1  0.83878612  0.00525276  0.13206636  1
  S  S24  1  0.10174988  0.51372152  0.66601972  1
  S  S25  1  0.89563195  0.50038443  0.34072342  1
  S  S26  1  0.73853991  0.98042857  0.31378087  1
  S  S27  1  0.26267377  0.98035286  0.68785153  1
  S  S28  1  0.15650915  0.43753527  0.43478293  1
  S  S29  1  0.82296532  0.46514884  0.54262753  1
  S  S30  1  0.44033680  0.48553928  0.81752302  1
  S  S31  1  0.55921917  0.46288483  0.19844090  1
  S  S32  1  0.91780522  0.51746639  0.99036910  1
  S  S33  1  0.08078309  0.52339422  0.00403691  1
  S  S34  1  0.67805914  0.44480601  0.90731311  1
  S  S35  1  0.33497489  0.45522568  0.10557146  1
  S  S36  1  0.59805925  0.95794021  0.67578271  1
  S  S37  1  0.41971993  0.00063045  0.37182773  1
  S  S38  1  0.24564960  0.46499174  0.30003378  1
  S  S39  1  0.76726121  0.41412441  0.71316705  1
  S  S40  1  0.65981426  0.99440394  0.42625572  1
  S  S41  1  0.32312448  0.01882865  0.54993964  1
