# generated using pymatgen
data_Pr2Mn3(SbS3)4
_symmetry_space_group_name_H-M   'P 1'
_cell_length_a   20.02960800
_cell_length_b   3.90410600
_cell_length_c   14.95364829
_cell_angle_alpha   90.00000000
_cell_angle_beta   126.33350609
_cell_angle_gamma   90.00000000
_symmetry_Int_Tables_number   1
_chemical_formula_structural   Pr2Mn3(SbS3)4
_chemical_formula_sum   'Pr4 Mn6 Sb8 S24'
_cell_volume   942.00006694
_cell_formula_units_Z   2
loop_
 _symmetry_equiv_pos_site_id
 _symmetry_equiv_pos_as_xyz
  1  'x, y, z'
loop_
 _atom_site_type_symbol
 _atom_site_label
 _atom_site_symmetry_multiplicity
 _atom_site_fract_x
 _atom_site_fract_y
 _atom_site_fract_z
 _atom_site_occupancy
  Pr  Pr0  1  0.26266103  0.52782400  0.86363374  1
  Pr  Pr1  1  0.73029699  0.53495595  0.13395841  1
  Pr  Pr2  1  0.76888381  0.94876089  0.88631748  1
  Pr  Pr3  1  0.24393590  0.99996020  0.14757969  1
  Mn  Mn4  1  0.27509053  0.54629945  0.57470138  1
  Mn  Mn5  1  0.69507894  0.47072833  0.37104388  1
  Mn  Mn6  1  0.00382310  0.97622486  0.00581017  1
  Mn  Mn7  1  0.79442287  0.98283064  0.59626640  1
  Mn  Mn8  1  0.19587658  0.95380194  0.40000238  1
  Mn  Mn9  1  0.49934182  0.49606300  0.00708836  1
  Sb  Sb10  1  0.89838739  0.00996354  0.45208106  1
  Sb  Sb11  1  0.10005737  0.00569374  0.55128455  1
  Sb  Sb12  1  0.03473869  0.54538769  0.81261541  1
  Sb  Sb13  1  0.96165736  0.49508929  0.18866951  1
  Sb  Sb14  1  0.39592933  0.47757692  0.45697982  1
  Sb  Sb15  1  0.61559346  0.46150501  0.56976294  1
  Sb  Sb16  1  0.54026959  0.02172625  0.83716321  1
  Sb  Sb17  1  0.46103681  0.01733490  0.18846911  1
  S  S18  1  0.92545145  0.98853632  0.78661155  1
  S  S19  1  0.05814524  0.96099291  0.18582117  1
  S  S20  1  0.41946827  0.96938532  0.98850842  1
  S  S21  1  0.58710623  0.97766742  0.03072615  1
  S  S22  1  0.17838259  0.97444645  0.89543303  1
  S  S23  1  0.83887201  0.00612649  0.13223727  1
  S  S24  1  0.10135803  0.51314639  0.66559556  1
  S  S25  1  0.89588758  0.49913231  0.34070762  1
  S  S26  1  0.73858352  0.98013203  0.31355217  1
  S  S27  1  0.26286495  0.97921270  0.68749082  1
  S  S28  1  0.15662302  0.43689062  0.43505456  1
  S  S29  1  0.82270732  0.46447179  0.54182979  1
  S  S30  1  0.44065200  0.48735147  0.81731266  1
  S  S31  1  0.55911125  0.46312202  0.19794014  1
  S  S32  1  0.91786594  0.51846769  0.99034455  1
  S  S33  1  0.08087597  0.52324075  0.00371902  1
  S  S34  1  0.67780861  0.44527506  0.90746191  1
  S  S35  1  0.33493930  0.45370715  0.10578483  1
  S  S36  1  0.59844854  0.95744302  0.67599466  1
  S  S37  1  0.41957173  0.00054544  0.37184907  1
  S  S38  1  0.24570357  0.46443662  0.30002747  1
  S  S39  1  0.76715896  0.41445883  0.71296655  1
  S  S40  1  0.65977003  0.99383833  0.42644423  1
  S  S41  1  0.32287205  0.01883004  0.54993168  1
