# generated using pymatgen
data_Pr2Mn3(SbS3)4
_symmetry_space_group_name_H-M   'P 1'
_cell_length_a   20.02960800
_cell_length_b   3.90410600
_cell_length_c   14.95364829
_cell_angle_alpha   90.00000000
_cell_angle_beta   126.33350609
_cell_angle_gamma   90.00000000
_symmetry_Int_Tables_number   1
_chemical_formula_structural   Pr2Mn3(SbS3)4
_chemical_formula_sum   'Pr4 Mn6 Sb8 S24'
_cell_volume   942.00006694
_cell_formula_units_Z   2
loop_
 _symmetry_equiv_pos_site_id
 _symmetry_equiv_pos_as_xyz
  1  'x, y, z'
loop_
 _atom_site_type_symbol
 _atom_site_label
 _atom_site_symmetry_multiplicity
 _atom_site_fract_x
 _atom_site_fract_y
 _atom_site_fract_z
 _atom_site_occupancy
  Pr  Pr0  1  0.26764741  0.50145232  0.86535405  1
  Pr  Pr1  1  0.73456019  0.50963637  0.13433296  1
  Pr  Pr2  1  0.76355869  0.01857996  0.86118100  1
  Pr  Pr3  1  0.23444119  0.99669999  0.13297267  1
  Mn  Mn4  1  0.29113123  0.47372217  0.59235334  1
  Mn  Mn5  1  0.68519941  0.46909255  0.36515592  1
  Mn  Mn6  1  0.00765686  0.99542473  0.01683136  1
  Mn  Mn7  1  0.80284730  0.01346109  0.61972734  1
  Mn  Mn8  1  0.19811080  0.97467520  0.37287560  1
  Mn  Mn9  1  0.49014692  0.46612704  0.98971394  1
  Sb  Sb10  1  0.89128951  0.98376857  0.45264449  1
  Sb  Sb11  1  0.11062581  0.97823059  0.54414946  1
  Sb  Sb12  1  0.03624864  0.51992936  0.81931722  1
  Sb  Sb13  1  0.96446038  0.50080635  0.18820575  1
  Sb  Sb14  1  0.39446470  0.49805952  0.45047609  1
  Sb  Sb15  1  0.60619223  0.46788131  0.54884915  1
  Sb  Sb16  1  0.53377597  0.99072997  0.80791853  1
  Sb  Sb17  1  0.46583327  0.02387228  0.19203828  1
  S  S18  1  0.93865030  0.00867845  0.81045372  1
  S  S19  1  0.06418329  0.97817740  0.19877697  1
  S  S20  1  0.42134050  0.96063134  0.99017489  1
  S  S21  1  0.58347654  0.03339256  0.01494823  1
  S  S22  1  0.17315624  0.05953108  0.90384244  1
  S  S23  1  0.82965742  0.05084234  0.10415930  1
  S  S24  1  0.09429724  0.49338142  0.64970911  1
  S  S25  1  0.91551666  0.48841629  0.35913267  1
  S  S26  1  0.73510265  0.96450878  0.29732969  1
  S  S27  1  0.26097749  0.00629445  0.70785454  1
  S  S28  1  0.16258271  0.51721954  0.43071752  1
  S  S29  1  0.82244218  0.48585008  0.54935167  1
  S  S30  1  0.42950343  0.48293069  0.79473012  1
  S  S31  1  0.55212359  0.52072707  0.17923769  1
  S  S32  1  0.91448662  0.48605697  0.98722415  1
  S  S33  1  0.08944066  0.49885389  0.03178956  1
  S  S34  1  0.66329750  0.54224068  0.88844992  1
  S  S35  1  0.32857050  0.51024598  0.09543138  1
  S  S36  1  0.59922919  0.00426655  0.66048196  1
  S  S37  1  0.40190652  0.98123518  0.34202066  1
  S  S38  1  0.24082478  0.47209078  0.31284237  1
  S  S39  1  0.76159764  0.51704085  0.69044087  1
  S  S40  1  0.66463198  0.01310040  0.44785740  1
  S  S41  1  0.33109003  0.97873450  0.55663474  1
