# generated using pymatgen
data_Pr2Mn3(SbS3)4
_symmetry_space_group_name_H-M   'P 1'
_cell_length_a   20.02960800
_cell_length_b   3.90410600
_cell_length_c   14.95364829
_cell_angle_alpha   90.00000000
_cell_angle_beta   126.33350609
_cell_angle_gamma   90.00000000
_symmetry_Int_Tables_number   1
_chemical_formula_structural   Pr2Mn3(SbS3)4
_chemical_formula_sum   'Pr4 Mn6 Sb8 S24'
_cell_volume   942.00006694
_cell_formula_units_Z   2
loop_
 _symmetry_equiv_pos_site_id
 _symmetry_equiv_pos_as_xyz
  1  'x, y, z'
loop_
 _atom_site_type_symbol
 _atom_site_label
 _atom_site_symmetry_multiplicity
 _atom_site_fract_x
 _atom_site_fract_y
 _atom_site_fract_z
 _atom_site_occupancy
  Pr  Pr0  1  0.26259990  0.52866478  0.86377547  1
  Pr  Pr1  1  0.73015174  0.53548756  0.13369884  1
  Pr  Pr2  1  0.76898866  0.94864413  0.88645527  1
  Pr  Pr3  1  0.24401700  0.00054969  0.14773616  1
  Mn  Mn4  1  0.27517132  0.54573638  0.57512896  1
  Mn  Mn5  1  0.69507132  0.47027296  0.37136894  1
  Mn  Mn6  1  0.00386968  0.97492830  0.00598907  1
  Mn  Mn7  1  0.79432481  0.98305560  0.59621954  1
  Mn  Mn8  1  0.19612321  0.95391035  0.40040298  1
  Mn  Mn9  1  0.49911793  0.49592800  0.00707903  1
  Sb  Sb10  1  0.89832805  0.00970768  0.45178479  1
  Sb  Sb11  1  0.10001813  0.00634172  0.55137128  1
  Sb  Sb12  1  0.03475572  0.54509810  0.81273100  1
  Sb  Sb13  1  0.96175282  0.49544309  0.18883495  1
  Sb  Sb14  1  0.39594775  0.47718676  0.45716272  1
  Sb  Sb15  1  0.61552172  0.46106032  0.56976995  1
  Sb  Sb16  1  0.54011637  0.02155120  0.83687393  1
  Sb  Sb17  1  0.46116466  0.01738365  0.18827847  1
  S  S18  1  0.92543272  0.98918809  0.78624759  1
  S  S19  1  0.05785991  0.96175627  0.18573514  1
  S  S20  1  0.41913694  0.96864054  0.98831190  1
  S  S21  1  0.58668718  0.97681714  0.03038411  1
  S  S22  1  0.17776720  0.97331592  0.89535453  1
  S  S23  1  0.83893174  0.00734204  0.13248358  1
  S  S24  1  0.10106115  0.51312301  0.66520879  1
  S  S25  1  0.89620918  0.49761542  0.34071736  1
  S  S26  1  0.73843300  0.98006026  0.31331519  1
  S  S27  1  0.26299396  0.97797547  0.68705659  1
  S  S28  1  0.15675196  0.43685870  0.43532907  1
  S  S29  1  0.82259142  0.46408863  0.54111342  1
  S  S30  1  0.44104099  0.48899767  0.81702980  1
  S  S31  1  0.55898972  0.46292067  0.19758468  1
  S  S32  1  0.91791709  0.51877405  0.99027237  1
  S  S33  1  0.08086255  0.52302274  0.00342994  1
  S  S34  1  0.67751978  0.44580033  0.90763517  1
  S  S35  1  0.33495652  0.45289255  0.10613336  1
  S  S36  1  0.59890590  0.95728822  0.67631811  1
  S  S37  1  0.41949781  0.00104811  0.37205451  1
  S  S38  1  0.24565334  0.46380271  0.29983736  1
  S  S39  1  0.76694413  0.41499080  0.71272090  1
  S  S40  1  0.65959543  0.99348182  0.42645025  1
  S  S41  1  0.32280145  0.01885006  0.55002382  1
