# generated using pymatgen
data_Pr2Mn3(SbS3)4
_symmetry_space_group_name_H-M   'P 1'
_cell_length_a   20.02960800
_cell_length_b   3.90410600
_cell_length_c   14.95364829
_cell_angle_alpha   90.00000000
_cell_angle_beta   126.33350609
_cell_angle_gamma   90.00000000
_symmetry_Int_Tables_number   1
_chemical_formula_structural   Pr2Mn3(SbS3)4
_chemical_formula_sum   'Pr4 Mn6 Sb8 S24'
_cell_volume   942.00006694
_cell_formula_units_Z   2
loop_
 _symmetry_equiv_pos_site_id
 _symmetry_equiv_pos_as_xyz
  1  'x, y, z'
loop_
 _atom_site_type_symbol
 _atom_site_label
 _atom_site_symmetry_multiplicity
 _atom_site_fract_x
 _atom_site_fract_y
 _atom_site_fract_z
 _atom_site_occupancy
  Pr  Pr0  1  0.26248895  0.52953552  0.86384412  1
  Pr  Pr1  1  0.72993866  0.53610490  0.13343885  1
  Pr  Pr2  1  0.76910656  0.94878213  0.88653477  1
  Pr  Pr3  1  0.24404275  0.00137375  0.14777199  1
  Mn  Mn4  1  0.27530577  0.54545948  0.57552823  1
  Mn  Mn5  1  0.69511361  0.46994897  0.37175073  1
  Mn  Mn6  1  0.00395800  0.97384100  0.00606297  1
  Mn  Mn7  1  0.79430061  0.98299422  0.59623637  1
  Mn  Mn8  1  0.19634593  0.95396830  0.40086287  1
  Mn  Mn9  1  0.49892548  0.49594633  0.00707728  1
  Sb  Sb10  1  0.89827963  0.00903750  0.45155981  1
  Sb  Sb11  1  0.09993739  0.00694177  0.55153235  1
  Sb  Sb12  1  0.03476431  0.54484751  0.81280703  1
  Sb  Sb13  1  0.96189802  0.49577387  0.18900612  1
  Sb  Sb14  1  0.39599546  0.47693647  0.45732128  1
  Sb  Sb15  1  0.61550824  0.46086550  0.56983659  1
  Sb  Sb16  1  0.53995906  0.02142708  0.83670134  1
  Sb  Sb17  1  0.46133580  0.01744803  0.18817411  1
  S  S18  1  0.92553423  0.98965539  0.78585985  1
  S  S19  1  0.05770066  0.96217169  0.18577430  1
  S  S20  1  0.41878611  0.96803412  0.98809049  1
  S  S21  1  0.58634437  0.97584484  0.03008020  1
  S  S22  1  0.17720029  0.97247561  0.89524054  1
  S  S23  1  0.83880598  0.00824951  0.13257003  1
  S  S24  1  0.10087771  0.51307337  0.66491115  1
  S  S25  1  0.89643749  0.49629858  0.34060522  1
  S  S26  1  0.73824538  0.98035411  0.31309243  1
  S  S27  1  0.26324372  0.97676411  0.68686996  1
  S  S28  1  0.15669741  0.43674378  0.43527734  1
  S  S29  1  0.82239131  0.46315428  0.54042670  1
  S  S30  1  0.44131356  0.49024497  0.81687667  1
  S  S31  1  0.55885828  0.46245277  0.19707561  1
  S  S32  1  0.91796163  0.51892594  0.99013164  1
  S  S33  1  0.08083708  0.52260632  0.00326543  1
  S  S34  1  0.67728137  0.44685665  0.90789968  1
  S  S35  1  0.33490765  0.45162189  0.10654298  1
  S  S36  1  0.59933529  0.95698219  0.67662266  1
  S  S37  1  0.41938651  0.00188663  0.37206455  1
  S  S38  1  0.24562105  0.46298509  0.29991637  1
  S  S39  1  0.76661150  0.41551572  0.71221088  1
  S  S40  1  0.65947248  0.99311230  0.42669129  1
  S  S41  1  0.32274542  0.01910925  0.55013084  1
