# generated using pymatgen
data_Pr2Mn3(SbS3)4
_symmetry_space_group_name_H-M   'P 1'
_cell_length_a   20.02960800
_cell_length_b   3.90410600
_cell_length_c   14.95364829
_cell_angle_alpha   90.00000000
_cell_angle_beta   126.33350609
_cell_angle_gamma   90.00000000
_symmetry_Int_Tables_number   1
_chemical_formula_structural   Pr2Mn3(SbS3)4
_chemical_formula_sum   'Pr4 Mn6 Sb8 S24'
_cell_volume   942.00006694
_cell_formula_units_Z   2
loop_
 _symmetry_equiv_pos_site_id
 _symmetry_equiv_pos_as_xyz
  1  'x, y, z'
loop_
 _atom_site_type_symbol
 _atom_site_label
 _atom_site_symmetry_multiplicity
 _atom_site_fract_x
 _atom_site_fract_y
 _atom_site_fract_z
 _atom_site_occupancy
  Pr  Pr0  1  0.26233180  0.53073884  0.86386789  1
  Pr  Pr1  1  0.72967238  0.53668466  0.13321582  1
  Pr  Pr2  1  0.76919261  0.94908350  0.88659007  1
  Pr  Pr3  1  0.24404024  0.00200024  0.14776222  1
  Mn  Mn4  1  0.27524460  0.54534964  0.57583321  1
  Mn  Mn5  1  0.69520991  0.46968370  0.37210987  1
  Mn  Mn6  1  0.00395800  0.97275834  0.00618868  1
  Mn  Mn7  1  0.79423327  0.98292816  0.59620140  1
  Mn  Mn8  1  0.19642271  0.95391871  0.40112542  1
  Mn  Mn9  1  0.49879132  0.49583869  0.00721741  1
  Sb  Sb10  1  0.89817435  0.00795420  0.45132241  1
  Sb  Sb11  1  0.09996186  0.00762533  0.55177627  1
  Sb  Sb12  1  0.03482717  0.54451261  0.81294941  1
  Sb  Sb13  1  0.96208157  0.49597114  0.18914869  1
  Sb  Sb14  1  0.39600844  0.47661483  0.45740352  1
  Sb  Sb15  1  0.61551174  0.46089903  0.56995128  1
  Sb  Sb16  1  0.53977125  0.02134901  0.83646535  1
  Sb  Sb17  1  0.46142018  0.01740053  0.18805029  1
  S  S18  1  0.92555759  0.98970280  0.78554085  1
  S  S19  1  0.05740867  0.96308772  0.18570930  1
  S  S20  1  0.41842117  0.96786965  0.98802776  1
  S  S21  1  0.58612316  0.97585672  0.02981693  1
  S  S22  1  0.17663449  0.97172021  0.89508632  1
  S  S23  1  0.83865717  0.00970759  0.13260577  1
  S  S24  1  0.10063228  0.51254885  0.66438529  1
  S  S25  1  0.89656998  0.49520062  0.34034242  1
  S  S26  1  0.73820743  0.98057997  0.31295056  1
  S  S27  1  0.26334660  0.97539509  0.68660652  1
  S  S28  1  0.15676183  0.43668887  0.43535059  1
  S  S29  1  0.82225956  0.46234777  0.53994538  1
  S  S30  1  0.44161978  0.49171632  0.81677451  1
  S  S31  1  0.55878737  0.46217646  0.19683597  1
  S  S32  1  0.91810955  0.51880082  0.99026867  1
  S  S33  1  0.08092846  0.52227354  0.00316454  1
  S  S34  1  0.67694021  0.44785603  0.90805644  1
  S  S35  1  0.33497668  0.44986757  0.10707660  1
  S  S36  1  0.59966395  0.95586403  0.67669458  1
  S  S37  1  0.41928656  0.00232733  0.37220670  1
  S  S38  1  0.24572765  0.46260329  0.30004210  1
  S  S39  1  0.76627657  0.41580568  0.71142092  1
  S  S40  1  0.65948867  0.99192935  0.42714680  1
  S  S41  1  0.32257830  0.01971509  0.54989146  1
