# generated using pymatgen
data_Pr2Mn3(SbS3)4
_symmetry_space_group_name_H-M   'P 1'
_cell_length_a   20.02960800
_cell_length_b   3.90410600
_cell_length_c   14.95364829
_cell_angle_alpha   90.00000000
_cell_angle_beta   126.33350609
_cell_angle_gamma   90.00000000
_symmetry_Int_Tables_number   1
_chemical_formula_structural   Pr2Mn3(SbS3)4
_chemical_formula_sum   'Pr4 Mn6 Sb8 S24'
_cell_volume   942.00006694
_cell_formula_units_Z   2
loop_
 _symmetry_equiv_pos_site_id
 _symmetry_equiv_pos_as_xyz
  1  'x, y, z'
loop_
 _atom_site_type_symbol
 _atom_site_label
 _atom_site_symmetry_multiplicity
 _atom_site_fract_x
 _atom_site_fract_y
 _atom_site_fract_z
 _atom_site_occupancy
  Pr  Pr0  1  0.26224323  0.53166379  0.86384787  1
  Pr  Pr1  1  0.72938206  0.53717595  0.13293481  1
  Pr  Pr2  1  0.76929140  0.94943747  0.88669350  1
  Pr  Pr3  1  0.24405255  0.00275631  0.14769273  1
  Mn  Mn4  1  0.27520054  0.54502681  0.57616171  1
  Mn  Mn5  1  0.69529124  0.46989697  0.37238766  1
  Mn  Mn6  1  0.00397480  0.97189874  0.00630936  1
  Mn  Mn7  1  0.79413184  0.98259712  0.59604606  1
  Mn  Mn8  1  0.19637432  0.95388409  0.40126024  1
  Mn  Mn9  1  0.49858066  0.49494183  0.00742480  1
  Sb  Sb10  1  0.89813029  0.00713763  0.45119145  1
  Sb  Sb11  1  0.09995711  0.00851132  0.55199470  1
  Sb  Sb12  1  0.03483962  0.54414779  0.81297493  1
  Sb  Sb13  1  0.96221108  0.49599988  0.18924405  1
  Sb  Sb14  1  0.39596821  0.47624531  0.45746482  1
  Sb  Sb15  1  0.61549579  0.46078382  0.57001852  1
  Sb  Sb16  1  0.53960369  0.02120462  0.83624030  1
  Sb  Sb17  1  0.46143426  0.01758520  0.18783523  1
  S  S18  1  0.92545818  0.99076944  0.78500624  1
  S  S19  1  0.05709784  0.96372900  0.18557300  1
  S  S20  1  0.41805895  0.96771613  0.98810826  1
  S  S21  1  0.58583639  0.97629750  0.02947766  1
  S  S22  1  0.17621908  0.97112560  0.89521462  1
  S  S23  1  0.83842907  0.01132706  0.13248204  1
  S  S24  1  0.10048158  0.51218511  0.66395248  1
  S  S25  1  0.89660055  0.49399990  0.34009112  1
  S  S26  1  0.73824000  0.98065269  0.31277054  1
  S  S27  1  0.26336370  0.97425375  0.68647082  1
  S  S28  1  0.15681828  0.43636499  0.43559287  1
  S  S29  1  0.82200365  0.46170649  0.53931025  1
  S  S30  1  0.44183622  0.49321962  0.81652403  1
  S  S31  1  0.55867716  0.46177685  0.19646696  1
  S  S32  1  0.91825608  0.51848287  0.99054402  1
  S  S33  1  0.08084463  0.52156567  0.00305579  1
  S  S34  1  0.67653820  0.44850223  0.90802561  1
  S  S35  1  0.33485918  0.44763355  0.10727663  1
  S  S36  1  0.59992570  0.95456981  0.67673526  1
  S  S37  1  0.41924956  0.00279782  0.37252546  1
  S  S38  1  0.24594531  0.46277896  0.30026151  1
  S  S39  1  0.76600981  0.41609124  0.71074430  1
  S  S40  1  0.65953246  0.99094631  0.42745092  1
  S  S41  1  0.32239029  0.02061683  0.54973534  1
