# generated using pymatgen
data_Pr2Mn3(SbS3)4
_symmetry_space_group_name_H-M   'P 1'
_cell_length_a   20.02960800
_cell_length_b   3.90410600
_cell_length_c   14.95364829
_cell_angle_alpha   90.00000000
_cell_angle_beta   126.33350609
_cell_angle_gamma   90.00000000
_symmetry_Int_Tables_number   1
_chemical_formula_structural   Pr2Mn3(SbS3)4
_chemical_formula_sum   'Pr4 Mn6 Sb8 S24'
_cell_volume   942.00006694
_cell_formula_units_Z   2
loop_
 _symmetry_equiv_pos_site_id
 _symmetry_equiv_pos_as_xyz
  1  'x, y, z'
loop_
 _atom_site_type_symbol
 _atom_site_label
 _atom_site_symmetry_multiplicity
 _atom_site_fract_x
 _atom_site_fract_y
 _atom_site_fract_z
 _atom_site_occupancy
  Pr  Pr0  1  0.26218520  0.53251717  0.86387933  1
  Pr  Pr1  1  0.72913654  0.53760200  0.13267176  1
  Pr  Pr2  1  0.76942420  0.94981313  0.88685370  1
  Pr  Pr3  1  0.24410156  0.00346026  0.14759683  1
  Mn  Mn4  1  0.27520835  0.54511263  0.57656862  1
  Mn  Mn5  1  0.69547232  0.46997513  0.37284561  1
  Mn  Mn6  1  0.00407217  0.97087228  0.00645508  1
  Mn  Mn7  1  0.79405508  0.98252767  0.59584983  1
  Mn  Mn8  1  0.19626365  0.95409705  0.40129553  1
  Mn  Mn9  1  0.49828360  0.49417466  0.00753807  1
  Sb  Sb10  1  0.89808821  0.00658429  0.45105972  1
  Sb  Sb11  1  0.09999750  0.00914215  0.55229114  1
  Sb  Sb12  1  0.03482436  0.54411784  0.81300704  1
  Sb  Sb13  1  0.96238308  0.49613003  0.18944055  1
  Sb  Sb14  1  0.39597820  0.47610095  0.45749813  1
  Sb  Sb15  1  0.61542374  0.46061660  0.57007191  1
  Sb  Sb16  1  0.53945472  0.02084068  0.83608285  1
  Sb  Sb17  1  0.46138688  0.01736598  0.18764632  1
  S  S18  1  0.92543241  0.99199891  0.78462294  1
  S  S19  1  0.05685954  0.96464852  0.18544055  1
  S  S20  1  0.41761592  0.96708084  0.98799644  1
  S  S21  1  0.58555360  0.97696936  0.02921594  1
  S  S22  1  0.17574970  0.97060239  0.89532728  1
  S  S23  1  0.83826352  0.01292945  0.13241696  1
  S  S24  1  0.10040563  0.51247302  0.66361521  1
  S  S25  1  0.89664338  0.49298915  0.33989301  1
  S  S26  1  0.73816015  0.98052337  0.31260834  1
  S  S27  1  0.26333229  0.97278493  0.68626332  1
  S  S28  1  0.15685316  0.43624974  0.43580981  1
  S  S29  1  0.82172913  0.46104861  0.53859354  1
  S  S30  1  0.44185490  0.49484361  0.81629472  1
  S  S31  1  0.55869972  0.46153207  0.19634368  1
  S  S32  1  0.91848357  0.51848234  0.99080197  1
  S  S33  1  0.08070829  0.52067993  0.00286595  1
  S  S34  1  0.67635977  0.44926911  0.90827240  1
  S  S35  1  0.33474641  0.44565356  0.10730820  1
  S  S36  1  0.60025338  0.95318364  0.67691778  1
  S  S37  1  0.41929124  0.00277460  0.37286688  1
  S  S38  1  0.24597626  0.46325795  0.30022326  1
  S  S39  1  0.76557738  0.41630661  0.71005721  1
  S  S40  1  0.65970177  0.99030336  0.42790647  1
  S  S41  1  0.32233273  0.02199270  0.54968591  1
