# generated using pymatgen
data_Pr2Mn3(SbS3)4
_symmetry_space_group_name_H-M   'P 1'
_cell_length_a   20.02960800
_cell_length_b   3.90410600
_cell_length_c   14.95364829
_cell_angle_alpha   90.00000000
_cell_angle_beta   126.33350609
_cell_angle_gamma   90.00000000
_symmetry_Int_Tables_number   1
_chemical_formula_structural   Pr2Mn3(SbS3)4
_chemical_formula_sum   'Pr4 Mn6 Sb8 S24'
_cell_volume   942.00006694
_cell_formula_units_Z   2
loop_
 _symmetry_equiv_pos_site_id
 _symmetry_equiv_pos_as_xyz
  1  'x, y, z'
loop_
 _atom_site_type_symbol
 _atom_site_label
 _atom_site_symmetry_multiplicity
 _atom_site_fract_x
 _atom_site_fract_y
 _atom_site_fract_z
 _atom_site_occupancy
  Pr  Pr0  1  0.26212847  0.53325212  0.86389757  1
  Pr  Pr1  1  0.72895336  0.53804781  0.13241158  1
  Pr  Pr2  1  0.76956948  0.94984118  0.88698800  1
  Pr  Pr3  1  0.24414944  0.00411008  0.14753168  1
  Mn  Mn4  1  0.27515758  0.54552033  0.57685213  1
  Mn  Mn5  1  0.69575638  0.47052047  0.37340860  1
  Mn  Mn6  1  0.00415427  0.96968836  0.00660916  1
  Mn  Mn7  1  0.79389982  0.98286993  0.59561666  1
  Mn  Mn8  1  0.19627838  0.95403646  0.40147016  1
  Mn  Mn9  1  0.49809213  0.49369600  0.00769464  1
  Sb  Sb10  1  0.89799275  0.00624521  0.45093519  1
  Sb  Sb11  1  0.10004489  0.00960793  0.55253667  1
  Sb  Sb12  1  0.03477444  0.54416627  0.81305031  1
  Sb  Sb13  1  0.96246364  0.49610085  0.18956936  1
  Sb  Sb14  1  0.39603940  0.47589781  0.45759358  1
  Sb  Sb15  1  0.61539336  0.46034207  0.57019940  1
  Sb  Sb16  1  0.53927327  0.02094922  0.83585296  1
  Sb  Sb17  1  0.46128782  0.01724705  0.18747245  1
  S  S18  1  0.92539250  0.99314533  0.78418084  1
  S  S19  1  0.05681403  0.96542491  0.18556670  1
  S  S20  1  0.41709304  0.96669838  0.98783688  1
  S  S21  1  0.58510034  0.97788939  0.02883294  1
  S  S22  1  0.17539727  0.97014789  0.89571742  1
  S  S23  1  0.83816395  0.01442501  0.13242820  1
  S  S24  1  0.10064476  0.51336796  0.66337119  1
  S  S25  1  0.89673999  0.49187480  0.33977129  1
  S  S26  1  0.73803411  0.98031033  0.31247953  1
  S  S27  1  0.26321761  0.97135216  0.68603710  1
  S  S28  1  0.15684433  0.43649010  0.43603556  1
  S  S29  1  0.82140884  0.46008369  0.53781386  1
  S  S30  1  0.44195358  0.49555257  0.81615789  1
  S  S31  1  0.55876188  0.46167809  0.19616030  1
  S  S32  1  0.91868024  0.51855764  0.99109598  1
  S  S33  1  0.08050319  0.51971794  0.00262560  1
  S  S34  1  0.67624972  0.45008795  0.90855796  1
  S  S35  1  0.33466341  0.44377569  0.10738310  1
  S  S36  1  0.60067919  0.95139700  0.67725735  1
  S  S37  1  0.41925490  0.00271683  0.37308176  1
  S  S38  1  0.24603279  0.46385266  0.30012409  1
  S  S39  1  0.76522782  0.41595119  0.70937072  1
  S  S40  1  0.65989630  0.98950461  0.42837174  1
  S  S41  1  0.32215116  0.02295991  0.54952665  1
