# generated using pymatgen
data_Pr2Mn3(SbS3)4
_symmetry_space_group_name_H-M   'P 1'
_cell_length_a   20.02960800
_cell_length_b   3.90410600
_cell_length_c   14.95364829
_cell_angle_alpha   90.00000000
_cell_angle_beta   126.33350609
_cell_angle_gamma   90.00000000
_symmetry_Int_Tables_number   1
_chemical_formula_structural   Pr2Mn3(SbS3)4
_chemical_formula_sum   'Pr4 Mn6 Sb8 S24'
_cell_volume   942.00006694
_cell_formula_units_Z   2
loop_
 _symmetry_equiv_pos_site_id
 _symmetry_equiv_pos_as_xyz
  1  'x, y, z'
loop_
 _atom_site_type_symbol
 _atom_site_label
 _atom_site_symmetry_multiplicity
 _atom_site_fract_x
 _atom_site_fract_y
 _atom_site_fract_z
 _atom_site_occupancy
  Pr  Pr0  1  0.26209887  0.53387628  0.86394122  1
  Pr  Pr1  1  0.72879592  0.53830399  0.13222734  1
  Pr  Pr2  1  0.76966220  0.95022128  0.88715065  1
  Pr  Pr3  1  0.24425415  0.00451001  0.14741978  1
  Mn  Mn4  1  0.27510034  0.54567205  0.57710179  1
  Mn  Mn5  1  0.69606292  0.47077590  0.37400613  1
  Mn  Mn6  1  0.00412767  0.96887883  0.00654243  1
  Mn  Mn7  1  0.79386414  0.98313655  0.59547730  1
  Mn  Mn8  1  0.19635595  0.95378617  0.40181173  1
  Mn  Mn9  1  0.49788304  0.49332681  0.00774957  1
  Sb  Sb10  1  0.89787060  0.00595474  0.45086752  1
  Sb  Sb11  1  0.10005549  0.01005529  0.55276305  1
  Sb  Sb12  1  0.03474865  0.54404035  0.81302876  1
  Sb  Sb13  1  0.96255402  0.49582483  0.18973993  1
  Sb  Sb14  1  0.39609088  0.47536901  0.45766983  1
  Sb  Sb15  1  0.61526057  0.46001419  0.57031452  1
  Sb  Sb16  1  0.53902927  0.02090697  0.83556645  1
  Sb  Sb17  1  0.46118481  0.01691886  0.18729207  1
  S  S18  1  0.92542283  0.99417932  0.78383280  1
  S  S19  1  0.05686232  0.96622582  0.18552294  1
  S  S20  1  0.41659259  0.96581281  0.98765167  1
  S  S21  1  0.58473744  0.97929718  0.02862224  1
  S  S22  1  0.17491245  0.96949263  0.89597511  1
  S  S23  1  0.83816699  0.01574625  0.13252183  1
  S  S24  1  0.10091259  0.51373683  0.66305099  1
  S  S25  1  0.89681870  0.49119916  0.33951740  1
  S  S26  1  0.73797160  0.98055929  0.31256609  1
  S  S27  1  0.26309697  0.97051734  0.68581256  1
  S  S28  1  0.15677066  0.43672069  0.43610538  1
  S  S29  1  0.82108167  0.45876370  0.53705640  1
  S  S30  1  0.44215406  0.49667586  0.81615562  1
  S  S31  1  0.55887995  0.46158574  0.19604743  1
  S  S32  1  0.91875807  0.51843236  0.99110261  1
  S  S33  1  0.08044920  0.51815261  0.00253266  1
  S  S34  1  0.67629283  0.45062700  0.90891857  1
  S  S35  1  0.33464566  0.44201429  0.10757191  1
  S  S36  1  0.60086326  0.95022910  0.67756305  1
  S  S37  1  0.41924143  0.00231141  0.37314287  1
  S  S38  1  0.24603992  0.46400751  0.29994717  1
  S  S39  1  0.76480207  0.41623885  0.70872969  1
  S  S40  1  0.66019132  0.98870319  0.42880683  1
  S  S41  1  0.32208852  0.02394312  0.54951298  1
