# generated using pymatgen
data_Pr2Mn3(SbS3)4
_symmetry_space_group_name_H-M   'P 1'
_cell_length_a   20.02960800
_cell_length_b   3.90410600
_cell_length_c   14.95364829
_cell_angle_alpha   90.00000000
_cell_angle_beta   126.33350609
_cell_angle_gamma   90.00000000
_symmetry_Int_Tables_number   1
_chemical_formula_structural   Pr2Mn3(SbS3)4
_chemical_formula_sum   'Pr4 Mn6 Sb8 S24'
_cell_volume   942.00006694
_cell_formula_units_Z   2
loop_
 _symmetry_equiv_pos_site_id
 _symmetry_equiv_pos_as_xyz
  1  'x, y, z'
loop_
 _atom_site_type_symbol
 _atom_site_label
 _atom_site_symmetry_multiplicity
 _atom_site_fract_x
 _atom_site_fract_y
 _atom_site_fract_z
 _atom_site_occupancy
  Pr  Pr0  1  0.26203594  0.53445894  0.86390203  1
  Pr  Pr1  1  0.72864468  0.53830234  0.13196573  1
  Pr  Pr2  1  0.76979001  0.95067105  0.88736091  1
  Pr  Pr3  1  0.24439002  0.00495565  0.14737385  1
  Mn  Mn4  1  0.27507463  0.54544538  0.57732214  1
  Mn  Mn5  1  0.69635060  0.47075559  0.37448094  1
  Mn  Mn6  1  0.00409891  0.96825992  0.00656966  1
  Mn  Mn7  1  0.79376760  0.98339015  0.59525333  1
  Mn  Mn8  1  0.19637858  0.95331801  0.40189060  1
  Mn  Mn9  1  0.49768923  0.49275205  0.00778563  1
  Sb  Sb10  1  0.89773681  0.00518809  0.45072260  1
  Sb  Sb11  1  0.10004587  0.01069754  0.55299554  1
  Sb  Sb12  1  0.03471035  0.54410755  0.81294425  1
  Sb  Sb13  1  0.96260834  0.49571563  0.18989418  1
  Sb  Sb14  1  0.39608537  0.47489330  0.45771822  1
  Sb  Sb15  1  0.61499965  0.45979947  0.57028791  1
  Sb  Sb16  1  0.53885319  0.02061259  0.83527498  1
  Sb  Sb17  1  0.46107861  0.01662593  0.18713405  1
  S  S18  1  0.92548124  0.99502807  0.78353502  1
  S  S19  1  0.05688102  0.96642593  0.18541843  1
  S  S20  1  0.41630854  0.96523935  0.98748585  1
  S  S21  1  0.58444372  0.98044085  0.02829962  1
  S  S22  1  0.17448976  0.96881002  0.89637492  1
  S  S23  1  0.83803080  0.01663127  0.13239687  1
  S  S24  1  0.10102635  0.51363400  0.66259404  1
  S  S25  1  0.89686320  0.49073935  0.33931661  1
  S  S26  1  0.73782578  0.98065095  0.31269783  1
  S  S27  1  0.26311882  0.96982823  0.68565887  1
  S  S28  1  0.15687427  0.43708656  0.43622167  1
  S  S29  1  0.82082594  0.45761812  0.53645520  1
  S  S30  1  0.44249650  0.49817566  0.81632726  1
  S  S31  1  0.55905819  0.46161008  0.19596913  1
  S  S32  1  0.91869688  0.51813502  0.99110379  1
  S  S33  1  0.08041433  0.51756815  0.00248361  1
  S  S34  1  0.67625053  0.45131680  0.90916525  1
  S  S35  1  0.33463016  0.44035895  0.10788913  1
  S  S36  1  0.60100748  0.94923522  0.67784887  1
  S  S37  1  0.41911746  0.00168585  0.37310764  1
  S  S38  1  0.24595541  0.46392663  0.29983268  1
  S  S39  1  0.76436208  0.41586176  0.70811641  1
  S  S40  1  0.66037234  0.98767059  0.42926505  1
  S  S41  1  0.32191827  0.02541724  0.54933876  1
