# generated using pymatgen
data_Pr2Mn3(SbS3)4
_symmetry_space_group_name_H-M   'P 1'
_cell_length_a   20.02960800
_cell_length_b   3.90410600
_cell_length_c   14.95364829
_cell_angle_alpha   90.00000000
_cell_angle_beta   126.33350609
_cell_angle_gamma   90.00000000
_symmetry_Int_Tables_number   1
_chemical_formula_structural   Pr2Mn3(SbS3)4
_chemical_formula_sum   'Pr4 Mn6 Sb8 S24'
_cell_volume   942.00006694
_cell_formula_units_Z   2
loop_
 _symmetry_equiv_pos_site_id
 _symmetry_equiv_pos_as_xyz
  1  'x, y, z'
loop_
 _atom_site_type_symbol
 _atom_site_label
 _atom_site_symmetry_multiplicity
 _atom_site_fract_x
 _atom_site_fract_y
 _atom_site_fract_z
 _atom_site_occupancy
  Pr  Pr0  1  0.26199531  0.53476055  0.86380160  1
  Pr  Pr1  1  0.72843663  0.53813114  0.13158757  1
  Pr  Pr2  1  0.76992517  0.95127179  0.88767774  1
  Pr  Pr3  1  0.24447316  0.00511123  0.14735810  1
  Mn  Mn4  1  0.27510940  0.54517309  0.57752855  1
  Mn  Mn5  1  0.69656943  0.47009245  0.37484992  1
  Mn  Mn6  1  0.00401673  0.96786882  0.00656712  1
  Mn  Mn7  1  0.79361229  0.98336506  0.59509487  1
  Mn  Mn8  1  0.19640812  0.95281255  0.40213109  1
  Mn  Mn9  1  0.49761599  0.49206389  0.00788760  1
  Sb  Sb10  1  0.89763825  0.00433671  0.45057230  1
  Sb  Sb11  1  0.10005299  0.01098870  0.55322581  1
  Sb  Sb12  1  0.03462892  0.54410949  0.81278492  1
  Sb  Sb13  1  0.96266002  0.49556651  0.19002836  1
  Sb  Sb14  1  0.39617988  0.47453269  0.45781325  1
  Sb  Sb15  1  0.61476942  0.45954289  0.57021381  1
  Sb  Sb16  1  0.53863776  0.02001843  0.83489982  1
  Sb  Sb17  1  0.46103687  0.01632158  0.18693313  1
  S  S18  1  0.92557117  0.99582672  0.78345479  1
  S  S19  1  0.05690956  0.96647454  0.18536579  1
  S  S20  1  0.41603351  0.96440762  0.98723748  1
  S  S21  1  0.58426294  0.98135507  0.02792992  1
  S  S22  1  0.17423957  0.96920615  0.89680647  1
  S  S23  1  0.83772366  0.01879096  0.13214927  1
  S  S24  1  0.10131373  0.51374651  0.66247162  1
  S  S25  1  0.89691275  0.49100288  0.33893028  1
  S  S26  1  0.73754776  0.98009601  0.31279709  1
  S  S27  1  0.26299774  0.96947371  0.68532262  1
  S  S28  1  0.15694858  0.43774197  0.43642236  1
  S  S29  1  0.82049444  0.45693509  0.53577495  1
  S  S30  1  0.44277067  0.49909806  0.81636413  1
  S  S31  1  0.55924035  0.46111883  0.19592928  1
  S  S32  1  0.91865990  0.51747181  0.99122994  1
  S  S33  1  0.08054374  0.51714894  0.00261522  1
  S  S34  1  0.67607334  0.45114046  0.90933792  1
  S  S35  1  0.33459930  0.43784635  0.10832448  1
  S  S36  1  0.60110659  0.94856379  0.67805286  1
  S  S37  1  0.41897553  0.00086164  0.37290015  1
  S  S38  1  0.24584331  0.46396624  0.29967628  1
  S  S39  1  0.76392804  0.41534704  0.70751247  1
  S  S40  1  0.66043818  0.98727808  0.42965291  1
  S  S41  1  0.32188082  0.02726684  0.54905806  1
