# generated using pymatgen
data_Pr2Mn3(SbS3)4
_symmetry_space_group_name_H-M   'P 1'
_cell_length_a   20.02960800
_cell_length_b   3.90410600
_cell_length_c   14.95364829
_cell_angle_alpha   90.00000000
_cell_angle_beta   126.33350609
_cell_angle_gamma   90.00000000
_symmetry_Int_Tables_number   1
_chemical_formula_structural   Pr2Mn3(SbS3)4
_chemical_formula_sum   'Pr4 Mn6 Sb8 S24'
_cell_volume   942.00006694
_cell_formula_units_Z   2
loop_
 _symmetry_equiv_pos_site_id
 _symmetry_equiv_pos_as_xyz
  1  'x, y, z'
loop_
 _atom_site_type_symbol
 _atom_site_label
 _atom_site_symmetry_multiplicity
 _atom_site_fract_x
 _atom_site_fract_y
 _atom_site_fract_z
 _atom_site_occupancy
  Pr  Pr0  1  0.26192820  0.53468581  0.86370039  1
  Pr  Pr1  1  0.72822824  0.53819012  0.13126525  1
  Pr  Pr2  1  0.77011544  0.95149784  0.88792861  1
  Pr  Pr3  1  0.24450431  0.00522438  0.14719437  1
  Mn  Mn4  1  0.27515037  0.54542480  0.57782571  1
  Mn  Mn5  1  0.69677476  0.46970772  0.37548140  1
  Mn  Mn6  1  0.00378014  0.96774490  0.00633293  1
  Mn  Mn7  1  0.79349733  0.98346753  0.59505476  1
  Mn  Mn8  1  0.19637908  0.95209359  0.40235635  1
  Mn  Mn9  1  0.49744853  0.49151021  0.00773328  1
  Sb  Sb10  1  0.89750386  0.00345160  0.45044246  1
  Sb  Sb11  1  0.10005116  0.01128989  0.55342838  1
  Sb  Sb12  1  0.03462606  0.54410588  0.81264400  1
  Sb  Sb13  1  0.96268092  0.49525472  0.19008348  1
  Sb  Sb14  1  0.39620078  0.47439987  0.45775344  1
  Sb  Sb15  1  0.61452766  0.45915576  0.57018265  1
  Sb  Sb16  1  0.53840635  0.01983310  0.83448334  1
  Sb  Sb17  1  0.46107024  0.01586871  0.18680918  1
  S  S18  1  0.92555514  0.99729385  0.78340525  1
  S  S19  1  0.05685164  0.96604102  0.18523830  1
  S  S20  1  0.41583125  0.96345852  0.98693843  1
  S  S21  1  0.58418561  0.98261650  0.02769937  1
  S  S22  1  0.17392951  0.96966075  0.89715805  1
  S  S23  1  0.83740097  0.02112618  0.13185046  1
  S  S24  1  0.10164294  0.51381161  0.66230395  1
  S  S25  1  0.89694922  0.49119225  0.33861230  1
  S  S26  1  0.73728311  0.98013121  0.31298983  1
  S  S27  1  0.26293110  0.96957762  0.68488391  1
  S  S28  1  0.15692009  0.43847027  0.43660442  1
  S  S29  1  0.82017030  0.45609942  0.53508076  1
  S  S30  1  0.44300571  0.49978268  0.81621908  1
  S  S31  1  0.55957261  0.46127885  0.19573889  1
  S  S32  1  0.91839075  0.51681718  0.99107157  1
  S  S33  1  0.08050434  0.51649549  0.00276730  1
  S  S34  1  0.67581572  0.45189010  0.90938461  1
  S  S35  1  0.33442116  0.43579926  0.10861893  1
  S  S36  1  0.60131910  0.94789044  0.67823962  1
  S  S37  1  0.41874898  0.99997053  0.37257414  1
  S  S38  1  0.24583558  0.46436634  0.29960376  1
  S  S39  1  0.76377160  0.41560461  0.70709391  1
  S  S40  1  0.66045663  0.98666232  0.42987109  1
  S  S41  1  0.32189079  0.02946996  0.54892505  1
