# generated using pymatgen
data_Pr2Mn3(SbS3)4
_symmetry_space_group_name_H-M   'P 1'
_cell_length_a   20.02960800
_cell_length_b   3.90410600
_cell_length_c   14.95364829
_cell_angle_alpha   90.00000000
_cell_angle_beta   126.33350609
_cell_angle_gamma   90.00000000
_symmetry_Int_Tables_number   1
_chemical_formula_structural   Pr2Mn3(SbS3)4
_chemical_formula_sum   'Pr4 Mn6 Sb8 S24'
_cell_volume   942.00006694
_cell_formula_units_Z   2
loop_
 _symmetry_equiv_pos_site_id
 _symmetry_equiv_pos_as_xyz
  1  'x, y, z'
loop_
 _atom_site_type_symbol
 _atom_site_label
 _atom_site_symmetry_multiplicity
 _atom_site_fract_x
 _atom_site_fract_y
 _atom_site_fract_z
 _atom_site_occupancy
  Pr  Pr0  1  0.26784408  0.50117867  0.86550657  1
  Pr  Pr1  1  0.73451686  0.50952280  0.13423295  1
  Pr  Pr2  1  0.76355229  0.01902827  0.86116388  1
  Pr  Pr3  1  0.23437159  0.99673128  0.13279704  1
  Mn  Mn4  1  0.29127851  0.47338801  0.59268475  1
  Mn  Mn5  1  0.68518352  0.46897490  0.36516171  1
  Mn  Mn6  1  0.00756395  0.99529890  0.01636479  1
  Mn  Mn7  1  0.80258926  0.01348228  0.61974455  1
  Mn  Mn8  1  0.19825719  0.97507719  0.37295086  1
  Mn  Mn9  1  0.48989107  0.46592482  0.98950527  1
  Sb  Sb10  1  0.89131883  0.98372887  0.45261085  1
  Sb  Sb11  1  0.11050936  0.97816451  0.54409889  1
  Sb  Sb12  1  0.03608918  0.51997177  0.81919894  1
  Sb  Sb13  1  0.96456100  0.50073145  0.18846521  1
  Sb  Sb14  1  0.39436178  0.49800174  0.45036891  1
  Sb  Sb15  1  0.60618908  0.46805308  0.54873536  1
  Sb  Sb16  1  0.53367117  0.99033551  0.80783870  1
  Sb  Sb17  1  0.46574613  0.02393922  0.19202117  1
  S  S18  1  0.93859892  0.00898606  0.81010167  1
  S  S19  1  0.06409704  0.97836885  0.19845590  1
  S  S20  1  0.42148354  0.96066617  0.99070600  1
  S  S21  1  0.58331389  0.03414767  0.01463687  1
  S  S22  1  0.17304594  0.05961879  0.90347018  1
  S  S23  1  0.82961298  0.05088765  0.10430758  1
  S  S24  1  0.09414581  0.49481083  0.64962462  1
  S  S25  1  0.91543205  0.48821850  0.35909358  1
  S  S26  1  0.73525485  0.96573141  0.29745806  1
  S  S27  1  0.26098928  0.00576873  0.70804814  1
  S  S28  1  0.16290686  0.51756180  0.43099807  1
  S  S29  1  0.82206803  0.48488245  0.54903767  1
  S  S30  1  0.42994230  0.48254497  0.79490826  1
  S  S31  1  0.55239258  0.52068140  0.17934715  1
  S  S32  1  0.91438295  0.48639010  0.98715595  1
  S  S33  1  0.08911987  0.49803295  0.03155592  1
  S  S34  1  0.66343843  0.54334335  0.88871841  1
  S  S35  1  0.32853395  0.51001197  0.09532652  1
  S  S36  1  0.59907196  0.00461043  0.66023439  1
  S  S37  1  0.40195586  0.98126180  0.34225738  1
  S  S38  1  0.24099191  0.47213255  0.31319688  1
  S  S39  1  0.76144242  0.51760406  0.69029932  1
  S  S40  1  0.66479018  0.01211950  0.44811623  1
  S  S41  1  0.33118568  0.97902974  0.55647272  1
