# generated using pymatgen
data_Pr2Mn3(SbS3)4
_symmetry_space_group_name_H-M   'P 1'
_cell_length_a   20.02960800
_cell_length_b   3.90410600
_cell_length_c   14.95364829
_cell_angle_alpha   90.00000000
_cell_angle_beta   126.33350609
_cell_angle_gamma   90.00000000
_symmetry_Int_Tables_number   1
_chemical_formula_structural   Pr2Mn3(SbS3)4
_chemical_formula_sum   'Pr4 Mn6 Sb8 S24'
_cell_volume   942.00006694
_cell_formula_units_Z   2
loop_
 _symmetry_equiv_pos_site_id
 _symmetry_equiv_pos_as_xyz
  1  'x, y, z'
loop_
 _atom_site_type_symbol
 _atom_site_label
 _atom_site_symmetry_multiplicity
 _atom_site_fract_x
 _atom_site_fract_y
 _atom_site_fract_z
 _atom_site_occupancy
  Pr  Pr0  1  0.26186762  0.53460885  0.86368141  1
  Pr  Pr1  1  0.72806546  0.53812096  0.13110828  1
  Pr  Pr2  1  0.77028836  0.95144536  0.88808690  1
  Pr  Pr3  1  0.24447325  0.00527740  0.14711185  1
  Mn  Mn4  1  0.27513895  0.54556583  0.57812438  1
  Mn  Mn5  1  0.69691240  0.46921821  0.37606225  1
  Mn  Mn6  1  0.00352420  0.96689055  0.00599335  1
  Mn  Mn7  1  0.79333767  0.98436815  0.59498645  1
  Mn  Mn8  1  0.19640379  0.95115260  0.40282886  1
  Mn  Mn9  1  0.49731475  0.49106129  0.00760922  1
  Sb  Sb10  1  0.89732579  0.00280771  0.45029994  1
  Sb  Sb11  1  0.10004081  0.01164378  0.55366840  1
  Sb  Sb12  1  0.03461517  0.54395782  0.81260117  1
  Sb  Sb13  1  0.96268234  0.49460338  0.19006496  1
  Sb  Sb14  1  0.39622546  0.47449854  0.45771055  1
  Sb  Sb15  1  0.61436628  0.45901502  0.57011821  1
  Sb  Sb16  1  0.53828858  0.01997755  0.83412833  1
  Sb  Sb17  1  0.46106293  0.01530453  0.18680664  1
  S  S18  1  0.92555854  0.99944029  0.78333628  1
  S  S19  1  0.05677555  0.96590511  0.18503928  1
  S  S20  1  0.41564354  0.96209159  0.98670158  1
  S  S21  1  0.58412414  0.98352308  0.02756411  1
  S  S22  1  0.17365666  0.97032166  0.89729221  1
  S  S23  1  0.83737330  0.02317667  0.13178084  1
  S  S24  1  0.10191791  0.51366473  0.66219447  1
  S  S25  1  0.89682722  0.49141830  0.33804468  1
  S  S26  1  0.73704723  0.98040015  0.31310698  1
  S  S27  1  0.26297823  0.96958298  0.68445354  1
  S  S28  1  0.15682220  0.43986280  0.43664098  1
  S  S29  1  0.81980397  0.45544903  0.53449052  1
  S  S30  1  0.44306380  0.50018841  0.81603495  1
  S  S31  1  0.55993672  0.46202529  0.19557366  1
  S  S32  1  0.91814152  0.51545827  0.99083481  1
  S  S33  1  0.08056723  0.51566216  0.00302833  1
  S  S34  1  0.67571698  0.45288632  0.90976837  1
  S  S35  1  0.33430001  0.43362032  0.10884836  1
  S  S36  1  0.60145097  0.94720548  0.67837033  1
  S  S37  1  0.41848339  0.99862490  0.37212216  1
  S  S38  1  0.24600663  0.46515486  0.29961687  1
  S  S39  1  0.76358033  0.41646627  0.70652203  1
  S  S40  1  0.66040519  0.98683517  0.43003402  1
  S  S41  1  0.32175196  0.03144506  0.54864148  1
