# generated using pymatgen
data_Pr2Mn3(SbS3)4
_symmetry_space_group_name_H-M   'P 1'
_cell_length_a   20.02960800
_cell_length_b   3.90410600
_cell_length_c   14.95364829
_cell_angle_alpha   90.00000000
_cell_angle_beta   126.33350609
_cell_angle_gamma   90.00000000
_symmetry_Int_Tables_number   1
_chemical_formula_structural   Pr2Mn3(SbS3)4
_chemical_formula_sum   'Pr4 Mn6 Sb8 S24'
_cell_volume   942.00006694
_cell_formula_units_Z   2
loop_
 _symmetry_equiv_pos_site_id
 _symmetry_equiv_pos_as_xyz
  1  'x, y, z'
loop_
 _atom_site_type_symbol
 _atom_site_label
 _atom_site_symmetry_multiplicity
 _atom_site_fract_x
 _atom_site_fract_y
 _atom_site_fract_z
 _atom_site_occupancy
  Pr  Pr0  1  0.26173809  0.53423662  0.86365057  1
  Pr  Pr1  1  0.72799385  0.53809619  0.13114016  1
  Pr  Pr2  1  0.77048259  0.95134526  0.88826013  1
  Pr  Pr3  1  0.24449901  0.00514054  0.14707788  1
  Mn  Mn4  1  0.27507724  0.54649640  0.57849958  1
  Mn  Mn5  1  0.69702286  0.46846234  0.37656191  1
  Mn  Mn6  1  0.00339356  0.96624868  0.00577219  1
  Mn  Mn7  1  0.79336701  0.98528136  0.59510989  1
  Mn  Mn8  1  0.19647179  0.95045543  0.40324647  1
  Mn  Mn9  1  0.49710828  0.49047909  0.00745842  1
  Sb  Sb10  1  0.89712376  0.00215809  0.45008372  1
  Sb  Sb11  1  0.10004059  0.01233061  0.55391226  1
  Sb  Sb12  1  0.03460580  0.54426080  0.81250207  1
  Sb  Sb13  1  0.96268867  0.49404407  0.18997939  1
  Sb  Sb14  1  0.39629916  0.47474205  0.45774150  1
  Sb  Sb15  1  0.61424391  0.45916439  0.57009481  1
  Sb  Sb16  1  0.53820093  0.01981688  0.83379511  1
  Sb  Sb17  1  0.46110002  0.01497094  0.18682974  1
  S  S18  1  0.92558526  0.00212408  0.78343209  1
  S  S19  1  0.05666232  0.96532258  0.18492134  1
  S  S20  1  0.41548329  0.96079356  0.98653065  1
  S  S21  1  0.58401106  0.98433193  0.02716211  1
  S  S22  1  0.17335200  0.97092077  0.89733649  1
  S  S23  1  0.83720082  0.02473360  0.13151971  1
  S  S24  1  0.10219066  0.51328456  0.66207069  1
  S  S25  1  0.89671063  0.49131227  0.33744849  1
  S  S26  1  0.73693908  0.98018515  0.31314240  1
  S  S27  1  0.26335083  0.96998361  0.68423011  1
  S  S28  1  0.15665311  0.44108284  0.43669273  1
  S  S29  1  0.81941149  0.45424711  0.53389933  1
  S  S30  1  0.44317316  0.50080535  0.81591689  1
  S  S31  1  0.56021472  0.46308061  0.19544249  1
  S  S32  1  0.91811400  0.51366612  0.99065357  1
  S  S33  1  0.08049126  0.51471093  0.00299370  1
  S  S34  1  0.67561003  0.45380502  0.91021235  1
  S  S35  1  0.33423266  0.43224665  0.10906448  1
  S  S36  1  0.60156377  0.94676269  0.67868708  1
  S  S37  1  0.41816366  0.99727476  0.37172591  1
  S  S38  1  0.24618497  0.46601566  0.29965671  1
  S  S39  1  0.76328021  0.41717619  0.70589160  1
  S  S40  1  0.66050014  0.98679596  0.43019465  1
  S  S41  1  0.32163077  0.03313419  0.54853177  1
