# generated using pymatgen
data_Pr2Mn3(SbS3)4
_symmetry_space_group_name_H-M   'P 1'
_cell_length_a   20.02960800
_cell_length_b   3.90410600
_cell_length_c   14.95364829
_cell_angle_alpha   90.00000000
_cell_angle_beta   126.33350609
_cell_angle_gamma   90.00000000
_symmetry_Int_Tables_number   1
_chemical_formula_structural   Pr2Mn3(SbS3)4
_chemical_formula_sum   'Pr4 Mn6 Sb8 S24'
_cell_volume   942.00006694
_cell_formula_units_Z   2
loop_
 _symmetry_equiv_pos_site_id
 _symmetry_equiv_pos_as_xyz
  1  'x, y, z'
loop_
 _atom_site_type_symbol
 _atom_site_label
 _atom_site_symmetry_multiplicity
 _atom_site_fract_x
 _atom_site_fract_y
 _atom_site_fract_z
 _atom_site_occupancy
  Pr  Pr0  1  0.26161228  0.53367896  0.86361420  1
  Pr  Pr1  1  0.72783065  0.53804510  0.13109709  1
  Pr  Pr2  1  0.77057227  0.95105255  0.88837960  1
  Pr  Pr3  1  0.24457720  0.00488964  0.14707327  1
  Mn  Mn4  1  0.27497115  0.54737069  0.57870550  1
  Mn  Mn5  1  0.69715682  0.46753345  0.37699319  1
  Mn  Mn6  1  0.00334238  0.96552467  0.00559914  1
  Mn  Mn7  1  0.79347589  0.98685952  0.59537447  1
  Mn  Mn8  1  0.19648775  0.95011790  0.40364399  1
  Mn  Mn9  1  0.49694475  0.49069795  0.00750768  1
  Sb  Sb10  1  0.89690730  0.00152399  0.44986247  1
  Sb  Sb11  1  0.10004080  0.01298678  0.55410539  1
  Sb  Sb12  1  0.03458950  0.54474688  0.81244697  1
  Sb  Sb13  1  0.96272081  0.49344592  0.18997730  1
  Sb  Sb14  1  0.39640835  0.47504008  0.45786583  1
  Sb  Sb15  1  0.61418591  0.45874822  0.57011094  1
  Sb  Sb16  1  0.53814214  0.01962192  0.83349761  1
  Sb  Sb17  1  0.46115638  0.01457412  0.18693633  1
  S  S18  1  0.92563532  0.00453078  0.78366284  1
  S  S19  1  0.05664889  0.96499496  0.18481818  1
  S  S20  1  0.41535126  0.95945352  0.98654618  1
  S  S21  1  0.58382781  0.98466527  0.02667870  1
  S  S22  1  0.17285770  0.97162796  0.89731327  1
  S  S23  1  0.83700453  0.02536697  0.13119712  1
  S  S24  1  0.10238203  0.51294655  0.66180025  1
  S  S25  1  0.89637043  0.49144370  0.33684630  1
  S  S26  1  0.73691724  0.98070337  0.31328767  1
  S  S27  1  0.26367760  0.97016286  0.68394862  1
  S  S28  1  0.15631064  0.44185440  0.43660397  1
  S  S29  1  0.81908429  0.45289697  0.53341099  1
  S  S30  1  0.44321229  0.50159442  0.81582974  1
  S  S31  1  0.56041296  0.46422131  0.19534365  1
  S  S32  1  0.91812127  0.51201588  0.99051463  1
  S  S33  1  0.08049423  0.51416514  0.00308845  1
  S  S34  1  0.67539960  0.45466964  0.91059398  1
  S  S35  1  0.33412432  0.43035416  0.10930165  1
  S  S36  1  0.60156620  0.94686815  0.67858293  1
  S  S37  1  0.41791710  0.99601920  0.37136344  1
  S  S38  1  0.24634073  0.46713627  0.29976871  1
  S  S39  1  0.76296097  0.41725764  0.70521869  1
  S  S40  1  0.66060397  0.98707897  0.43022901  1
  S  S41  1  0.32148604  0.03390661  0.54834385  1
