# generated using pymatgen
data_Pr2Mn3(SbS3)4
_symmetry_space_group_name_H-M   'P 1'
_cell_length_a   20.02960800
_cell_length_b   3.90410600
_cell_length_c   14.95364829
_cell_angle_alpha   90.00000000
_cell_angle_beta   126.33350609
_cell_angle_gamma   90.00000000
_symmetry_Int_Tables_number   1
_chemical_formula_structural   Pr2Mn3(SbS3)4
_chemical_formula_sum   'Pr4 Mn6 Sb8 S24'
_cell_volume   942.00006694
_cell_formula_units_Z   2
loop_
 _symmetry_equiv_pos_site_id
 _symmetry_equiv_pos_as_xyz
  1  'x, y, z'
loop_
 _atom_site_type_symbol
 _atom_site_label
 _atom_site_symmetry_multiplicity
 _atom_site_fract_x
 _atom_site_fract_y
 _atom_site_fract_z
 _atom_site_occupancy
  Pr  Pr0  1  0.26159724  0.53339833  0.86362303  1
  Pr  Pr1  1  0.72766073  0.53818697  0.13102764  1
  Pr  Pr2  1  0.77067363  0.95053792  0.88852979  1
  Pr  Pr3  1  0.24461722  0.00473139  0.14702021  1
  Mn  Mn4  1  0.27497032  0.54846740  0.57897678  1
  Mn  Mn5  1  0.69737213  0.46707830  0.37751020  1
  Mn  Mn6  1  0.00326487  0.96450402  0.00532266  1
  Mn  Mn7  1  0.79357849  0.98798845  0.59565556  1
  Mn  Mn8  1  0.19644703  0.94975724  0.40384828  1
  Mn  Mn9  1  0.49686778  0.49082665  0.00757387  1
  Sb  Sb10  1  0.89671597  0.00087556  0.44967891  1
  Sb  Sb11  1  0.10009659  0.01360369  0.55432239  1
  Sb  Sb12  1  0.03451182  0.54539570  0.81229639  1
  Sb  Sb13  1  0.96277874  0.49349158  0.18994705  1
  Sb  Sb14  1  0.39650104  0.47523435  0.45793976  1
  Sb  Sb15  1  0.61411300  0.45814547  0.57026420  1
  Sb  Sb16  1  0.53813202  0.01939687  0.83335399  1
  Sb  Sb17  1  0.46123354  0.01427827  0.18709392  1
  S  S18  1  0.92551977  0.00624514  0.78373317  1
  S  S19  1  0.05650812  0.96486429  0.18463974  1
  S  S20  1  0.41518285  0.95863464  0.98653152  1
  S  S21  1  0.58358070  0.98519550  0.02604472  1
  S  S22  1  0.17249831  0.97262385  0.89749962  1
  S  S23  1  0.83683207  0.02556852  0.13082318  1
  S  S24  1  0.10272866  0.51240642  0.66167831  1
  S  S25  1  0.89612399  0.49125792  0.33613731  1
  S  S26  1  0.73709891  0.98162468  0.31354397  1
  S  S27  1  0.26402670  0.97082070  0.68363226  1
  S  S28  1  0.15600880  0.44222954  0.43651912  1
  S  S29  1  0.81882154  0.45138291  0.53291198  1
  S  S30  1  0.44321532  0.50263523  0.81576654  1
  S  S31  1  0.56067121  0.46492104  0.19533925  1
  S  S32  1  0.91812359  0.51020138  0.99017960  1
  S  S33  1  0.08051952  0.51342526  0.00339771  1
  S  S34  1  0.67505097  0.45543682  0.91086960  1
  S  S35  1  0.33410838  0.42833781  0.10959256  1
  S  S36  1  0.60157108  0.94669702  0.67850780  1
  S  S37  1  0.41770572  0.99426160  0.37093951  1
  S  S38  1  0.24645181  0.46822731  0.30003486  1
  S  S39  1  0.76275337  0.41681170  0.70452380  1
  S  S40  1  0.66059605  0.98771800  0.43027330  1
  S  S41  1  0.32164103  0.03485633  0.54846449  1
