# generated using pymatgen
data_Pr2Mn3(SbS3)4
_symmetry_space_group_name_H-M   'P 1'
_cell_length_a   20.02960800
_cell_length_b   3.90410600
_cell_length_c   14.95364829
_cell_angle_alpha   90.00000000
_cell_angle_beta   126.33350609
_cell_angle_gamma   90.00000000
_symmetry_Int_Tables_number   1
_chemical_formula_structural   Pr2Mn3(SbS3)4
_chemical_formula_sum   'Pr4 Mn6 Sb8 S24'
_cell_volume   942.00006694
_cell_formula_units_Z   2
loop_
 _symmetry_equiv_pos_site_id
 _symmetry_equiv_pos_as_xyz
  1  'x, y, z'
loop_
 _atom_site_type_symbol
 _atom_site_label
 _atom_site_symmetry_multiplicity
 _atom_site_fract_x
 _atom_site_fract_y
 _atom_site_fract_z
 _atom_site_occupancy
  Pr  Pr0  1  0.26156344  0.53313049  0.86362701  1
  Pr  Pr1  1  0.72753373  0.53795790  0.13096432  1
  Pr  Pr2  1  0.77076549  0.94965181  0.88866712  1
  Pr  Pr3  1  0.24463522  0.00475926  0.14690832  1
  Mn  Mn4  1  0.27503177  0.54908425  0.57925254  1
  Mn  Mn5  1  0.69756714  0.46712253  0.37798953  1
  Mn  Mn6  1  0.00314801  0.96338767  0.00503360  1
  Mn  Mn7  1  0.79373069  0.98920305  0.59594997  1
  Mn  Mn8  1  0.19646241  0.94976645  0.40411582  1
  Mn  Mn9  1  0.49682160  0.49102281  0.00761067  1
  Sb  Sb10  1  0.89643982  0.00014177  0.44938163  1
  Sb  Sb11  1  0.10009653  0.01427994  0.55448800  1
  Sb  Sb12  1  0.03445552  0.54610315  0.81218412  1
  Sb  Sb13  1  0.96280089  0.49343142  0.18990870  1
  Sb  Sb14  1  0.39658033  0.47566588  0.45808907  1
  Sb  Sb15  1  0.61409745  0.45776690  0.57049385  1
  Sb  Sb16  1  0.53810963  0.01899083  0.83324345  1
  Sb  Sb17  1  0.46132782  0.01373659  0.18729854  1
  S  S18  1  0.92549259  0.00720605  0.78402138  1
  S  S19  1  0.05629966  0.96528112  0.18442756  1
  S  S20  1  0.41506883  0.95794094  0.98654195  1
  S  S21  1  0.58331164  0.98576407  0.02546816  1
  S  S22  1  0.17216220  0.97315185  0.89767811  1
  S  S23  1  0.83665999  0.02574900  0.13050179  1
  S  S24  1  0.10301546  0.51208962  0.66148673  1
  S  S25  1  0.89578215  0.49124812  0.33528996  1
  S  S26  1  0.73720907  0.98229636  0.31363018  1
  S  S27  1  0.26447848  0.97113702  0.68339868  1
  S  S28  1  0.15568071  0.44285943  0.43645196  1
  S  S29  1  0.81858143  0.44959445  0.53251986  1
  S  S30  1  0.44322517  0.50374449  0.81570931  1
  S  S31  1  0.56094580  0.46613166  0.19521794  1
  S  S32  1  0.91831261  0.50876657  0.99000165  1
  S  S33  1  0.08037295  0.51344903  0.00340665  1
  S  S34  1  0.67478911  0.45575343  0.91115070  1
  S  S35  1  0.33413528  0.42645721  0.11000727  1
  S  S36  1  0.60167186  0.94632075  0.67853047  1
  S  S37  1  0.41731020  0.99276677  0.37038380  1
  S  S38  1  0.24673248  0.46879167  0.30058132  1
  S  S39  1  0.76238611  0.41721864  0.70376862  1
  S  S40  1  0.66074928  0.98777422  0.43040690  1
  S  S41  1  0.32185970  0.03517161  0.54867294  1
