# generated using pymatgen
data_Pr2Mn3(SbS3)4
_symmetry_space_group_name_H-M   'P 1'
_cell_length_a   20.02960800
_cell_length_b   3.90410600
_cell_length_c   14.95364829
_cell_angle_alpha   90.00000000
_cell_angle_beta   126.33350609
_cell_angle_gamma   90.00000000
_symmetry_Int_Tables_number   1
_chemical_formula_structural   Pr2Mn3(SbS3)4
_chemical_formula_sum   'Pr4 Mn6 Sb8 S24'
_cell_volume   942.00006694
_cell_formula_units_Z   2
loop_
 _symmetry_equiv_pos_site_id
 _symmetry_equiv_pos_as_xyz
  1  'x, y, z'
loop_
 _atom_site_type_symbol
 _atom_site_label
 _atom_site_symmetry_multiplicity
 _atom_site_fract_x
 _atom_site_fract_y
 _atom_site_fract_z
 _atom_site_occupancy
  Pr  Pr0  1  0.26155559  0.53256899  0.86359971  1
  Pr  Pr1  1  0.72746209  0.53790517  0.13093939  1
  Pr  Pr2  1  0.77081432  0.94890527  0.88882947  1
  Pr  Pr3  1  0.24462112  0.00484304  0.14670541  1
  Mn  Mn4  1  0.27510545  0.54962370  0.57945596  1
  Mn  Mn5  1  0.69786180  0.46699439  0.37865780  1
  Mn  Mn6  1  0.00296003  0.96173663  0.00462353  1
  Mn  Mn7  1  0.79405704  0.99069659  0.59648549  1
  Mn  Mn8  1  0.19642520  0.94953717  0.40440714  1
  Mn  Mn9  1  0.49682860  0.49131901  0.00766082  1
  Sb  Sb10  1  0.89613029  0.99974441  0.44902918  1
  Sb  Sb11  1  0.10008707  0.01533049  0.55450094  1
  Sb  Sb12  1  0.03446340  0.54671844  0.81207679  1
  Sb  Sb13  1  0.96282260  0.49345195  0.18991159  1
  Sb  Sb14  1  0.39671285  0.47611519  0.45829341  1
  Sb  Sb15  1  0.61407055  0.45759970  0.57076295  1
  Sb  Sb16  1  0.53808320  0.01849909  0.83307483  1
  Sb  Sb17  1  0.46141276  0.01327609  0.18739529  1
  S  S18  1  0.92525373  0.00757746  0.78415046  1
  S  S19  1  0.05601220  0.96637803  0.18413740  1
  S  S20  1  0.41481438  0.95670703  0.98655361  1
  S  S21  1  0.58308819  0.98707258  0.02501502  1
  S  S22  1  0.17185510  0.97370996  0.89770460  1
  S  S23  1  0.83642431  0.02552147  0.12997711  1
  S  S24  1  0.10314221  0.51176321  0.66120041  1
  S  S25  1  0.89543963  0.49194210  0.33450374  1
  S  S26  1  0.73729701  0.98284750  0.31366325  1
  S  S27  1  0.26477944  0.97072048  0.68322455  1
  S  S28  1  0.15550599  0.44328350  0.43651974  1
  S  S29  1  0.81834371  0.44765603  0.53226700  1
  S  S30  1  0.44327259  0.50481256  0.81576631  1
  S  S31  1  0.56120782  0.46703677  0.19493793  1
  S  S32  1  0.91841260  0.50745359  0.98985035  1
  S  S33  1  0.08029214  0.51378846  0.00353973  1
  S  S34  1  0.67454225  0.45608092  0.91136606  1
  S  S35  1  0.33400273  0.42484240  0.11020343  1
  S  S36  1  0.60167604  0.94550600  0.67843515  1
  S  S37  1  0.41714927  0.99130127  0.37000782  1
  S  S38  1  0.24704420  0.46951632  0.30130442  1
  S  S39  1  0.76194846  0.41758184  0.70301503  1
  S  S40  1  0.66075897  0.98799261  0.43034897  1
  S  S41  1  0.32212026  0.03579467  0.54888133  1
