# generated using pymatgen
data_Pr2Mn3(SbS3)4
_symmetry_space_group_name_H-M   'P 1'
_cell_length_a   20.02960800
_cell_length_b   3.90410600
_cell_length_c   14.95364829
_cell_angle_alpha   90.00000000
_cell_angle_beta   126.33350609
_cell_angle_gamma   90.00000000
_symmetry_Int_Tables_number   1
_chemical_formula_structural   Pr2Mn3(SbS3)4
_chemical_formula_sum   'Pr4 Mn6 Sb8 S24'
_cell_volume   942.00006694
_cell_formula_units_Z   2
loop_
 _symmetry_equiv_pos_site_id
 _symmetry_equiv_pos_as_xyz
  1  'x, y, z'
loop_
 _atom_site_type_symbol
 _atom_site_label
 _atom_site_symmetry_multiplicity
 _atom_site_fract_x
 _atom_site_fract_y
 _atom_site_fract_z
 _atom_site_occupancy
  Pr  Pr0  1  0.26154084  0.53223256  0.86351641  1
  Pr  Pr1  1  0.72740528  0.53746583  0.13091238  1
  Pr  Pr2  1  0.77085837  0.94861416  0.88900592  1
  Pr  Pr3  1  0.24453151  0.00507995  0.14650498  1
  Mn  Mn4  1  0.27509520  0.55043642  0.57973318  1
  Mn  Mn5  1  0.69814808  0.46664391  0.37921110  1
  Mn  Mn6  1  0.00283739  0.95958920  0.00437380  1
  Mn  Mn7  1  0.79425197  0.99185255  0.59681921  1
  Mn  Mn8  1  0.19644066  0.94950291  0.40475299  1
  Mn  Mn9  1  0.49695504  0.49101561  0.00781861  1
  Sb  Sb10  1  0.89590985  0.99931866  0.44878315  1
  Sb  Sb11  1  0.10007534  0.01604119  0.55445954  1
  Sb  Sb12  1  0.03449303  0.54722881  0.81210453  1
  Sb  Sb13  1  0.96281809  0.49374739  0.18984464  1
  Sb  Sb14  1  0.39680530  0.47624469  0.45850396  1
  Sb  Sb15  1  0.61404388  0.45764349  0.57099366  1
  Sb  Sb16  1  0.53801719  0.01827037  0.83282288  1
  Sb  Sb17  1  0.46151215  0.01303866  0.18742424  1
  S  S18  1  0.92513934  0.00854847  0.78450463  1
  S  S19  1  0.05590256  0.96764297  0.18398044  1
  S  S20  1  0.41461981  0.95529206  0.98672159  1
  S  S21  1  0.58291889  0.98864825  0.02445142  1
  S  S22  1  0.17171948  0.97395127  0.89792432  1
  S  S23  1  0.83624978  0.02532745  0.12952464  1
  S  S24  1  0.10319343  0.51116736  0.66083658  1
  S  S25  1  0.89526300  0.49251669  0.33385740  1
  S  S26  1  0.73728614  0.98329318  0.31369127  1
  S  S27  1  0.26503761  0.96961665  0.68313731  1
  S  S28  1  0.15528971  0.44321196  0.43646842  1
  S  S29  1  0.81811173  0.44551937  0.53197160  1
  S  S30  1  0.44334803  0.50564005  0.81563904  1
  S  S31  1  0.56140098  0.46774018  0.19461172  1
  S  S32  1  0.91843050  0.50637596  0.98953784  1
  S  S33  1  0.08014430  0.51392105  0.00367086  1
  S  S34  1  0.67413032  0.45656678  0.91146342  1
  S  S35  1  0.33383970  0.42394672  0.11029501  1
  S  S36  1  0.60178786  0.94494294  0.67860505  1
  S  S37  1  0.41704740  0.99098089  0.36975866  1
  S  S38  1  0.24731062  0.47000463  0.30178259  1
  S  S39  1  0.76159015  0.41810409  0.70232657  1
  S  S40  1  0.66097077  0.98807106  0.43037570  1
  S  S41  1  0.32252699  0.03686372  0.54931785  1
