# generated using pymatgen
data_Pr2Mn3(SbS3)4
_symmetry_space_group_name_H-M   'P 1'
_cell_length_a   20.02960800
_cell_length_b   3.90410600
_cell_length_c   14.95364829
_cell_angle_alpha   90.00000000
_cell_angle_beta   126.33350609
_cell_angle_gamma   90.00000000
_symmetry_Int_Tables_number   1
_chemical_formula_structural   Pr2Mn3(SbS3)4
_chemical_formula_sum   'Pr4 Mn6 Sb8 S24'
_cell_volume   942.00006694
_cell_formula_units_Z   2
loop_
 _symmetry_equiv_pos_site_id
 _symmetry_equiv_pos_as_xyz
  1  'x, y, z'
loop_
 _atom_site_type_symbol
 _atom_site_label
 _atom_site_symmetry_multiplicity
 _atom_site_fract_x
 _atom_site_fract_y
 _atom_site_fract_z
 _atom_site_occupancy
  Pr  Pr0  1  0.26152726  0.53178322  0.86347336  1
  Pr  Pr1  1  0.72735277  0.53682482  0.13091345  1
  Pr  Pr2  1  0.77082873  0.94851941  0.88911109  1
  Pr  Pr3  1  0.24437005  0.00551550  0.14629118  1
  Mn  Mn4  1  0.27516931  0.55068930  0.58002836  1
  Mn  Mn5  1  0.69845868  0.46636602  0.37988065  1
  Mn  Mn6  1  0.00277552  0.95800725  0.00409998  1
  Mn  Mn7  1  0.79446504  0.99259640  0.59726451  1
  Mn  Mn8  1  0.19654535  0.94982863  0.40517896  1
  Mn  Mn9  1  0.49703869  0.49071906  0.00791606  1
  Sb  Sb10  1  0.89578762  0.99899783  0.44858992  1
  Sb  Sb11  1  0.10010998  0.01626980  0.55446275  1
  Sb  Sb12  1  0.03452858  0.54769780  0.81211817  1
  Sb  Sb13  1  0.96281168  0.49401000  0.18975278  1
  Sb  Sb14  1  0.39684337  0.47618402  0.45869404  1
  Sb  Sb15  1  0.61398910  0.45782362  0.57122513  1
  Sb  Sb16  1  0.53793402  0.01791815  0.83262150  1
  Sb  Sb17  1  0.46161852  0.01320602  0.18740030  1
  S  S18  1  0.92504797  0.01033068  0.78471799  1
  S  S19  1  0.05576212  0.96848527  0.18382650  1
  S  S20  1  0.41447998  0.95387980  0.98671437  1
  S  S21  1  0.58273359  0.99045093  0.02406436  1
  S  S22  1  0.17171820  0.97467772  0.89821234  1
  S  S23  1  0.83616719  0.02507661  0.12916158  1
  S  S24  1  0.10319054  0.51072316  0.66056410  1
  S  S25  1  0.89509656  0.49300530  0.33336913  1
  S  S26  1  0.73728359  0.98342614  0.31374160  1
  S  S27  1  0.26516340  0.96896021  0.68292120  1
  S  S28  1  0.15505420  0.44360306  0.43644243  1
  S  S29  1  0.81784398  0.44325615  0.53152208  1
  S  S30  1  0.44352451  0.50601218  0.81569630  1
  S  S31  1  0.56156875  0.46879313  0.19412916  1
  S  S32  1  0.91839377  0.50540956  0.98930557  1
  S  S33  1  0.08001400  0.51396233  0.00377251  1
  S  S34  1  0.67365498  0.45765278  0.91140401  1
  S  S35  1  0.33372241  0.42334168  0.11036255  1
  S  S36  1  0.60182833  0.94412966  0.67857292  1
  S  S37  1  0.41696325  0.99041662  0.36960729  1
  S  S38  1  0.24752221  0.47079455  0.30227910  1
  S  S39  1  0.76124035  0.41826503  0.70136210  1
  S  S40  1  0.66120373  0.98734181  0.43032864  1
  S  S41  1  0.32290138  0.03715876  0.54966579  1
