# generated using pymatgen
data_Pr2Mn3(SbS3)4
_symmetry_space_group_name_H-M   'P 1'
_cell_length_a   20.02960800
_cell_length_b   3.90410600
_cell_length_c   14.95364829
_cell_angle_alpha   90.00000000
_cell_angle_beta   126.33350609
_cell_angle_gamma   90.00000000
_symmetry_Int_Tables_number   1
_chemical_formula_structural   Pr2Mn3(SbS3)4
_chemical_formula_sum   'Pr4 Mn6 Sb8 S24'
_cell_volume   942.00006694
_cell_formula_units_Z   2
loop_
 _symmetry_equiv_pos_site_id
 _symmetry_equiv_pos_as_xyz
  1  'x, y, z'
loop_
 _atom_site_type_symbol
 _atom_site_label
 _atom_site_symmetry_multiplicity
 _atom_site_fract_x
 _atom_site_fract_y
 _atom_site_fract_z
 _atom_site_occupancy
  Pr  Pr0  1  0.26155771  0.53136109  0.86350788  1
  Pr  Pr1  1  0.72729169  0.53629451  0.13096608  1
  Pr  Pr2  1  0.77083329  0.94839538  0.88919933  1
  Pr  Pr3  1  0.24424447  0.00553325  0.14616712  1
  Mn  Mn4  1  0.27531121  0.55095953  0.58039097  1
  Mn  Mn5  1  0.69882578  0.46626807  0.38056533  1
  Mn  Mn6  1  0.00275092  0.95704720  0.00378874  1
  Mn  Mn7  1  0.79448585  0.99346519  0.59763902  1
  Mn  Mn8  1  0.19678370  0.94985914  0.40566649  1
  Mn  Mn9  1  0.49708986  0.49035425  0.00791258  1
  Sb  Sb10  1  0.89567346  0.99870770  0.44840014  1
  Sb  Sb11  1  0.10014272  0.01669060  0.55445411  1
  Sb  Sb12  1  0.03459145  0.54815511  0.81215559  1
  Sb  Sb13  1  0.96277621  0.49398903  0.18970765  1
  Sb  Sb14  1  0.39691697  0.47624630  0.45888454  1
  Sb  Sb15  1  0.61388750  0.45805761  0.57137130  1
  Sb  Sb16  1  0.53785157  0.01747268  0.83248189  1
  Sb  Sb17  1  0.46172672  0.01317421  0.18730773  1
  S  S18  1  0.92490777  0.01256306  0.78496208  1
  S  S19  1  0.05562702  0.96908501  0.18366453  1
  S  S20  1  0.41424536  0.95202937  0.98672445  1
  S  S21  1  0.58277698  0.99196796  0.02384527  1
  S  S22  1  0.17162084  0.97513735  0.89831084  1
  S  S23  1  0.83630220  0.02446068  0.12914075  1
  S  S24  1  0.10328116  0.51087624  0.66033994  1
  S  S25  1  0.89501793  0.49391218  0.33305854  1
  S  S26  1  0.73737335  0.98344160  0.31391518  1
  S  S27  1  0.26510492  0.96829570  0.68263758  1
  S  S28  1  0.15474578  0.44381250  0.43630908  1
  S  S29  1  0.81742383  0.44148883  0.53095541  1
  S  S30  1  0.44359810  0.50579049  0.81569589  1
  S  S31  1  0.56176988  0.46954660  0.19384890  1
  S  S32  1  0.91833870  0.50383239  0.98906200  1
  S  S33  1  0.07986083  0.51373239  0.00393151  1
  S  S34  1  0.67326675  0.45902647  0.91150469  1
  S  S35  1  0.33364804  0.42266537  0.11037135  1
  S  S36  1  0.60188836  0.94365618  0.67856542  1
  S  S37  1  0.41697217  0.98980694  0.36935453  1
  S  S38  1  0.24778028  0.47121189  0.30268091  1
  S  S39  1  0.76114952  0.41846149  0.70054421  1
  S  S40  1  0.66130412  0.98630548  0.43028802  1
  S  S41  1  0.32324159  0.03685629  0.54996414  1
