# generated using pymatgen
data_Pr2Mn3(SbS3)4
_symmetry_space_group_name_H-M   'P 1'
_cell_length_a   20.02960800
_cell_length_b   3.90410600
_cell_length_c   14.95364829
_cell_angle_alpha   90.00000000
_cell_angle_beta   126.33350609
_cell_angle_gamma   90.00000000
_symmetry_Int_Tables_number   1
_chemical_formula_structural   Pr2Mn3(SbS3)4
_chemical_formula_sum   'Pr4 Mn6 Sb8 S24'
_cell_volume   942.00006694
_cell_formula_units_Z   2
loop_
 _symmetry_equiv_pos_site_id
 _symmetry_equiv_pos_as_xyz
  1  'x, y, z'
loop_
 _atom_site_type_symbol
 _atom_site_label
 _atom_site_symmetry_multiplicity
 _atom_site_fract_x
 _atom_site_fract_y
 _atom_site_fract_z
 _atom_site_occupancy
  Pr  Pr0  1  0.26157179  0.53078393  0.86349850  1
  Pr  Pr1  1  0.72738244  0.53597375  0.13111378  1
  Pr  Pr2  1  0.77079424  0.94809566  0.88923524  1
  Pr  Pr3  1  0.24416821  0.00553209  0.14607108  1
  Mn  Mn4  1  0.27548388  0.55078788  0.58072540  1
  Mn  Mn5  1  0.69910625  0.46572536  0.38109857  1
  Mn  Mn6  1  0.00272244  0.95596244  0.00361906  1
  Mn  Mn7  1  0.79459455  0.99440273  0.59801828  1
  Mn  Mn8  1  0.19708802  0.95023031  0.40614987  1
  Mn  Mn9  1  0.49714451  0.48981708  0.00788195  1
  Sb  Sb10  1  0.89556022  0.99849758  0.44823804  1
  Sb  Sb11  1  0.10013952  0.01720299  0.55442535  1
  Sb  Sb12  1  0.03453239  0.54853707  0.81207982  1
  Sb  Sb13  1  0.96271684  0.49422747  0.18961271  1
  Sb  Sb14  1  0.39700560  0.47644853  0.45905086  1
  Sb  Sb15  1  0.61375391  0.45820960  0.57148212  1
  Sb  Sb16  1  0.53780964  0.01713126  0.83242024  1
  Sb  Sb17  1  0.46184190  0.01286129  0.18721037  1
  S  S18  1  0.92479685  0.01440358  0.78527974  1
  S  S19  1  0.05559855  0.96909523  0.18359836  1
  S  S20  1  0.41388106  0.95135559  0.98657043  1
  S  S21  1  0.58277596  0.99387247  0.02373675  1
  S  S22  1  0.17159341  0.97585280  0.89843046  1
  S  S23  1  0.83638625  0.02423594  0.12896588  1
  S  S24  1  0.10327426  0.51058661  0.66016201  1
  S  S25  1  0.89505486  0.49504213  0.33297244  1
  S  S26  1  0.73738294  0.98316580  0.31421624  1
  S  S27  1  0.26506755  0.96639500  0.68232020  1
  S  S28  1  0.15428916  0.44374525  0.43594245  1
  S  S29  1  0.81721049  0.43902997  0.53073728  1
  S  S30  1  0.44366668  0.50517946  0.81568999  1
  S  S31  1  0.56201242  0.47070117  0.19361722  1
  S  S32  1  0.91830417  0.50186369  0.98877626  1
  S  S33  1  0.07965711  0.51404007  0.00400225  1
  S  S34  1  0.67300908  0.45995684  0.91166254  1
  S  S35  1  0.33361163  0.42152627  0.11042435  1
  S  S36  1  0.60187535  0.94319609  0.67865834  1
  S  S37  1  0.41699526  0.98878756  0.36908037  1
  S  S38  1  0.24800467  0.47153134  0.30303341  1
  S  S39  1  0.76117971  0.41887062  0.69981915  1
  S  S40  1  0.66142302  0.98548991  0.43019611  1
  S  S41  1  0.32348376  0.03609973  0.55013863  1
