# generated using pymatgen
data_Pr2Mn3(SbS3)4
_symmetry_space_group_name_H-M   'P 1'
_cell_length_a   20.02960800
_cell_length_b   3.90410600
_cell_length_c   14.95364829
_cell_angle_alpha   90.00000000
_cell_angle_beta   126.33350609
_cell_angle_gamma   90.00000000
_symmetry_Int_Tables_number   1
_chemical_formula_structural   Pr2Mn3(SbS3)4
_chemical_formula_sum   'Pr4 Mn6 Sb8 S24'
_cell_volume   942.00006694
_cell_formula_units_Z   2
loop_
 _symmetry_equiv_pos_site_id
 _symmetry_equiv_pos_as_xyz
  1  'x, y, z'
loop_
 _atom_site_type_symbol
 _atom_site_label
 _atom_site_symmetry_multiplicity
 _atom_site_fract_x
 _atom_site_fract_y
 _atom_site_fract_z
 _atom_site_occupancy
  Pr  Pr0  1  0.26167828  0.49599776  0.86572259  1
  Pr  Pr1  1  0.74001080  0.50219025  0.13727893  1
  Pr  Pr2  1  0.76047224  0.00656332  0.86196395  1
  Pr  Pr3  1  0.23998871  0.99245467  0.13828930  1
  Mn  Mn4  1  0.29950552  0.50565399  0.62034483  1
  Mn  Mn5  1  0.69708171  0.49786558  0.37929290  1
  Mn  Mn6  1  0.00093114  0.99897957  0.00139465  1
  Mn  Mn7  1  0.80278483  0.99409956  0.61922049  1
  Mn  Mn8  1  0.19915188  0.99240883  0.37913449  1
  Mn  Mn9  1  0.49984580  0.48557795  0.00105498  1
  Sb  Sb10  1  0.89504072  0.00644356  0.45418883  1
  Sb  Sb11  1  0.10662281  0.99253542  0.54967309  1
  Sb  Sb12  1  0.03783687  0.49239940  0.81399893  1
  Sb  Sb13  1  0.96254331  0.49819451  0.18793641  1
  Sb  Sb14  1  0.39452323  0.49084434  0.45556891  1
  Sb  Sb15  1  0.60584959  0.49668780  0.54804786  1
  Sb  Sb16  1  0.53818957  0.99928376  0.81437430  1
  Sb  Sb17  1  0.46302898  0.99917653  0.18512091  1
  S  S18  1  0.93901611  0.99373029  0.79755412  1
  S  S19  1  0.05749331  0.99206525  0.19396055  1
  S  S20  1  0.40271800  0.97977678  0.98009787  1
  S  S21  1  0.59787259  0.99512909  0.01834100  1
  S  S22  1  0.16879433  0.98774834  0.89967163  1
  S  S23  1  0.82821149  0.00401057  0.10414601  1
  S  S24  1  0.08837635  0.49172555  0.64787869  1
  S  S25  1  0.91017907  0.48520588  0.34989786  1
  S  S26  1  0.74411165  0.97921178  0.29618243  1
  S  S27  1  0.25578539  0.00921418  0.70069607  1
  S  S28  1  0.15880065  0.49363507  0.44833159  1
  S  S29  1  0.83618323  0.49742368  0.54655784  1
  S  S30  1  0.43965409  0.49536449  0.79843376  1
  S  S31  1  0.56102767  0.49128205  0.19931391  1
  S  S32  1  0.90248660  0.48319403  0.97838865  1
  S  S33  1  0.09441017  0.48844374  0.01931029  1
  S  S34  1  0.66551646  0.51307172  0.89568085  1
  S  S35  1  0.33421284  0.50269001  0.10724367  1
  S  S36  1  0.58954805  0.01698895  0.64782454  1
  S  S37  1  0.41356333  0.99121115  0.35708067  1
  S  S38  1  0.24307047  0.48100975  0.29181369  1
  S  S39  1  0.76262649  0.50070598  0.70616223  1
  S  S40  1  0.65936169  0.00012120  0.45645778  1
  S  S41  1  0.34049644  0.99102224  0.54486268  1
