# generated using pymatgen
data_Pr2Mn3(SbS3)4
_symmetry_space_group_name_H-M   'P 1'
_cell_length_a   20.02960800
_cell_length_b   3.90410600
_cell_length_c   14.95364829
_cell_angle_alpha   90.00000000
_cell_angle_beta   126.33350609
_cell_angle_gamma   90.00000000
_symmetry_Int_Tables_number   1
_chemical_formula_structural   Pr2Mn3(SbS3)4
_chemical_formula_sum   'Pr4 Mn6 Sb8 S24'
_cell_volume   942.00006694
_cell_formula_units_Z   2
loop_
 _symmetry_equiv_pos_site_id
 _symmetry_equiv_pos_as_xyz
  1  'x, y, z'
loop_
 _atom_site_type_symbol
 _atom_site_label
 _atom_site_symmetry_multiplicity
 _atom_site_fract_x
 _atom_site_fract_y
 _atom_site_fract_z
 _atom_site_occupancy
  Pr  Pr0  1  0.26806532  0.50083250  0.86563014  1
  Pr  Pr1  1  0.73444697  0.50961923  0.13411211  1
  Pr  Pr2  1  0.76350959  0.01953083  0.86112751  1
  Pr  Pr3  1  0.23430869  0.99669588  0.13266093  1
  Mn  Mn4  1  0.29155121  0.47278246  0.59320235  1
  Mn  Mn5  1  0.68517076  0.46856802  0.36511241  1
  Mn  Mn6  1  0.00752776  0.99509751  0.01613669  1
  Mn  Mn7  1  0.80239603  0.01317746  0.61979219  1
  Mn  Mn8  1  0.19834428  0.97542458  0.37291996  1
  Mn  Mn9  1  0.48963547  0.46572085  0.98938054  1
  Sb  Sb10  1  0.89129273  0.98380222  0.45253213  1
  Sb  Sb11  1  0.11038738  0.97822522  0.54401681  1
  Sb  Sb12  1  0.03587658  0.51999670  0.81905465  1
  Sb  Sb13  1  0.96461665  0.50083630  0.18864024  1
  Sb  Sb14  1  0.39428201  0.49755188  0.45032151  1
  Sb  Sb15  1  0.60611649  0.46836528  0.54860222  1
  Sb  Sb16  1  0.53358258  0.98999783  0.80776281  1
  Sb  Sb17  1  0.46563627  0.02393097  0.19200437  1
  S  S18  1  0.93845824  0.00918149  0.80983665  1
  S  S19  1  0.06397832  0.97874737  0.19815625  1
  S  S20  1  0.42170047  0.96038231  0.99117357  1
  S  S21  1  0.58311074  0.03442398  0.01415816  1
  S  S22  1  0.17298494  0.05947754  0.90311455  1
  S  S23  1  0.82965710  0.05111997  0.10440972  1
  S  S24  1  0.09389341  0.49593509  0.64950319  1
  S  S25  1  0.91519619  0.48788041  0.35883128  1
  S  S26  1  0.73532651  0.96718055  0.29745509  1
  S  S27  1  0.26095390  0.00510421  0.70830996  1
  S  S28  1  0.16308841  0.51762960  0.43096253  1
  S  S29  1  0.82175532  0.48433422  0.54885209  1
  S  S30  1  0.43029666  0.48209162  0.79491241  1
  S  S31  1  0.55258956  0.52022546  0.17947161  1
  S  S32  1  0.91441822  0.48717143  0.98718002  1
  S  S33  1  0.08890177  0.49794728  0.03147436  1
  S  S34  1  0.66361057  0.54436396  0.88897306  1
  S  S35  1  0.32835163  0.50994018  0.09506476  1
  S  S36  1  0.59887191  0.00516104  0.65985117  1
  S  S37  1  0.40195620  0.98116411  0.34243052  1
  S  S38  1  0.24118412  0.47246343  0.31365218  1
  S  S39  1  0.76120853  0.51833708  0.69001394  1
  S  S40  1  0.66489586  0.01135464  0.44835675  1
  S  S41  1  0.33134488  0.97950613  0.55633828  1
