# generated using pymatgen
data_Pr2Mn3(SbS3)4
_symmetry_space_group_name_H-M   'P 1'
_cell_length_a   20.02960800
_cell_length_b   3.90410600
_cell_length_c   14.95364829
_cell_angle_alpha   90.00000000
_cell_angle_beta   126.33350609
_cell_angle_gamma   90.00000000
_symmetry_Int_Tables_number   1
_chemical_formula_structural   Pr2Mn3(SbS3)4
_chemical_formula_sum   'Pr4 Mn6 Sb8 S24'
_cell_volume   942.00006694
_cell_formula_units_Z   2
loop_
 _symmetry_equiv_pos_site_id
 _symmetry_equiv_pos_as_xyz
  1  'x, y, z'
loop_
 _atom_site_type_symbol
 _atom_site_label
 _atom_site_symmetry_multiplicity
 _atom_site_fract_x
 _atom_site_fract_y
 _atom_site_fract_z
 _atom_site_occupancy
  Pr  Pr0  1  0.26168675  0.53050302  0.86352033  1
  Pr  Pr1  1  0.72741743  0.53559954  0.13123485  1
  Pr  Pr2  1  0.77072045  0.94791955  0.88921292  1
  Pr  Pr3  1  0.24411679  0.00569854  0.14595456  1
  Mn  Mn4  1  0.27563768  0.55056446  0.58094689  1
  Mn  Mn5  1  0.69916252  0.46506081  0.38139423  1
  Mn  Mn6  1  0.00272980  0.95516067  0.00342102  1
  Mn  Mn7  1  0.79470741  0.99543549  0.59831071  1
  Mn  Mn8  1  0.19733668  0.95073769  0.40654466  1
  Mn  Mn9  1  0.49724083  0.48973759  0.00778393  1
  Sb  Sb10  1  0.89539362  0.99837399  0.44803795  1
  Sb  Sb11  1  0.10017075  0.01763725  0.55439958  1
  Sb  Sb12  1  0.03444419  0.54872631  0.81192386  1
  Sb  Sb13  1  0.96264606  0.49450233  0.18948777  1
  Sb  Sb14  1  0.39708294  0.47713207  0.45924374  1
  Sb  Sb15  1  0.61364049  0.45835937  0.57158078  1
  Sb  Sb16  1  0.53777635  0.01691394  0.83245446  1
  Sb  Sb17  1  0.46191872  0.01282117  0.18707755  1
  S  S18  1  0.92480819  0.01607333  0.78571613  1
  S  S19  1  0.05547010  0.96862028  0.18352344  1
  S  S20  1  0.41338170  0.95077719  0.98613826  1
  S  S21  1  0.58292863  0.99615882  0.02379983  1
  S  S22  1  0.17158684  0.97645824  0.89858944  1
  S  S23  1  0.83655123  0.02437831  0.12894832  1
  S  S24  1  0.10337343  0.50992414  0.66003985  1
  S  S25  1  0.89516876  0.49569668  0.33312259  1
  S  S26  1  0.73730671  0.98346833  0.31431861  1
  S  S27  1  0.26485077  0.96492610  0.68179398  1
  S  S28  1  0.15392058  0.44345048  0.43563135  1
  S  S29  1  0.81696778  0.43709923  0.53054879  1
  S  S30  1  0.44358180  0.50420825  0.81541338  1
  S  S31  1  0.56223330  0.47129288  0.19342570  1
  S  S32  1  0.91836607  0.50037335  0.98855817  1
  S  S33  1  0.07941863  0.51420778  0.00411088  1
  S  S34  1  0.67274143  0.46118865  0.91165548  1
  S  S35  1  0.33357284  0.42051181  0.11050908  1
  S  S36  1  0.60170582  0.94300296  0.67841229  1
  S  S37  1  0.41693686  0.98787247  0.36880764  1
  S  S38  1  0.24832967  0.47131615  0.30340079  1
  S  S39  1  0.76113136  0.41929571  0.69905468  1
  S  S40  1  0.66164373  0.98530904  0.43026835  1
  S  S41  1  0.32361702  0.03485463  0.55026883  1
