# generated using pymatgen
data_Pr2Mn3(SbS3)4
_symmetry_space_group_name_H-M   'P 1'
_cell_length_a   20.02960800
_cell_length_b   3.90410600
_cell_length_c   14.95364829
_cell_angle_alpha   90.00000000
_cell_angle_beta   126.33350609
_cell_angle_gamma   90.00000000
_symmetry_Int_Tables_number   1
_chemical_formula_structural   Pr2Mn3(SbS3)4
_chemical_formula_sum   'Pr4 Mn6 Sb8 S24'
_cell_volume   942.00006694
_cell_formula_units_Z   2
loop_
 _symmetry_equiv_pos_site_id
 _symmetry_equiv_pos_as_xyz
  1  'x, y, z'
loop_
 _atom_site_type_symbol
 _atom_site_label
 _atom_site_symmetry_multiplicity
 _atom_site_fract_x
 _atom_site_fract_y
 _atom_site_fract_z
 _atom_site_occupancy
  Pr  Pr0  1  0.26184433  0.52996272  0.86354693  1
  Pr  Pr1  1  0.72745706  0.53489551  0.13134670  1
  Pr  Pr2  1  0.77063729  0.94808042  0.88919165  1
  Pr  Pr3  1  0.24408647  0.00569764  0.14584964  1
  Mn  Mn4  1  0.27576082  0.55011726  0.58122421  1
  Mn  Mn5  1  0.69918177  0.46418615  0.38144211  1
  Mn  Mn6  1  0.00279980  0.95458381  0.00337300  1
  Mn  Mn7  1  0.79483728  0.99671317  0.59859473  1
  Mn  Mn8  1  0.19750516  0.95120899  0.40690291  1
  Mn  Mn9  1  0.49731926  0.48960122  0.00771936  1
  Sb  Sb10  1  0.89528287  0.99824182  0.44783489  1
  Sb  Sb11  1  0.10020243  0.01804867  0.55433568  1
  Sb  Sb12  1  0.03445567  0.54875093  0.81185698  1
  Sb  Sb13  1  0.96256601  0.49495239  0.18944660  1
  Sb  Sb14  1  0.39716450  0.47815502  0.45950208  1
  Sb  Sb15  1  0.61354110  0.45827643  0.57176494  1
  Sb  Sb16  1  0.53768976  0.01689135  0.83247932  1
  Sb  Sb17  1  0.46193840  0.01303244  0.18690729  1
  S  S18  1  0.92478280  0.01814875  0.78609274  1
  S  S19  1  0.05547194  0.96878683  0.18369707  1
  S  S20  1  0.41297245  0.95067285  0.98601888  1
  S  S21  1  0.58293915  0.99823817  0.02366528  1
  S  S22  1  0.17149623  0.97767718  0.89870619  1
  S  S23  1  0.83657837  0.02367942  0.12889982  1
  S  S24  1  0.10341495  0.50844161  0.65995672  1
  S  S25  1  0.89525596  0.49667451  0.33319953  1
  S  S26  1  0.73722492  0.98331443  0.31431897  1
  S  S27  1  0.26478574  0.96357458  0.68146837  1
  S  S28  1  0.15365615  0.44306407  0.43538762  1
  S  S29  1  0.81686186  0.43501520  0.53042695  1
  S  S30  1  0.44355846  0.50352396  0.81523251  1
  S  S31  1  0.56243321  0.47181320  0.19332393  1
  S  S32  1  0.91838914  0.49919616  0.98839357  1
  S  S33  1  0.07922425  0.51420956  0.00407529  1
  S  S34  1  0.67244544  0.46239510  0.91173507  1
  S  S35  1  0.33343094  0.41978261  0.11035402  1
  S  S36  1  0.60165945  0.94311379  0.67815999  1
  S  S37  1  0.41685918  0.98672614  0.36851158  1
  S  S38  1  0.24878033  0.47078461  0.30369449  1
  S  S39  1  0.76115547  0.41923138  0.69848665  1
  S  S40  1  0.66200434  0.98509109  0.43048311  1
  S  S41  1  0.32378057  0.03409921  0.55057031  1
