# generated using pymatgen
data_Pr2Mn3(SbS3)4
_symmetry_space_group_name_H-M   'P 1'
_cell_length_a   20.02960800
_cell_length_b   3.90410600
_cell_length_c   14.95364829
_cell_angle_alpha   90.00000000
_cell_angle_beta   126.33350609
_cell_angle_gamma   90.00000000
_symmetry_Int_Tables_number   1
_chemical_formula_structural   Pr2Mn3(SbS3)4
_chemical_formula_sum   'Pr4 Mn6 Sb8 S24'
_cell_volume   942.00006694
_cell_formula_units_Z   2
loop_
 _symmetry_equiv_pos_site_id
 _symmetry_equiv_pos_as_xyz
  1  'x, y, z'
loop_
 _atom_site_type_symbol
 _atom_site_label
 _atom_site_symmetry_multiplicity
 _atom_site_fract_x
 _atom_site_fract_y
 _atom_site_fract_z
 _atom_site_occupancy
  Pr  Pr0  1  0.26199857  0.52938529  0.86357156  1
  Pr  Pr1  1  0.72747613  0.53436722  0.13145775  1
  Pr  Pr2  1  0.77057452  0.94815948  0.88912633  1
  Pr  Pr3  1  0.24409926  0.00562702  0.14580114  1
  Mn  Mn4  1  0.27579966  0.54975941  0.58149479  1
  Mn  Mn5  1  0.69914030  0.46329613  0.38134417  1
  Mn  Mn6  1  0.00272775  0.95340655  0.00321262  1
  Mn  Mn7  1  0.79488547  0.99779145  0.59874032  1
  Mn  Mn8  1  0.19778947  0.95174633  0.40733253  1
  Mn  Mn9  1  0.49738061  0.48932470  0.00767196  1
  Sb  Sb10  1  0.89523526  0.99825734  0.44772692  1
  Sb  Sb11  1  0.10028974  0.01854531  0.55431398  1
  Sb  Sb12  1  0.03447677  0.54887415  0.81183511  1
  Sb  Sb13  1  0.96241213  0.49511101  0.18932973  1
  Sb  Sb14  1  0.39713647  0.47897976  0.45969696  1
  Sb  Sb15  1  0.61346252  0.45838542  0.57191621  1
  Sb  Sb16  1  0.53765251  0.01691022  0.83254049  1
  Sb  Sb17  1  0.46189751  0.01286712  0.18675508  1
  S  S18  1  0.92479597  0.02017012  0.78638711  1
  S  S19  1  0.05564389  0.96885210  0.18410264  1
  S  S20  1  0.41246756  0.95070213  0.98583351  1
  S  S21  1  0.58285585  0.00068215  0.02349296  1
  S  S22  1  0.17129990  0.97850739  0.89878846  1
  S  S23  1  0.83642092  0.02350698  0.12884394  1
  S  S24  1  0.10348897  0.50704640  0.65984362  1
  S  S25  1  0.89525531  0.49778821  0.33334992  1
  S  S26  1  0.73720646  0.98358971  0.31444627  1
  S  S27  1  0.26483859  0.96227721  0.68137288  1
  S  S28  1  0.15350209  0.44276940  0.43516870  1
  S  S29  1  0.81685610  0.43290069  0.53049031  1
  S  S30  1  0.44349185  0.50256727  0.81512118  1
  S  S31  1  0.56247958  0.47240077  0.19316929  1
  S  S32  1  0.91857433  0.49788100  0.98841290  1
  S  S33  1  0.07919642  0.51436507  0.00407589  1
  S  S34  1  0.67207759  0.46314642  0.91175525  1
  S  S35  1  0.33325153  0.41931242  0.11026883  1
  S  S36  1  0.60174040  0.94344246  0.67775608  1
  S  S37  1  0.41689699  0.98569154  0.36837003  1
  S  S38  1  0.24921594  0.47084877  0.30391629  1
  S  S39  1  0.76110767  0.41901795  0.69774737  1
  S  S40  1  0.66228669  0.98565580  0.43054008  1
  S  S41  1  0.32391950  0.03335707  0.55082877  1
