# generated using pymatgen
data_Pr2Mn3(SbS3)4
_symmetry_space_group_name_H-M   'P 1'
_cell_length_a   20.02960800
_cell_length_b   3.90410600
_cell_length_c   14.95364829
_cell_angle_alpha   90.00000000
_cell_angle_beta   126.33350609
_cell_angle_gamma   90.00000000
_symmetry_Int_Tables_number   1
_chemical_formula_structural   Pr2Mn3(SbS3)4
_chemical_formula_sum   'Pr4 Mn6 Sb8 S24'
_cell_volume   942.00006694
_cell_formula_units_Z   2
loop_
 _symmetry_equiv_pos_site_id
 _symmetry_equiv_pos_as_xyz
  1  'x, y, z'
loop_
 _atom_site_type_symbol
 _atom_site_label
 _atom_site_symmetry_multiplicity
 _atom_site_fract_x
 _atom_site_fract_y
 _atom_site_fract_z
 _atom_site_occupancy
  Pr  Pr0  1  0.26212756  0.52857822  0.86363081  1
  Pr  Pr1  1  0.72753261  0.53433244  0.13147344  1
  Pr  Pr2  1  0.77054648  0.94827041  0.88906142  1
  Pr  Pr3  1  0.24411750  0.00566077  0.14581037  1
  Mn  Mn4  1  0.27582205  0.54927822  0.58165995  1
  Mn  Mn5  1  0.69915065  0.46247176  0.38126994  1
  Mn  Mn6  1  0.00270641  0.95202373  0.00327639  1
  Mn  Mn7  1  0.79492124  0.99857617  0.59893222  1
  Mn  Mn8  1  0.19808460  0.95277989  0.40763328  1
  Mn  Mn9  1  0.49733707  0.48912015  0.00744370  1
  Sb  Sb10  1  0.89519061  0.99843872  0.44755356  1
  Sb  Sb11  1  0.10030887  0.01880462  0.55419837  1
  Sb  Sb12  1  0.03447566  0.54879714  0.81177446  1
  Sb  Sb13  1  0.96222203  0.49527023  0.18915841  1
  Sb  Sb14  1  0.39711619  0.47988909  0.45993000  1
  Sb  Sb15  1  0.61336641  0.45817604  0.57196287  1
  Sb  Sb16  1  0.53763510  0.01679476  0.83263634  1
  Sb  Sb17  1  0.46196479  0.01260222  0.18663681  1
  S  S18  1  0.92468794  0.02200722  0.78676194  1
  S  S19  1  0.05589330  0.96933161  0.18477709  1
  S  S20  1  0.41194322  0.95071166  0.98561676  1
  S  S21  1  0.58288037  0.00293449  0.02333714  1
  S  S22  1  0.17106390  0.97970976  0.89889844  1
  S  S23  1  0.83629483  0.02337810  0.12869507  1
  S  S24  1  0.10356324  0.50605157  0.65974017  1
  S  S25  1  0.89520115  0.49868490  0.33343424  1
  S  S26  1  0.73702772  0.98338290  0.31438214  1
  S  S27  1  0.26496965  0.96107641  0.68138371  1
  S  S28  1  0.15335332  0.44232677  0.43486544  1
  S  S29  1  0.81687636  0.43058687  0.53063161  1
  S  S30  1  0.44347886  0.50128193  0.81502522  1
  S  S31  1  0.56251429  0.47251456  0.19292219  1
  S  S32  1  0.91872004  0.49677138  0.98861089  1
  S  S33  1  0.07913893  0.51472133  0.00408968  1
  S  S34  1  0.67169006  0.46486137  0.91185318  1
  S  S35  1  0.33300790  0.41887263  0.11004260  1
  S  S36  1  0.60182740  0.94422395  0.67735653  1
  S  S37  1  0.41679591  0.98485522  0.36802464  1
  S  S38  1  0.24971935  0.47089170  0.30423995  1
  S  S39  1  0.76076940  0.41845229  0.69688915  1
  S  S40  1  0.66236907  0.98674518  0.43051120  1
  S  S41  1  0.32410418  0.03267466  0.55121801  1
