# generated using pymatgen
data_Pr2Mn3(SbS3)4
_symmetry_space_group_name_H-M   'P 1'
_cell_length_a   20.02960800
_cell_length_b   3.90410600
_cell_length_c   14.95364829
_cell_angle_alpha   90.00000000
_cell_angle_beta   126.33350609
_cell_angle_gamma   90.00000000
_symmetry_Int_Tables_number   1
_chemical_formula_structural   Pr2Mn3(SbS3)4
_chemical_formula_sum   'Pr4 Mn6 Sb8 S24'
_cell_volume   942.00006694
_cell_formula_units_Z   2
loop_
 _symmetry_equiv_pos_site_id
 _symmetry_equiv_pos_as_xyz
  1  'x, y, z'
loop_
 _atom_site_type_symbol
 _atom_site_label
 _atom_site_symmetry_multiplicity
 _atom_site_fract_x
 _atom_site_fract_y
 _atom_site_fract_z
 _atom_site_occupancy
  Pr  Pr0  1  0.26227463  0.52780168  0.86368586  1
  Pr  Pr1  1  0.72765029  0.53416178  0.13156470  1
  Pr  Pr2  1  0.77050035  0.94843480  0.88899515  1
  Pr  Pr3  1  0.24420052  0.00560717  0.14596410  1
  Mn  Mn4  1  0.27578141  0.54885224  0.58165634  1
  Mn  Mn5  1  0.69909521  0.46176121  0.38110541  1
  Mn  Mn6  1  0.00256322  0.95095860  0.00321225  1
  Mn  Mn7  1  0.79498739  0.99871437  0.59912617  1
  Mn  Mn8  1  0.19831324  0.95360295  0.40788958  1
  Mn  Mn9  1  0.49729050  0.48896959  0.00717314  1
  Sb  Sb10  1  0.89509410  0.99884808  0.44726919  1
  Sb  Sb11  1  0.10035669  0.01941486  0.55410536  1
  Sb  Sb12  1  0.03443941  0.54886627  0.81161894  1
  Sb  Sb13  1  0.96207454  0.49547624  0.18902655  1
  Sb  Sb14  1  0.39708799  0.48044405  0.46023233  1
  Sb  Sb15  1  0.61323036  0.45789975  0.57194932  1
  Sb  Sb16  1  0.53758434  0.01670259  0.83261395  1
  Sb  Sb17  1  0.46206598  0.01229021  0.18652760  1
  S  S18  1  0.92459868  0.02414324  0.78727567  1
  S  S19  1  0.05609872  0.96970938  0.18519930  1
  S  S20  1  0.41144371  0.95063339  0.98528608  1
  S  S21  1  0.58292338  0.00492302  0.02322704  1
  S  S22  1  0.17082583  0.98093797  0.89902788  1
  S  S23  1  0.83620898  0.02340150  0.12828491  1
  S  S24  1  0.10388395  0.50528306  0.65972392  1
  S  S25  1  0.89504847  0.49907940  0.33348097  1
  S  S26  1  0.73685659  0.98305296  0.31422611  1
  S  S27  1  0.26517127  0.96013575  0.68153326  1
  S  S28  1  0.15320288  0.44212578  0.43457229  1
  S  S29  1  0.81687665  0.42830294  0.53076205  1
  S  S30  1  0.44343375  0.50023877  0.81515998  1
  S  S31  1  0.56249265  0.47222760  0.19271742  1
  S  S32  1  0.91884050  0.49583742  0.98879674  1
  S  S33  1  0.07917828  0.51498380  0.00411425  1
  S  S34  1  0.67140454  0.46702292  0.91222898  1
  S  S35  1  0.33282434  0.41883482  0.10995600  1
  S  S36  1  0.60193543  0.94447923  0.67699354  1
  S  S37  1  0.41675927  0.98435389  0.36765212  1
  S  S38  1  0.25028222  0.47069777  0.30448195  1
  S  S39  1  0.76071516  0.41753694  0.69627093  1
  S  S40  1  0.66256368  0.98849745  0.43058556  1
  S  S41  1  0.32426345  0.03246316  0.55154438  1
