# generated using pymatgen
data_Pr2Mn3(SbS3)4
_symmetry_space_group_name_H-M   'P 1'
_cell_length_a   20.02960800
_cell_length_b   3.90410600
_cell_length_c   14.95364829
_cell_angle_alpha   90.00000000
_cell_angle_beta   126.33350609
_cell_angle_gamma   90.00000000
_symmetry_Int_Tables_number   1
_chemical_formula_structural   Pr2Mn3(SbS3)4
_chemical_formula_sum   'Pr4 Mn6 Sb8 S24'
_cell_volume   942.00006694
_cell_formula_units_Z   2
loop_
 _symmetry_equiv_pos_site_id
 _symmetry_equiv_pos_as_xyz
  1  'x, y, z'
loop_
 _atom_site_type_symbol
 _atom_site_label
 _atom_site_symmetry_multiplicity
 _atom_site_fract_x
 _atom_site_fract_y
 _atom_site_fract_z
 _atom_site_occupancy
  Pr  Pr0  1  0.26237236  0.52704056  0.86363265  1
  Pr  Pr1  1  0.72776662  0.53392186  0.13174540  1
  Pr  Pr2  1  0.77047997  0.94893178  0.88899278  1
  Pr  Pr3  1  0.24431305  0.00555265  0.14611078  1
  Mn  Mn4  1  0.27572730  0.54864927  0.58160701  1
  Mn  Mn5  1  0.69903427  0.46136918  0.38101583  1
  Mn  Mn6  1  0.00239341  0.95003093  0.00300430  1
  Mn  Mn7  1  0.79492890  0.99903616  0.59915590  1
  Mn  Mn8  1  0.19857975  0.95408151  0.40813782  1
  Mn  Mn9  1  0.49733463  0.48860208  0.00692849  1
  Sb  Sb10  1  0.89496550  0.99913947  0.44696732  1
  Sb  Sb11  1  0.10052482  0.02005920  0.55412838  1
  Sb  Sb12  1  0.03457292  0.54885850  0.81166711  1
  Sb  Sb13  1  0.96192251  0.49556405  0.18896049  1
  Sb  Sb14  1  0.39698626  0.48106672  0.46037326  1
  Sb  Sb15  1  0.61304841  0.45760418  0.57182622  1
  Sb  Sb16  1  0.53757997  0.01649592  0.83260719  1
  Sb  Sb17  1  0.46215725  0.01195538  0.18631510  1
  S  S18  1  0.92463815  0.02663395  0.78786411  1
  S  S19  1  0.05636424  0.97023876  0.18542886  1
  S  S20  1  0.41104660  0.95037951  0.98495414  1
  S  S21  1  0.58291006  0.00639443  0.02313066  1
  S  S22  1  0.17053356  0.98208092  0.89895305  1
  S  S23  1  0.83612135  0.02332313  0.12802468  1
  S  S24  1  0.10413106  0.50475246  0.65979483  1
  S  S25  1  0.89499937  0.49998347  0.33343113  1
  S  S26  1  0.73670342  0.98267565  0.31417934  1
  S  S27  1  0.26535963  0.95925510  0.68175422  1
  S  S28  1  0.15299677  0.44166189  0.43441551  1
  S  S29  1  0.81691404  0.42560114  0.53092445  1
  S  S30  1  0.44337242  0.49907849  0.81509737  1
  S  S31  1  0.56246295  0.47166516  0.19251891  1
  S  S32  1  0.91897424  0.49609211  0.98896270  1
  S  S33  1  0.07927635  0.51539226  0.00415674  1
  S  S34  1  0.67111348  0.47049545  0.91255830  1
  S  S35  1  0.33270475  0.41894960  0.10979719  1
  S  S36  1  0.60203687  0.94543200  0.67659450  1
  S  S37  1  0.41687549  0.98368412  0.36724536  1
  S  S38  1  0.25083076  0.47127034  0.30482334  1
  S  S39  1  0.76049660  0.41686549  0.69547830  1
  S  S40  1  0.66273355  0.98960394  0.43069597  1
  S  S41  1  0.32446550  0.03278249  0.55184100  1
