# generated using pymatgen
data_Pr2Mn3(SbS3)4
_symmetry_space_group_name_H-M   'P 1'
_cell_length_a   20.02960800
_cell_length_b   3.90410600
_cell_length_c   14.95364829
_cell_angle_alpha   90.00000000
_cell_angle_beta   126.33350609
_cell_angle_gamma   90.00000000
_symmetry_Int_Tables_number   1
_chemical_formula_structural   Pr2Mn3(SbS3)4
_chemical_formula_sum   'Pr4 Mn6 Sb8 S24'
_cell_volume   942.00006694
_cell_formula_units_Z   2
loop_
 _symmetry_equiv_pos_site_id
 _symmetry_equiv_pos_as_xyz
  1  'x, y, z'
loop_
 _atom_site_type_symbol
 _atom_site_label
 _atom_site_symmetry_multiplicity
 _atom_site_fract_x
 _atom_site_fract_y
 _atom_site_fract_z
 _atom_site_occupancy
  Pr  Pr0  1  0.26250871  0.52627276  0.86363765  1
  Pr  Pr1  1  0.72789979  0.53390487  0.13186639  1
  Pr  Pr2  1  0.77038561  0.94938194  0.88898562  1
  Pr  Pr3  1  0.24441502  0.00555441  0.14623711  1
  Mn  Mn4  1  0.27580557  0.54826537  0.58153294  1
  Mn  Mn5  1  0.69900971  0.46126585  0.38090044  1
  Mn  Mn6  1  0.00221524  0.94971055  0.00287495  1
  Mn  Mn7  1  0.79486255  0.99860171  0.59931549  1
  Mn  Mn8  1  0.19882213  0.95440905  0.40832279  1
  Mn  Mn9  1  0.49727764  0.48845130  0.00659113  1
  Sb  Sb10  1  0.89482806  0.99949921  0.44672199  1
  Sb  Sb11  1  0.10063589  0.02102861  0.55420053  1
  Sb  Sb12  1  0.03475346  0.54861796  0.81175422  1
  Sb  Sb13  1  0.96174632  0.49594102  0.18881130  1
  Sb  Sb14  1  0.39692404  0.48165913  0.46046337  1
  Sb  Sb15  1  0.61285535  0.45701069  0.57174997  1
  Sb  Sb16  1  0.53758391  0.01636844  0.83255117  1
  Sb  Sb17  1  0.46230926  0.01136113  0.18609793  1
  S  S18  1  0.92474203  0.02849200  0.78846036  1
  S  S19  1  0.05670449  0.97115547  0.18578022  1
  S  S20  1  0.41059767  0.95022868  0.98464255  1
  S  S21  1  0.58289635  0.00727607  0.02321599  1
  S  S22  1  0.17014338  0.98328760  0.89880900  1
  S  S23  1  0.83607208  0.02300538  0.12784595  1
  S  S24  1  0.10438205  0.50462787  0.65996692  1
  S  S25  1  0.89485420  0.50082843  0.33320919  1
  S  S26  1  0.73645258  0.98309823  0.31407427  1
  S  S27  1  0.26552658  0.95864418  0.68199212  1
  S  S28  1  0.15303621  0.44085790  0.43444975  1
  S  S29  1  0.81710579  0.42373852  0.53113158  1
  S  S30  1  0.44338381  0.49771972  0.81491006  1
  S  S31  1  0.56244398  0.47082874  0.19234544  1
  S  S32  1  0.91902251  0.49644814  0.98896981  1
  S  S33  1  0.07941691  0.51535327  0.00442611  1
  S  S34  1  0.67097358  0.47301928  0.91287924  1
  S  S35  1  0.33248194  0.41930268  0.10951270  1
  S  S36  1  0.60217719  0.94630504  0.67618922  1
  S  S37  1  0.41703130  0.98228803  0.36700127  1
  S  S38  1  0.25121243  0.47194427  0.30523409  1
  S  S39  1  0.76033065  0.41608886  0.69449827  1
  S  S40  1  0.66287798  0.99055323  0.43068020  1
  S  S41  1  0.32474439  0.03340265  0.55223511  1
