# generated using pymatgen
data_Pr2Mn3(SbS3)4
_symmetry_space_group_name_H-M   'P 1'
_cell_length_a   20.02960800
_cell_length_b   3.90410600
_cell_length_c   14.95364829
_cell_angle_alpha   90.00000000
_cell_angle_beta   126.33350609
_cell_angle_gamma   90.00000000
_symmetry_Int_Tables_number   1
_chemical_formula_structural   Pr2Mn3(SbS3)4
_chemical_formula_sum   'Pr4 Mn6 Sb8 S24'
_cell_volume   942.00006694
_cell_formula_units_Z   2
loop_
 _symmetry_equiv_pos_site_id
 _symmetry_equiv_pos_as_xyz
  1  'x, y, z'
loop_
 _atom_site_type_symbol
 _atom_site_label
 _atom_site_symmetry_multiplicity
 _atom_site_fract_x
 _atom_site_fract_y
 _atom_site_fract_z
 _atom_site_occupancy
  Pr  Pr0  1  0.26267229  0.52544131  0.86360278  1
  Pr  Pr1  1  0.72801385  0.53353190  0.13197011  1
  Pr  Pr2  1  0.77031531  0.94991236  0.88898303  1
  Pr  Pr3  1  0.24451606  0.00581230  0.14636351  1
  Mn  Mn4  1  0.27583489  0.54825090  0.58139982  1
  Mn  Mn5  1  0.69906890  0.46169785  0.38079681  1
  Mn  Mn6  1  0.00196224  0.94935238  0.00278400  1
  Mn  Mn7  1  0.79482023  0.99785468  0.59952260  1
  Mn  Mn8  1  0.19912022  0.95514849  0.40862893  1
  Mn  Mn9  1  0.49725653  0.48878635  0.00646137  1
  Sb  Sb10  1  0.89472388  0.99976857  0.44650830  1
  Sb  Sb11  1  0.10075713  0.02144513  0.55437628  1
  Sb  Sb12  1  0.03489487  0.54838727  0.81175649  1
  Sb  Sb13  1  0.96156467  0.49630145  0.18863014  1
  Sb  Sb14  1  0.39695698  0.48223714  0.46060552  1
  Sb  Sb15  1  0.61271439  0.45658541  0.57175024  1
  Sb  Sb16  1  0.53768768  0.01627784  0.83259742  1
  Sb  Sb17  1  0.46249917  0.01091386  0.18594347  1
  S  S18  1  0.92484160  0.02996722  0.78880290  1
  S  S19  1  0.05708721  0.97259205  0.18618547  1
  S  S20  1  0.41030411  0.94982011  0.98451568  1
  S  S21  1  0.58294624  0.00751577  0.02335333  1
  S  S22  1  0.16972670  0.98479310  0.89869625  1
  S  S23  1  0.83589556  0.02294431  0.12772792  1
  S  S24  1  0.10449515  0.50461410  0.65996333  1
  S  S25  1  0.89459499  0.50100350  0.33292540  1
  S  S26  1  0.73638205  0.98331957  0.31398667  1
  S  S27  1  0.26557828  0.95794100  0.68222467  1
  S  S28  1  0.15301757  0.44072632  0.43431125  1
  S  S29  1  0.81719740  0.42124479  0.53127217  1
  S  S30  1  0.44346742  0.49676740  0.81495734  1
  S  S31  1  0.56242069  0.46987588  0.19235058  1
  S  S32  1  0.91900630  0.49657981  0.98898231  1
  S  S33  1  0.07953981  0.51580781  0.00465763  1
  S  S34  1  0.67095652  0.47435872  0.91329335  1
  S  S35  1  0.33220760  0.41990010  0.10940347  1
  S  S36  1  0.60217598  0.94714236  0.67568450  1
  S  S37  1  0.41715756  0.98156892  0.36681091  1
  S  S38  1  0.25143150  0.47121477  0.30551874  1
  S  S39  1  0.76027266  0.41513500  0.69367743  1
  S  S40  1  0.66298500  0.99124449  0.43074447  1
  S  S41  1  0.32502423  0.03446945  0.55267685  1
