# generated using pymatgen
data_Pr2Mn3(SbS3)4
_symmetry_space_group_name_H-M   'P 1'
_cell_length_a   20.02960800
_cell_length_b   3.90410600
_cell_length_c   14.95364829
_cell_angle_alpha   90.00000000
_cell_angle_beta   126.33350609
_cell_angle_gamma   90.00000000
_symmetry_Int_Tables_number   1
_chemical_formula_structural   Pr2Mn3(SbS3)4
_chemical_formula_sum   'Pr4 Mn6 Sb8 S24'
_cell_volume   942.00006694
_cell_formula_units_Z   2
loop_
 _symmetry_equiv_pos_site_id
 _symmetry_equiv_pos_as_xyz
  1  'x, y, z'
loop_
 _atom_site_type_symbol
 _atom_site_label
 _atom_site_symmetry_multiplicity
 _atom_site_fract_x
 _atom_site_fract_y
 _atom_site_fract_z
 _atom_site_occupancy
  Pr  Pr0  1  0.26279609  0.52474385  0.86351980  1
  Pr  Pr1  1  0.72812352  0.53324786  0.13213265  1
  Pr  Pr2  1  0.77028835  0.95023759  0.88905125  1
  Pr  Pr3  1  0.24456986  0.00594446  0.14641442  1
  Mn  Mn4  1  0.27581890  0.54868252  0.58127437  1
  Mn  Mn5  1  0.69902202  0.46285016  0.38054705  1
  Mn  Mn6  1  0.00169383  0.94895228  0.00257785  1
  Mn  Mn7  1  0.79475168  0.99725815  0.59981614  1
  Mn  Mn8  1  0.19950251  0.95545588  0.40908788  1
  Mn  Mn9  1  0.49720818  0.48980617  0.00627443  1
  Sb  Sb10  1  0.89463391  0.00004490  0.44626673  1
  Sb  Sb11  1  0.10088644  0.02213306  0.55457080  1
  Sb  Sb12  1  0.03491049  0.54801090  0.81161186  1
  Sb  Sb13  1  0.96144877  0.49655017  0.18848880  1
  Sb  Sb14  1  0.39704892  0.48295264  0.46086033  1
  Sb  Sb15  1  0.61256565  0.45616849  0.57171160  1
  Sb  Sb16  1  0.53771609  0.01581162  0.83254899  1
  Sb  Sb17  1  0.46265165  0.01058341  0.18573434  1
  S  S18  1  0.92484961  0.03143417  0.78902384  1
  S  S19  1  0.05730436  0.97407626  0.18646186  1
  S  S20  1  0.41009741  0.94985386  0.98459066  1
  S  S21  1  0.58278673  0.00824939  0.02314619  1
  S  S22  1  0.16925298  0.98590356  0.89861151  1
  S  S23  1  0.83563302  0.02412517  0.12722072  1
  S  S24  1  0.10473604  0.50495273  0.65989346  1
  S  S25  1  0.89429856  0.50075933  0.33266425  1
  S  S26  1  0.73613936  0.98324987  0.31377906  1
  S  S27  1  0.26563172  0.95633172  0.68243875  1
  S  S28  1  0.15303411  0.44088228  0.43426606  1
  S  S29  1  0.81731807  0.41890556  0.53142026  1
  S  S30  1  0.44340801  0.49523227  0.81480170  1
  S  S31  1  0.56244232  0.46863104  0.19229457  1
  S  S32  1  0.91903138  0.49598718  0.98902077  1
  S  S33  1  0.07964144  0.51620946  0.00503153  1
  S  S34  1  0.67107520  0.47594189  0.91392348  1
  S  S35  1  0.33203805  0.41950073  0.10939151  1
  S  S36  1  0.60227736  0.94802829  0.67547345  1
  S  S37  1  0.41739703  0.98052921  0.36679225  1
  S  S38  1  0.25156341  0.47051285  0.30570377  1
  S  S39  1  0.76025920  0.41437650  0.69291266  1
  S  S40  1  0.66299824  0.99193456  0.43063657  1
  S  S41  1  0.32533908  0.03579088  0.55296956  1
