# generated using pymatgen
data_Pr2Mn3(SbS3)4
_symmetry_space_group_name_H-M   'P 1'
_cell_length_a   20.02960800
_cell_length_b   3.90410600
_cell_length_c   14.95364829
_cell_angle_alpha   90.00000000
_cell_angle_beta   126.33350609
_cell_angle_gamma   90.00000000
_symmetry_Int_Tables_number   1
_chemical_formula_structural   Pr2Mn3(SbS3)4
_chemical_formula_sum   'Pr4 Mn6 Sb8 S24'
_cell_volume   942.00006694
_cell_formula_units_Z   2
loop_
 _symmetry_equiv_pos_site_id
 _symmetry_equiv_pos_as_xyz
  1  'x, y, z'
loop_
 _atom_site_type_symbol
 _atom_site_label
 _atom_site_symmetry_multiplicity
 _atom_site_fract_x
 _atom_site_fract_y
 _atom_site_fract_z
 _atom_site_occupancy
  Pr  Pr0  1  0.26298038  0.52440204  0.86337208  1
  Pr  Pr1  1  0.72825112  0.53293680  0.13224355  1
  Pr  Pr2  1  0.77025718  0.95038051  0.88902013  1
  Pr  Pr3  1  0.24460528  0.00616990  0.14643313  1
  Mn  Mn4  1  0.27575744  0.54890708  0.58111762  1
  Mn  Mn5  1  0.69906732  0.46409683  0.38041417  1
  Mn  Mn6  1  0.00156840  0.94859645  0.00256707  1
  Mn  Mn7  1  0.79475550  0.99622337  0.60020502  1
  Mn  Mn8  1  0.19991573  0.95630050  0.40959512  1
  Mn  Mn9  1  0.49710120  0.49041941  0.00614175  1
  Sb  Sb10  1  0.89457465  0.00039135  0.44600940  1
  Sb  Sb11  1  0.10098128  0.02284574  0.55469795  1
  Sb  Sb12  1  0.03491730  0.54761280  0.81154073  1
  Sb  Sb13  1  0.96141936  0.49696546  0.18840655  1
  Sb  Sb14  1  0.39709917  0.48405077  0.46113581  1
  Sb  Sb15  1  0.61248627  0.45602215  0.57164970  1
  Sb  Sb16  1  0.53769798  0.01535308  0.83236623  1
  Sb  Sb17  1  0.46277943  0.01051852  0.18567221  1
  S  S18  1  0.92493405  0.03297972  0.78942993  1
  S  S19  1  0.05739869  0.97502043  0.18660000  1
  S  S20  1  0.40998129  0.95061651  0.98462901  1
  S  S21  1  0.58262302  0.00896018  0.02299827  1
  S  S22  1  0.16866580  0.98699946  0.89833740  1
  S  S23  1  0.83528134  0.02434903  0.12671193  1
  S  S24  1  0.10497274  0.50481857  0.65995611  1
  S  S25  1  0.89396007  0.50056233  0.33240218  1
  S  S26  1  0.73603226  0.98306854  0.31368484  1
  S  S27  1  0.26551643  0.95441849  0.68231322  1
  S  S28  1  0.15307968  0.44080808  0.43420392  1
  S  S29  1  0.81740552  0.41664550  0.53152254  1
  S  S30  1  0.44341835  0.49365027  0.81480546  1
  S  S31  1  0.56253918  0.46825313  0.19240193  1
  S  S32  1  0.91899100  0.49568509  0.98898949  1
  S  S33  1  0.07974430  0.51654481  0.00538726  1
  S  S34  1  0.67119899  0.47693080  0.91441128  1
  S  S35  1  0.33190953  0.41891212  0.10944787  1
  S  S36  1  0.60232912  0.94879391  0.67512676  1
  S  S37  1  0.41762677  0.97942592  0.36676403  1
  S  S38  1  0.25164661  0.47002564  0.30592005  1
  S  S39  1  0.76003836  0.41336266  0.69216764  1
  S  S40  1  0.66295841  0.99237880  0.43060836  1
  S  S41  1  0.32571400  0.03662502  0.55315415  1
