# generated using pymatgen
data_Pr2Mn3(SbS3)4
_symmetry_space_group_name_H-M   'P 1'
_cell_length_a   20.02960800
_cell_length_b   3.90410600
_cell_length_c   14.95364829
_cell_angle_alpha   90.00000000
_cell_angle_beta   126.33350609
_cell_angle_gamma   90.00000000
_symmetry_Int_Tables_number   1
_chemical_formula_structural   Pr2Mn3(SbS3)4
_chemical_formula_sum   'Pr4 Mn6 Sb8 S24'
_cell_volume   942.00006694
_cell_formula_units_Z   2
loop_
 _symmetry_equiv_pos_site_id
 _symmetry_equiv_pos_as_xyz
  1  'x, y, z'
loop_
 _atom_site_type_symbol
 _atom_site_label
 _atom_site_symmetry_multiplicity
 _atom_site_fract_x
 _atom_site_fract_y
 _atom_site_fract_z
 _atom_site_occupancy
  Pr  Pr0  1  0.26827376  0.50028742  0.86572097  1
  Pr  Pr1  1  0.73436229  0.50956944  0.13403302  1
  Pr  Pr2  1  0.76348010  0.01969967  0.86111628  1
  Pr  Pr3  1  0.23427158  0.99669623  0.13258795  1
  Mn  Mn4  1  0.29175927  0.47264864  0.59358075  1
  Mn  Mn5  1  0.68515905  0.46813574  0.36507836  1
  Mn  Mn6  1  0.00754512  0.99494843  0.01596026  1
  Mn  Mn7  1  0.80223572  0.01272635  0.61994499  1
  Mn  Mn8  1  0.19838637  0.97562988  0.37284720  1
  Mn  Mn9  1  0.48945693  0.46578792  0.98927792  1
  Sb  Sb10  1  0.89119888  0.98376655  0.45241783  1
  Sb  Sb11  1  0.11025164  0.97813467  0.54392155  1
  Sb  Sb12  1  0.03569805  0.52002151  0.81898895  1
  Sb  Sb13  1  0.96464154  0.50093318  0.18873762  1
  Sb  Sb14  1  0.39416662  0.49723800  0.45029833  1
  Sb  Sb15  1  0.60604752  0.46867392  0.54851555  1
  Sb  Sb16  1  0.53349150  0.98962442  0.80774954  1
  Sb  Sb17  1  0.46555336  0.02395115  0.19200675  1
  S  S18  1  0.93835684  0.00921093  0.80940766  1
  S  S19  1  0.06390290  0.97900612  0.19784664  1
  S  S20  1  0.42183580  0.96023595  0.99168051  1
  S  S21  1  0.58293420  0.03485337  0.01374467  1
  S  S22  1  0.17298248  0.05903975  0.90273554  1
  S  S23  1  0.82965991  0.05150311  0.10449739  1
  S  S24  1  0.09362622  0.49714333  0.64939219  1
  S  S25  1  0.91497083  0.48743572  0.35857607  1
  S  S26  1  0.73540655  0.96836728  0.29752077  1
  S  S27  1  0.26106009  0.00430210  0.70866890  1
  S  S28  1  0.16325894  0.51763445  0.43089114  1
  S  S29  1  0.82147571  0.48370481  0.54868679  1
  S  S30  1  0.43061800  0.48224063  0.79498998  1
  S  S31  1  0.55277654  0.51973943  0.17953439  1
  S  S32  1  0.91447833  0.48749800  0.98723595  1
  S  S33  1  0.08863189  0.49797606  0.03132628  1
  S  S34  1  0.66388940  0.54526497  0.88924907  1
  S  S35  1  0.32812551  0.50978566  0.09474790  1
  S  S36  1  0.59876022  0.00542654  0.65946773  1
  S  S37  1  0.40185878  0.98111616  0.34273553  1
  S  S38  1  0.24145437  0.47261595  0.31412321  1
  S  S39  1  0.76084934  0.51901015  0.68972234  1
  S  S40  1  0.66501451  0.01081752  0.44857960  1
  S  S41  1  0.33144660  0.98029036  0.55629186  1
