# generated using pymatgen
data_Pr2Mn3(SbS3)4
_symmetry_space_group_name_H-M   'P 1'
_cell_length_a   20.02960800
_cell_length_b   3.90410600
_cell_length_c   14.95364829
_cell_angle_alpha   90.00000000
_cell_angle_beta   126.33350609
_cell_angle_gamma   90.00000000
_symmetry_Int_Tables_number   1
_chemical_formula_structural   Pr2Mn3(SbS3)4
_chemical_formula_sum   'Pr4 Mn6 Sb8 S24'
_cell_volume   942.00006694
_cell_formula_units_Z   2
loop_
 _symmetry_equiv_pos_site_id
 _symmetry_equiv_pos_as_xyz
  1  'x, y, z'
loop_
 _atom_site_type_symbol
 _atom_site_label
 _atom_site_symmetry_multiplicity
 _atom_site_fract_x
 _atom_site_fract_y
 _atom_site_fract_z
 _atom_site_occupancy
  Pr  Pr0  1  0.26318805  0.52394645  0.86323479  1
  Pr  Pr1  1  0.72837784  0.53250957  0.13234455  1
  Pr  Pr2  1  0.77021228  0.95048488  0.88900419  1
  Pr  Pr3  1  0.24470338  0.00644940  0.14650301  1
  Mn  Mn4  1  0.27566438  0.54935972  0.58102394  1
  Mn  Mn5  1  0.69908035  0.46540273  0.38041360  1
  Mn  Mn6  1  0.00133791  0.94809826  0.00247395  1
  Mn  Mn7  1  0.79479226  0.99570687  0.60055648  1
  Mn  Mn8  1  0.20034692  0.95688737  0.41003434  1
  Mn  Mn9  1  0.49702170  0.49106350  0.00610419  1
  Sb  Sb10  1  0.89450731  0.00069016  0.44574964  1
  Sb  Sb11  1  0.10105742  0.02351922  0.55470951  1
  Sb  Sb12  1  0.03495885  0.54707349  0.81148605  1
  Sb  Sb13  1  0.96137185  0.49756263  0.18838860  1
  Sb  Sb14  1  0.39716860  0.48517731  0.46137403  1
  Sb  Sb15  1  0.61242081  0.45554636  0.57160130  1
  Sb  Sb16  1  0.53761767  0.01504115  0.83207665  1
  Sb  Sb17  1  0.46281498  0.01051403  0.18557049  1
  S  S18  1  0.92494035  0.03425771  0.78963050  1
  S  S19  1  0.05739234  0.97610587  0.18663746  1
  S  S20  1  0.40987713  0.95095246  0.98480350  1
  S  S21  1  0.58258218  0.00967598  0.02289872  1
  S  S22  1  0.16813681  0.98859208  0.89803073  1
  S  S23  1  0.83504121  0.02449725  0.12629280  1
  S  S24  1  0.10508045  0.50495480  0.65993367  1
  S  S25  1  0.89370220  0.50046786  0.33207267  1
  S  S26  1  0.73592175  0.98217889  0.31350281  1
  S  S27  1  0.26537477  0.95362644  0.68213209  1
  S  S28  1  0.15319245  0.44020215  0.43424195  1
  S  S29  1  0.81729541  0.41468711  0.53148346  1
  S  S30  1  0.44354376  0.49192428  0.81495929  1
  S  S31  1  0.56251416  0.46750913  0.19229615  1
  S  S32  1  0.91891349  0.49505805  0.98883458  1
  S  S33  1  0.07996726  0.51671259  0.00584383  1
  S  S34  1  0.67138127  0.47761163  0.91484256  1
  S  S35  1  0.33192218  0.41837056  0.10959533  1
  S  S36  1  0.60237738  0.94954974  0.67492151  1
  S  S37  1  0.41763205  0.97779143  0.36674697  1
  S  S38  1  0.25172942  0.46961035  0.30602897  1
  S  S39  1  0.75995852  0.41256289  0.69148924  1
  S  S40  1  0.66294226  0.99201053  0.43065310  1
  S  S41  1  0.32602880  0.03719412  0.55333136  1
