# generated using pymatgen
data_Pr2Mn3(SbS3)4
_symmetry_space_group_name_H-M   'P 1'
_cell_length_a   20.02960800
_cell_length_b   3.90410600
_cell_length_c   14.95364829
_cell_angle_alpha   90.00000000
_cell_angle_beta   126.33350609
_cell_angle_gamma   90.00000000
_symmetry_Int_Tables_number   1
_chemical_formula_structural   Pr2Mn3(SbS3)4
_chemical_formula_sum   'Pr4 Mn6 Sb8 S24'
_cell_volume   942.00006694
_cell_formula_units_Z   2
loop_
 _symmetry_equiv_pos_site_id
 _symmetry_equiv_pos_as_xyz
  1  'x, y, z'
loop_
 _atom_site_type_symbol
 _atom_site_label
 _atom_site_symmetry_multiplicity
 _atom_site_fract_x
 _atom_site_fract_y
 _atom_site_fract_z
 _atom_site_occupancy
  Pr  Pr0  1  0.26343207  0.52323554  0.86316512  1
  Pr  Pr1  1  0.72850555  0.53235724  0.13251609  1
  Pr  Pr2  1  0.77009222  0.95061409  0.88896147  1
  Pr  Pr3  1  0.24476711  0.00668805  0.14665119  1
  Mn  Mn4  1  0.27553100  0.54973447  0.58088486  1
  Mn  Mn5  1  0.69900971  0.46650245  0.38037614  1
  Mn  Mn6  1  0.00123985  0.94723226  0.00241850  1
  Mn  Mn7  1  0.79474068  0.99530038  0.60090783  1
  Mn  Mn8  1  0.20086801  0.95735499  0.41050976  1
  Mn  Mn9  1  0.49702710  0.49152284  0.00608252  1
  Sb  Sb10  1  0.89441179  0.00116161  0.44541166  1
  Sb  Sb11  1  0.10115138  0.02409364  0.55476814  1
  Sb  Sb12  1  0.03493976  0.54662936  0.81133518  1
  Sb  Sb13  1  0.96134971  0.49804780  0.18839270  1
  Sb  Sb14  1  0.39725732  0.48634869  0.46177451  1
  Sb  Sb15  1  0.61237900  0.45503150  0.57149526  1
  Sb  Sb16  1  0.53736526  0.01443454  0.83166072  1
  Sb  Sb17  1  0.46293655  0.01019664  0.18558404  1
  S  S18  1  0.92490320  0.03477660  0.78973835  1
  S  S19  1  0.05745877  0.97752658  0.18671019  1
  S  S20  1  0.40983031  0.95143653  0.98499817  1
  S  S21  1  0.58249364  0.01004508  0.02280349  1
  S  S22  1  0.16776039  0.98981929  0.89788814  1
  S  S23  1  0.83483619  0.02487492  0.12592395  1
  S  S24  1  0.10516860  0.50472259  0.65982565  1
  S  S25  1  0.89341925  0.50031067  0.33185481  1
  S  S26  1  0.73569856  0.98119500  0.31320784  1
  S  S27  1  0.26525883  0.95315211  0.68216951  1
  S  S28  1  0.15320838  0.44025073  0.43418640  1
  S  S29  1  0.81725385  0.41302636  0.53141464  1
  S  S30  1  0.44359845  0.49107075  0.81504690  1
  S  S31  1  0.56231156  0.46673117  0.19196682  1
  S  S32  1  0.91888503  0.49454988  0.98872499  1
  S  S33  1  0.08016073  0.51668658  0.00608583  1
  S  S34  1  0.67147310  0.47773521  0.91528812  1
  S  S35  1  0.33196427  0.41883328  0.10967793  1
  S  S36  1  0.60248171  0.95034382  0.67465136  1
  S  S37  1  0.41778546  0.97674307  0.36669289  1
  S  S38  1  0.25174377  0.46908064  0.30615548  1
  S  S39  1  0.75981867  0.41154363  0.69091770  1
  S  S40  1  0.66303563  0.99179374  0.43089712  1
  S  S41  1  0.32635462  0.03790538  0.55340832  1
