# generated using pymatgen
data_Pr2Mn3(SbS3)4
_symmetry_space_group_name_H-M   'P 1'
_cell_length_a   20.02960800
_cell_length_b   3.90410600
_cell_length_c   14.95364829
_cell_angle_alpha   90.00000000
_cell_angle_beta   126.33350609
_cell_angle_gamma   90.00000000
_symmetry_Int_Tables_number   1
_chemical_formula_structural   Pr2Mn3(SbS3)4
_chemical_formula_sum   'Pr4 Mn6 Sb8 S24'
_cell_volume   942.00006694
_cell_formula_units_Z   2
loop_
 _symmetry_equiv_pos_site_id
 _symmetry_equiv_pos_as_xyz
  1  'x, y, z'
loop_
 _atom_site_type_symbol
 _atom_site_label
 _atom_site_symmetry_multiplicity
 _atom_site_fract_x
 _atom_site_fract_y
 _atom_site_fract_z
 _atom_site_occupancy
  Pr  Pr0  1  0.26364064  0.52273491  0.86314107  1
  Pr  Pr1  1  0.72861987  0.53219110  0.13263075  1
  Pr  Pr2  1  0.76997448  0.95076972  0.88895311  1
  Pr  Pr3  1  0.24489927  0.00701632  0.14685525  1
  Mn  Mn4  1  0.27530723  0.55033895  0.58072928  1
  Mn  Mn5  1  0.69889594  0.46747710  0.38027130  1
  Mn  Mn6  1  0.00118550  0.94634531  0.00229623  1
  Mn  Mn7  1  0.79456020  0.99521441  0.60110496  1
  Mn  Mn8  1  0.20135765  0.95766194  0.41080296  1
  Mn  Mn9  1  0.49708893  0.49198979  0.00608422  1
  Sb  Sb10  1  0.89428436  0.00172295  0.44506543  1
  Sb  Sb11  1  0.10129158  0.02452097  0.55486393  1
  Sb  Sb12  1  0.03482136  0.54600773  0.81113313  1
  Sb  Sb13  1  0.96133296  0.49807774  0.18850207  1
  Sb  Sb14  1  0.39734643  0.48772849  0.46207749  1
  Sb  Sb15  1  0.61239459  0.45462678  0.57147446  1
  Sb  Sb16  1  0.53718157  0.01388035  0.83130052  1
  Sb  Sb17  1  0.46296984  0.00973436  0.18556920  1
  S  S18  1  0.92475806  0.03512241  0.78981894  1
  S  S19  1  0.05773827  0.97926198  0.18687414  1
  S  S20  1  0.40984882  0.95196687  0.98527959  1
  S  S21  1  0.58229122  0.01067183  0.02265572  1
  S  S22  1  0.16748983  0.99015628  0.89793482  1
  S  S23  1  0.83470324  0.02545039  0.12570419  1
  S  S24  1  0.10521936  0.50455256  0.65959200  1
  S  S25  1  0.89294452  0.50026664  0.33148888  1
  S  S26  1  0.73535128  0.98013265  0.31281378  1
  S  S27  1  0.26513480  0.95271984  0.68228893  1
  S  S28  1  0.15333480  0.43999624  0.43429010  1
  S  S29  1  0.81717819  0.41213635  0.53141998  1
  S  S30  1  0.44349403  0.49020752  0.81513238  1
  S  S31  1  0.56220775  0.46602724  0.19163002  1
  S  S32  1  0.91875090  0.49423722  0.98846357  1
  S  S33  1  0.08039399  0.51729959  0.00640462  1
  S  S34  1  0.67172687  0.47782230  0.91583878  1
  S  S35  1  0.33203994  0.42016157  0.10960113  1
  S  S36  1  0.60258649  0.95070491  0.67438953  1
  S  S37  1  0.41789024  0.97591974  0.36671192  1
  S  S38  1  0.25170902  0.46818046  0.30604694  1
  S  S39  1  0.75969109  0.41018406  0.69024316  1
  S  S40  1  0.66311747  0.99210094  0.43128466  1
  S  S41  1  0.32672981  0.03843391  0.55348678  1
