# generated using pymatgen
data_Pr2Mn3(SbS3)4
_symmetry_space_group_name_H-M   'P 1'
_cell_length_a   20.02960800
_cell_length_b   3.90410600
_cell_length_c   14.95364829
_cell_angle_alpha   90.00000000
_cell_angle_beta   126.33350609
_cell_angle_gamma   90.00000000
_symmetry_Int_Tables_number   1
_chemical_formula_structural   Pr2Mn3(SbS3)4
_chemical_formula_sum   'Pr4 Mn6 Sb8 S24'
_cell_volume   942.00006694
_cell_formula_units_Z   2
loop_
 _symmetry_equiv_pos_site_id
 _symmetry_equiv_pos_as_xyz
  1  'x, y, z'
loop_
 _atom_site_type_symbol
 _atom_site_label
 _atom_site_symmetry_multiplicity
 _atom_site_fract_x
 _atom_site_fract_y
 _atom_site_fract_z
 _atom_site_occupancy
  Pr  Pr0  1  0.26380731  0.52255809  0.86319375  1
  Pr  Pr1  1  0.72871023  0.53184151  0.13267867  1
  Pr  Pr2  1  0.76983050  0.95093652  0.88897662  1
  Pr  Pr3  1  0.24503537  0.00690431  0.14704025  1
  Mn  Mn4  1  0.27503404  0.55106215  0.58050030  1
  Mn  Mn5  1  0.69879694  0.46815493  0.38007322  1
  Mn  Mn6  1  0.00121273  0.94553217  0.00232572  1
  Mn  Mn7  1  0.79432425  0.99500201  0.60127311  1
  Mn  Mn8  1  0.20176561  0.95775493  0.41119733  1
  Mn  Mn9  1  0.49724127  0.49244791  0.00622269  1
  Sb  Sb10  1  0.89411267  0.00234817  0.44467359  1
  Sb  Sb11  1  0.10133798  0.02525942  0.55478765  1
  Sb  Sb12  1  0.03473686  0.54542025  0.81102066  1
  Sb  Sb13  1  0.96128781  0.49811057  0.18853989  1
  Sb  Sb14  1  0.39742819  0.48897706  0.46230460  1
  Sb  Sb15  1  0.61236637  0.45409549  0.57144200  1
  Sb  Sb16  1  0.53707543  0.01319332  0.83094527  1
  Sb  Sb17  1  0.46300744  0.00920539  0.18552186  1
  S  S18  1  0.92462168  0.03537560  0.78996937  1
  S  S19  1  0.05795323  0.98058247  0.18697721  1
  S  S20  1  0.40998020  0.95269384  0.98586282  1
  S  S21  1  0.58203791  0.01149947  0.02249839  1
  S  S22  1  0.16723077  0.99075265  0.89780972  1
  S  S23  1  0.83454328  0.02581489  0.12524491  1
  S  S24  1  0.10534893  0.50419866  0.65947096  1
  S  S25  1  0.89265501  0.50040186  0.33122994  1
  S  S26  1  0.73511583  0.97939573  0.31245718  1
  S  S27  1  0.26509935  0.95306118  0.68240139  1
  S  S28  1  0.15339105  0.43916998  0.43436150  1
  S  S29  1  0.81719929  0.41225299  0.53141447  1
  S  S30  1  0.44339556  0.49014602  0.81521087  1
  S  S31  1  0.56218646  0.46538004  0.19124333  1
  S  S32  1  0.91864379  0.49416452  0.98810489  1
  S  S33  1  0.08067532  0.51857203  0.00675503  1
  S  S34  1  0.67185267  0.47704643  0.91624752  1
  S  S35  1  0.33210727  0.42070173  0.10922158  1
  S  S36  1  0.60255094  0.95173456  0.67411744  1
  S  S37  1  0.41790033  0.97474326  0.36663129  1
  S  S38  1  0.25164819  0.46729035  0.30592058  1
  S  S39  1  0.75953211  0.40938735  0.68957036  1
  S  S40  1  0.66324155  0.99198251  0.43169433  1
  S  S41  1  0.32699162  0.03929297  0.55354785  1
