# generated using pymatgen
data_Pr2Mn3(SbS3)4
_symmetry_space_group_name_H-M   'P 1'
_cell_length_a   20.02960800
_cell_length_b   3.90410600
_cell_length_c   14.95364829
_cell_angle_alpha   90.00000000
_cell_angle_beta   126.33350609
_cell_angle_gamma   90.00000000
_symmetry_Int_Tables_number   1
_chemical_formula_structural   Pr2Mn3(SbS3)4
_chemical_formula_sum   'Pr4 Mn6 Sb8 S24'
_cell_volume   942.00006694
_cell_formula_units_Z   2
loop_
 _symmetry_equiv_pos_site_id
 _symmetry_equiv_pos_as_xyz
  1  'x, y, z'
loop_
 _atom_site_type_symbol
 _atom_site_label
 _atom_site_symmetry_multiplicity
 _atom_site_fract_x
 _atom_site_fract_y
 _atom_site_fract_z
 _atom_site_occupancy
  Pr  Pr0  1  0.26401343  0.52287680  0.86325901  1
  Pr  Pr1  1  0.72877452  0.53165028  0.13271867  1
  Pr  Pr2  1  0.76972649  0.95106782  0.88895906  1
  Pr  Pr3  1  0.24512354  0.00689102  0.14721916  1
  Mn  Mn4  1  0.27480779  0.55131456  0.58044662  1
  Mn  Mn5  1  0.69862198  0.46908077  0.37985729  1
  Mn  Mn6  1  0.00123738  0.94472920  0.00236483  1
  Mn  Mn7  1  0.79421337  0.99462305  0.60158182  1
  Mn  Mn8  1  0.20209174  0.95728460  0.41140959  1
  Mn  Mn9  1  0.49747921  0.49310307  0.00632214  1
  Sb  Sb10  1  0.89392840  0.00285096  0.44428357  1
  Sb  Sb11  1  0.10136298  0.02617336  0.55476796  1
  Sb  Sb12  1  0.03465515  0.54463365  0.81089206  1
  Sb  Sb13  1  0.96128413  0.49847367  0.18850510  1
  Sb  Sb14  1  0.39754274  0.49001855  0.46248348  1
  Sb  Sb15  1  0.61235261  0.45329940  0.57142457  1
  Sb  Sb16  1  0.53690862  0.01236889  0.83055729  1
  Sb  Sb17  1  0.46311935  0.00885647  0.18550734  1
  S  S18  1  0.92455329  0.03631491  0.79013344  1
  S  S19  1  0.05807557  0.98156551  0.18685267  1
  S  S20  1  0.41014778  0.95388065  0.98640104  1
  S  S21  1  0.58175669  0.01239089  0.02248248  1
  S  S22  1  0.16694811  0.99112821  0.89748248  1
  S  S23  1  0.83448157  0.02644576  0.12499423  1
  S  S24  1  0.10563626  0.50412225  0.65953083  1
  S  S25  1  0.89235457  0.50034384  0.33106046  1
  S  S26  1  0.73497254  0.97834595  0.31227841  1
  S  S27  1  0.26497523  0.95374523  0.68230817  1
  S  S28  1  0.15346120  0.43843014  0.43430682  1
  S  S29  1  0.81724105  0.41271844  0.53163278  1
  S  S30  1  0.44336566  0.49001350  0.81530492  1
  S  S31  1  0.56206222  0.46476104  0.19076433  1
  S  S32  1  0.91866689  0.49369644  0.98781401  1
  S  S33  1  0.08070342  0.52053282  0.00714595  1
  S  S34  1  0.67191717  0.47648611  0.91637304  1
  S  S35  1  0.33215477  0.42146695  0.10875761  1
  S  S36  1  0.60264866  0.95197294  0.67389015  1
  S  S37  1  0.41802950  0.97377997  0.36662078  1
  S  S38  1  0.25156209  0.46604427  0.30573062  1
  S  S39  1  0.75945108  0.40789283  0.68892973  1
  S  S40  1  0.66332394  0.99112400  0.43206307  1
  S  S41  1  0.32699220  0.03981304  0.55347103  1
