# generated using pymatgen
data_Pr2Mn3(SbS3)4
_symmetry_space_group_name_H-M   'P 1'
_cell_length_a   20.02960800
_cell_length_b   3.90410600
_cell_length_c   14.95364829
_cell_angle_alpha   90.00000000
_cell_angle_beta   126.33350609
_cell_angle_gamma   90.00000000
_symmetry_Int_Tables_number   1
_chemical_formula_structural   Pr2Mn3(SbS3)4
_chemical_formula_sum   'Pr4 Mn6 Sb8 S24'
_cell_volume   942.00006694
_cell_formula_units_Z   2
loop_
 _symmetry_equiv_pos_site_id
 _symmetry_equiv_pos_as_xyz
  1  'x, y, z'
loop_
 _atom_site_type_symbol
 _atom_site_label
 _atom_site_symmetry_multiplicity
 _atom_site_fract_x
 _atom_site_fract_y
 _atom_site_fract_z
 _atom_site_occupancy
  Pr  Pr0  1  0.26423873  0.52324452  0.86340359  1
  Pr  Pr1  1  0.72878642  0.53114769  0.13267382  1
  Pr  Pr2  1  0.76963377  0.95108856  0.88895164  1
  Pr  Pr3  1  0.24508943  0.00662862  0.14732131  1
  Mn  Mn4  1  0.27458776  0.55179755  0.58051758  1
  Mn  Mn5  1  0.69840728  0.46921356  0.37970551  1
  Mn  Mn6  1  0.00125900  0.94461449  0.00242026  1
  Mn  Mn7  1  0.79410794  0.99423141  0.60190791  1
  Mn  Mn8  1  0.20242657  0.95688625  0.41149092  1
  Mn  Mn9  1  0.49775758  0.49379816  0.00646759  1
  Sb  Sb10  1  0.89369551  0.00361463  0.44383740  1
  Sb  Sb11  1  0.10148598  0.02693390  0.55477399  1
  Sb  Sb12  1  0.03451778  0.54416293  0.81062289  1
  Sb  Sb13  1  0.96124407  0.49853026  0.18838962  1
  Sb  Sb14  1  0.39761167  0.49087780  0.46270361  1
  Sb  Sb15  1  0.61227085  0.45259889  0.57129524  1
  Sb  Sb16  1  0.53685549  0.01164327  0.83028774  1
  Sb  Sb17  1  0.46327711  0.00881642  0.18550503  1
  S  S18  1  0.92424368  0.03691872  0.78994202  1
  S  S19  1  0.05837325  0.98210330  0.18703535  1
  S  S20  1  0.41038288  0.95549236  0.98700727  1
  S  S21  1  0.58143548  0.01343362  0.02239623  1
  S  S22  1  0.16653156  0.99108545  0.89706190  1
  S  S23  1  0.83442938  0.02699896  0.12478336  1
  S  S24  1  0.10575899  0.50396138  0.65979881  1
  S  S25  1  0.89196963  0.49960053  0.33106735  1
  S  S26  1  0.73495954  0.97702716  0.31237961  1
  S  S27  1  0.26478249  0.95376654  0.68222316  1
  S  S28  1  0.15377180  0.43760191  0.43439717  1
  S  S29  1  0.81723243  0.41361169  0.53176463  1
  S  S30  1  0.44339317  0.49079340  0.81548116  1
  S  S31  1  0.56182431  0.46420795  0.19017552  1
  S  S32  1  0.91867556  0.49308030  0.98751806  1
  S  S33  1  0.08063396  0.52224693  0.00743255  1
  S  S34  1  0.67199016  0.47610670  0.91644622  1
  S  S35  1  0.33227374  0.42128950  0.10836467  1
  S  S36  1  0.60272689  0.95227882  0.67378365  1
  S  S37  1  0.41819739  0.97308622  0.36641212  1
  S  S38  1  0.25138546  0.46461707  0.30541934  1
  S  S39  1  0.75933510  0.40685430  0.68810705  1
  S  S40  1  0.66335640  0.99010335  0.43241169  1
  S  S41  1  0.32709807  0.04035816  0.55343957  1
