# generated using pymatgen
data_Pr2Mn3(SbS3)4
_symmetry_space_group_name_H-M   'P 1'
_cell_length_a   20.02960800
_cell_length_b   3.90410600
_cell_length_c   14.95364829
_cell_angle_alpha   90.00000000
_cell_angle_beta   126.33350609
_cell_angle_gamma   90.00000000
_symmetry_Int_Tables_number   1
_chemical_formula_structural   Pr2Mn3(SbS3)4
_chemical_formula_sum   'Pr4 Mn6 Sb8 S24'
_cell_volume   942.00006694
_cell_formula_units_Z   2
loop_
 _symmetry_equiv_pos_site_id
 _symmetry_equiv_pos_as_xyz
  1  'x, y, z'
loop_
 _atom_site_type_symbol
 _atom_site_label
 _atom_site_symmetry_multiplicity
 _atom_site_fract_x
 _atom_site_fract_y
 _atom_site_fract_z
 _atom_site_occupancy
  Pr  Pr0  1  0.26444143  0.52356803  0.86352524  1
  Pr  Pr1  1  0.72884023  0.53106255  0.13264196  1
  Pr  Pr2  1  0.76958305  0.95116694  0.88891737  1
  Pr  Pr3  1  0.24508995  0.00666201  0.14745953  1
  Mn  Mn4  1  0.27430582  0.55228541  0.58045131  1
  Mn  Mn5  1  0.69821732  0.46909828  0.37963386  1
  Mn  Mn6  1  0.00127452  0.94509858  0.00249081  1
  Mn  Mn7  1  0.79399375  0.99370349  0.60209473  1
  Mn  Mn8  1  0.20269403  0.95640580  0.41153047  1
  Mn  Mn9  1  0.49804732  0.49416423  0.00672697  1
  Sb  Sb10  1  0.89347394  0.00458835  0.44346127  1
  Sb  Sb11  1  0.10163819  0.02780501  0.55483424  1
  Sb  Sb12  1  0.03442851  0.54360563  0.81041043  1
  Sb  Sb13  1  0.96118736  0.49881607  0.18828150  1
  Sb  Sb14  1  0.39768305  0.49161310  0.46293858  1
  Sb  Sb15  1  0.61225663  0.45178306  0.57127126  1
  Sb  Sb16  1  0.53674726  0.01112081  0.82996863  1
  Sb  Sb17  1  0.46341401  0.00858822  0.18556430  1
  S  S18  1  0.92421051  0.03712270  0.78989171  1
  S  S19  1  0.05865562  0.98222716  0.18723710  1
  S  S20  1  0.41052198  0.95781475  0.98738265  1
  S  S21  1  0.58104382  0.01389006  0.02239798  1
  S  S22  1  0.16603255  0.99153041  0.89669070  1
  S  S23  1  0.83441301  0.02738970  0.12463656  1
  S  S24  1  0.10579503  0.50378700  0.66001697  1
  S  S25  1  0.89171027  0.49932616  0.33111899  1
  S  S26  1  0.73492605  0.97582516  0.31251751  1
  S  S27  1  0.26458787  0.95433906  0.68203590  1
  S  S28  1  0.15401367  0.43669794  0.43448894  1
  S  S29  1  0.81703220  0.41449587  0.53154547  1
  S  S30  1  0.44340003  0.49178000  0.81544564  1
  S  S31  1  0.56162181  0.46374506  0.18951227  1
  S  S32  1  0.91864572  0.49204484  0.98705883  1
  S  S33  1  0.08078874  0.52336684  0.00794560  1
  S  S34  1  0.67222779  0.47667138  0.91655465  1
  S  S35  1  0.33237743  0.42062855  0.10788742  1
  S  S36  1  0.60282002  0.95303313  0.67376513  1
  S  S37  1  0.41831600  0.97223244  0.36640423  1
  S  S38  1  0.25125269  0.46351923  0.30511116  1
  S  S39  1  0.75933402  0.40606301  0.68744242  1
  S  S40  1  0.66321301  0.98834131  0.43265428  1
  S  S41  1  0.32723982  0.04050409  0.55353341  1
