# generated using pymatgen
data_Pr2Mn3(SbS3)4
_symmetry_space_group_name_H-M   'P 1'
_cell_length_a   20.02960800
_cell_length_b   3.90410600
_cell_length_c   14.95364829
_cell_angle_alpha   90.00000000
_cell_angle_beta   126.33350609
_cell_angle_gamma   90.00000000
_symmetry_Int_Tables_number   1
_chemical_formula_structural   Pr2Mn3(SbS3)4
_chemical_formula_sum   'Pr4 Mn6 Sb8 S24'
_cell_volume   942.00006694
_cell_formula_units_Z   2
loop_
 _symmetry_equiv_pos_site_id
 _symmetry_equiv_pos_as_xyz
  1  'x, y, z'
loop_
 _atom_site_type_symbol
 _atom_site_label
 _atom_site_symmetry_multiplicity
 _atom_site_fract_x
 _atom_site_fract_y
 _atom_site_fract_z
 _atom_site_occupancy
  Pr  Pr0  1  0.26468699  0.52361342  0.86369796  1
  Pr  Pr1  1  0.72886859  0.53125165  0.13253375  1
  Pr  Pr2  1  0.76956487  0.95131902  0.88893467  1
  Pr  Pr3  1  0.24505934  0.00661720  0.14757905  1
  Mn  Mn4  1  0.27410780  0.55301364  0.58065917  1
  Mn  Mn5  1  0.69797300  0.46855280  0.37941268  1
  Mn  Mn6  1  0.00118876  0.94541050  0.00255414  1
  Mn  Mn7  1  0.79386018  0.99285671  0.60235790  1
  Mn  Mn8  1  0.20288886  0.95561850  0.41146599  1
  Mn  Mn9  1  0.49830361  0.49484750  0.00672461  1
  Sb  Sb10  1  0.89330409  0.00532890  0.44312059  1
  Sb  Sb11  1  0.10178199  0.02878993  0.55488371  1
  Sb  Sb12  1  0.03441584  0.54302965  0.81026966  1
  Sb  Sb13  1  0.96106485  0.49871558  0.18805694  1
  Sb  Sb14  1  0.39779255  0.49215038  0.46316483  1
  Sb  Sb15  1  0.61220604  0.45089996  0.57135373  1
  Sb  Sb16  1  0.53662752  0.01057735  0.82954419  1
  Sb  Sb17  1  0.46363064  0.00806204  0.18567622  1
  S  S18  1  0.92431689  0.03724442  0.78984264  1
  S  S19  1  0.05887930  0.98258231  0.18751279  1
  S  S20  1  0.41061755  0.96066501  0.98766542  1
  S  S21  1  0.58081579  0.01456001  0.02246233  1
  S  S22  1  0.16562448  0.99164399  0.89646122  1
  S  S23  1  0.83424017  0.02794599  0.12420451  1
  S  S24  1  0.10565498  0.50356178  0.66024715  1
  S  S25  1  0.89135024  0.49932297  0.33126594  1
  S  S26  1  0.73487814  0.97460556  0.31278133  1
  S  S27  1  0.26434695  0.95442207  0.68184248  1
  S  S28  1  0.15424369  0.43621025  0.43468564  1
  S  S29  1  0.81695161  0.41557480  0.53150563  1
  S  S30  1  0.44347464  0.49213143  0.81543730  1
  S  S31  1  0.56135867  0.46342885  0.18877704  1
  S  S32  1  0.91860017  0.49163290  0.98671905  1
  S  S33  1  0.08095671  0.52444389  0.00844590  1
  S  S34  1  0.67240294  0.47678313  0.91659447  1
  S  S35  1  0.33260700  0.42067396  0.10756279  1
  S  S36  1  0.60294271  0.95394819  0.67375816  1
  S  S37  1  0.41843879  0.97052554  0.36663992  1
  S  S38  1  0.25110863  0.46256111  0.30491073  1
  S  S39  1  0.75943842  0.40491043  0.68712000  1
  S  S40  1  0.66311008  0.98688538  0.43304321  1
  S  S41  1  0.32745138  0.04094147  0.55358082  1
