# generated using pymatgen
data_Pr2Mn3(SbS3)4
_symmetry_space_group_name_H-M   'P 1'
_cell_length_a   20.02960800
_cell_length_b   3.90410600
_cell_length_c   14.95364829
_cell_angle_alpha   90.00000000
_cell_angle_beta   126.33350609
_cell_angle_gamma   90.00000000
_symmetry_Int_Tables_number   1
_chemical_formula_structural   Pr2Mn3(SbS3)4
_chemical_formula_sum   'Pr4 Mn6 Sb8 S24'
_cell_volume   942.00006694
_cell_formula_units_Z   2
loop_
 _symmetry_equiv_pos_site_id
 _symmetry_equiv_pos_as_xyz
  1  'x, y, z'
loop_
 _atom_site_type_symbol
 _atom_site_label
 _atom_site_symmetry_multiplicity
 _atom_site_fract_x
 _atom_site_fract_y
 _atom_site_fract_z
 _atom_site_occupancy
  Pr  Pr0  1  0.26492141  0.52365007  0.86387306  1
  Pr  Pr1  1  0.72889183  0.53136502  0.13233476  1
  Pr  Pr2  1  0.76957632  0.95143275  0.88899655  1
  Pr  Pr3  1  0.24504291  0.00675992  0.14768961  1
  Mn  Mn4  1  0.27391929  0.55379345  0.58071791  1
  Mn  Mn5  1  0.69763742  0.46796912  0.37912525  1
  Mn  Mn6  1  0.00122383  0.94562589  0.00270828  1
  Mn  Mn7  1  0.79380716  0.99207740  0.60280414  1
  Mn  Mn8  1  0.20315993  0.95459738  0.41153927  1
  Mn  Mn9  1  0.49851447  0.49522589  0.00678572  1
  Sb  Sb10  1  0.89314735  0.00586364  0.44276832  1
  Sb  Sb11  1  0.10195752  0.02976236  0.55498026  1
  Sb  Sb12  1  0.03431459  0.54259329  0.81006426  1
  Sb  Sb13  1  0.96095041  0.49871711  0.18784181  1
  Sb  Sb14  1  0.39785106  0.49255127  0.46343753  1
  Sb  Sb15  1  0.61224607  0.44989766  0.57147112  1
  Sb  Sb16  1  0.53652913  0.00982373  0.82916096  1
  Sb  Sb17  1  0.46378617  0.00809907  0.18579808  1
  S  S18  1  0.92434214  0.03690723  0.78941192  1
  S  S19  1  0.05912022  0.98311093  0.18786476  1
  S  S20  1  0.41073804  0.96333678  0.98773990  1
  S  S21  1  0.58057209  0.01565688  0.02252349  1
  S  S22  1  0.16520399  0.99157086  0.89610638  1
  S  S23  1  0.83401734  0.02777596  0.12374194  1
  S  S24  1  0.10559970  0.50406731  0.66040114  1
  S  S25  1  0.89092020  0.49921650  0.33130566  1
  S  S26  1  0.73460449  0.97354356  0.31295865  1
  S  S27  1  0.26414637  0.95463048  0.68138247  1
  S  S28  1  0.15445416  0.43559867  0.43483359  1
  S  S29  1  0.81698065  0.41637807  0.53152321  1
  S  S30  1  0.44349944  0.49278669  0.81528656  1
  S  S31  1  0.56125797  0.46331939  0.18825009  1
  S  S32  1  0.91854100  0.49072629  0.98648469  1
  S  S33  1  0.08104802  0.52488421  0.00896927  1
  S  S34  1  0.67261305  0.47658652  0.91664667  1
  S  S35  1  0.33295564  0.42081118  0.10724859  1
  S  S36  1  0.60312768  0.95435664  0.67389242  1
  S  S37  1  0.41866685  0.96853556  0.36712662  1
  S  S38  1  0.25085252  0.46148461  0.30465995  1
  S  S39  1  0.75956317  0.40416885  0.68677534  1
  S  S40  1  0.66305700  0.98584712  0.43334498  1
  S  S41  1  0.32777489  0.04123644  0.55384946  1
