# generated using pymatgen
data_Pr2Mn3(SbS3)4
_symmetry_space_group_name_H-M   'P 1'
_cell_length_a   20.02960800
_cell_length_b   3.90410600
_cell_length_c   14.95364829
_cell_angle_alpha   90.00000000
_cell_angle_beta   126.33350609
_cell_angle_gamma   90.00000000
_symmetry_Int_Tables_number   1
_chemical_formula_structural   Pr2Mn3(SbS3)4
_chemical_formula_sum   'Pr4 Mn6 Sb8 S24'
_cell_volume   942.00006694
_cell_formula_units_Z   2
loop_
 _symmetry_equiv_pos_site_id
 _symmetry_equiv_pos_as_xyz
  1  'x, y, z'
loop_
 _atom_site_type_symbol
 _atom_site_label
 _atom_site_symmetry_multiplicity
 _atom_site_fract_x
 _atom_site_fract_y
 _atom_site_fract_z
 _atom_site_occupancy
  Pr  Pr0  1  0.26512620  0.52356219  0.86405126  1
  Pr  Pr1  1  0.72886755  0.53146521  0.13207036  1
  Pr  Pr2  1  0.76962081  0.95134388  0.88914393  1
  Pr  Pr3  1  0.24498208  0.00697536  0.14773071  1
  Mn  Mn4  1  0.27376416  0.55425602  0.58082944  1
  Mn  Mn5  1  0.69730516  0.46755143  0.37872743  1
  Mn  Mn6  1  0.00137016  0.94587134  0.00288065  1
  Mn  Mn7  1  0.79370793  0.99104057  0.60312735  1
  Mn  Mn8  1  0.20334487  0.95370636  0.41152691  1
  Mn  Mn9  1  0.49872885  0.49640677  0.00678180  1
  Sb  Sb10  1  0.89300359  0.00640658  0.44240515  1
  Sb  Sb11  1  0.10208295  0.03081247  0.55511807  1
  Sb  Sb12  1  0.03421718  0.54215238  0.80977632  1
  Sb  Sb13  1  0.96089366  0.49884206  0.18762386  1
  Sb  Sb14  1  0.39780683  0.49284049  0.46362764  1
  Sb  Sb15  1  0.61225852  0.44915926  0.57155486  1
  Sb  Sb16  1  0.53644084  0.00889824  0.82883309  1
  Sb  Sb17  1  0.46385330  0.00808206  0.18581038  1
  S  S18  1  0.92437994  0.03673580  0.78884719  1
  S  S19  1  0.05927510  0.98371503  0.18800272  1
  S  S20  1  0.41074200  0.96644423  0.98767705  1
  S  S21  1  0.58032687  0.01670034  0.02259177  1
  S  S22  1  0.16487677  0.99144776  0.89585382  1
  S  S23  1  0.83385354  0.02692902  0.12341214  1
  S  S24  1  0.10554827  0.50487694  0.66061539  1
  S  S25  1  0.89037344  0.49855388  0.33122143  1
  S  S26  1  0.73436437  0.97236384  0.31306145  1
  S  S27  1  0.26401998  0.95426917  0.68125379  1
  S  S28  1  0.15463702  0.43484377  0.43492588  1
  S  S29  1  0.81703548  0.41731444  0.53165840  1
  S  S30  1  0.44346113  0.49353970  0.81510584  1
  S  S31  1  0.56116226  0.46305898  0.18776429  1
  S  S32  1  0.91844200  0.48981476  0.98636711  1
  S  S33  1  0.08098774  0.52558797  0.00922546  1
  S  S34  1  0.67274988  0.47660572  0.91657201  1
  S  S35  1  0.33315463  0.42055319  0.10659729  1
  S  S36  1  0.60321279  0.95401219  0.67400972  1
  S  S37  1  0.41893196  0.96665039  0.36757499  1
  S  S38  1  0.25064796  0.46072426  0.30438881  1
  S  S39  1  0.75964357  0.40264479  0.68634868  1
  S  S40  1  0.66326514  0.98437758  0.43382264  1
  S  S41  1  0.32817126  0.04159104  0.55431444  1
