# generated using pymatgen
data_Pr2Mn3(SbS3)4
_symmetry_space_group_name_H-M   'P 1'
_cell_length_a   20.02960800
_cell_length_b   3.90410600
_cell_length_c   14.95364829
_cell_angle_alpha   90.00000000
_cell_angle_beta   126.33350609
_cell_angle_gamma   90.00000000
_symmetry_Int_Tables_number   1
_chemical_formula_structural   Pr2Mn3(SbS3)4
_chemical_formula_sum   'Pr4 Mn6 Sb8 S24'
_cell_volume   942.00006694
_cell_formula_units_Z   2
loop_
 _symmetry_equiv_pos_site_id
 _symmetry_equiv_pos_as_xyz
  1  'x, y, z'
loop_
 _atom_site_type_symbol
 _atom_site_label
 _atom_site_symmetry_multiplicity
 _atom_site_fract_x
 _atom_site_fract_y
 _atom_site_fract_z
 _atom_site_occupancy
  Pr  Pr0  1  0.26848670  0.49983152  0.86582273  1
  Pr  Pr1  1  0.73425860  0.50941598  0.13389004  1
  Pr  Pr2  1  0.76346639  0.01961067  0.86115411  1
  Pr  Pr3  1  0.23422859  0.99676964  0.13256437  1
  Mn  Mn4  1  0.29185213  0.47239326  0.59386308  1
  Mn  Mn5  1  0.68516156  0.46787545  0.36508349  1
  Mn  Mn6  1  0.00746960  0.99507363  0.01573707  1
  Mn  Mn7  1  0.80200558  0.01240265  0.61997005  1
  Mn  Mn8  1  0.19831500  0.97564543  0.37269004  1
  Mn  Mn9  1  0.48925866  0.46596692  0.98920255  1
  Sb  Sb10  1  0.89112010  0.98385732  0.45238599  1
  Sb  Sb11  1  0.11020805  0.97803469  0.54388527  1
  Sb  Sb12  1  0.03551611  0.51995947  0.81883725  1
  Sb  Sb13  1  0.96467824  0.50079201  0.18882924  1
  Sb  Sb14  1  0.39408358  0.49727409  0.45026716  1
  Sb  Sb15  1  0.60601672  0.46890851  0.54850908  1
  Sb  Sb16  1  0.53341384  0.98926423  0.80774537  1
  Sb  Sb17  1  0.46545977  0.02390122  0.19188685  1
  S  S18  1  0.93828589  0.00996278  0.80906491  1
  S  S19  1  0.06385738  0.97910948  0.19761803  1
  S  S20  1  0.42174129  0.95995114  0.99191131  1
  S  S21  1  0.58284933  0.03527143  0.01340884  1
  S  S22  1  0.17309765  0.05855215  0.90249646  1
  S  S23  1  0.82963704  0.05208803  0.10459364  1
  S  S24  1  0.09322026  0.49790335  0.64919627  1
  S  S25  1  0.91472947  0.48732477  0.35836462  1
  S  S26  1  0.73536921  0.96912681  0.29749622  1
  S  S27  1  0.26110081  0.00337782  0.70894935  1
  S  S28  1  0.16343401  0.51777499  0.43079457  1
  S  S29  1  0.82109632  0.48307627  0.54849835  1
  S  S30  1  0.43078389  0.48217253  0.79489887  1
  S  S31  1  0.55287238  0.51893154  0.17959296  1
  S  S32  1  0.91467008  0.48751369  0.98744713  1
  S  S33  1  0.08838087  0.49804345  0.03123675  1
  S  S34  1  0.66406542  0.54583768  0.88960022  1
  S  S35  1  0.32789440  0.50941987  0.09447958  1
  S  S36  1  0.59853493  0.00568371  0.65918281  1
  S  S37  1  0.40160677  0.98142954  0.34288324  1
  S  S38  1  0.24167326  0.47262208  0.31461448  1
  S  S39  1  0.76062349  0.51953369  0.68946409  1
  S  S40  1  0.66511283  0.00991680  0.44881534  1
  S  S41  1  0.33146645  0.98115137  0.55615449  1
