# generated using pymatgen
data_Pr2Mn3(SbS3)4
_symmetry_space_group_name_H-M   'P 1'
_cell_length_a   20.02960800
_cell_length_b   3.90410600
_cell_length_c   14.95364829
_cell_angle_alpha   90.00000000
_cell_angle_beta   126.33350609
_cell_angle_gamma   90.00000000
_symmetry_Int_Tables_number   1
_chemical_formula_structural   Pr2Mn3(SbS3)4
_chemical_formula_sum   'Pr4 Mn6 Sb8 S24'
_cell_volume   942.00006694
_cell_formula_units_Z   2
loop_
 _symmetry_equiv_pos_site_id
 _symmetry_equiv_pos_as_xyz
  1  'x, y, z'
loop_
 _atom_site_type_symbol
 _atom_site_label
 _atom_site_symmetry_multiplicity
 _atom_site_fract_x
 _atom_site_fract_y
 _atom_site_fract_z
 _atom_site_occupancy
  Pr  Pr0  1  0.26536930  0.52357626  0.86428244  1
  Pr  Pr1  1  0.72884519  0.53183919  0.13187851  1
  Pr  Pr2  1  0.76972496  0.95142820  0.88934471  1
  Pr  Pr3  1  0.24484496  0.00712441  0.14769016  1
  Mn  Mn4  1  0.27366199  0.55502629  0.58095336  1
  Mn  Mn5  1  0.69698689  0.46692807  0.37839528  1
  Mn  Mn6  1  0.00139711  0.94643814  0.00287926  1
  Mn  Mn7  1  0.79355789  0.99065287  0.60339162  1
  Mn  Mn8  1  0.20354529  0.95341656  0.41161955  1
  Mn  Mn9  1  0.49882860  0.49813903  0.00664640  1
  Sb  Sb10  1  0.89283211  0.00714262  0.44199771  1
  Sb  Sb11  1  0.10227413  0.03172394  0.55535005  1
  Sb  Sb12  1  0.03416403  0.54174648  0.80956094  1
  Sb  Sb13  1  0.96093187  0.49898682  0.18749642  1
  Sb  Sb14  1  0.39779260  0.49274515  0.46384969  1
  Sb  Sb15  1  0.61220948  0.44890510  0.57158397  1
  Sb  Sb16  1  0.53634899  0.00829276  0.82852408  1
  Sb  Sb17  1  0.46396537  0.00802664  0.18585820  1
  S  S18  1  0.92424000  0.03633042  0.78814865  1
  S  S19  1  0.05934850  0.98431677  0.18804728  1
  S  S20  1  0.41076389  0.96921776  0.98782453  1
  S  S21  1  0.58012059  0.01767267  0.02253493  1
  S  S22  1  0.16462161  0.99172577  0.89553539  1
  S  S23  1  0.83370519  0.02600953  0.12325464  1
  S  S24  1  0.10543029  0.50610580  0.66062669  1
  S  S25  1  0.88998350  0.49844560  0.33107378  1
  S  S26  1  0.73407666  0.97085121  0.31313141  1
  S  S27  1  0.26381103  0.95438986  0.68114425  1
  S  S28  1  0.15485940  0.43388039  0.43492558  1
  S  S29  1  0.81726763  0.41827183  0.53192386  1
  S  S30  1  0.44331947  0.49458517  0.81474211  1
  S  S31  1  0.56117391  0.46265168  0.18742751  1
  S  S32  1  0.91819790  0.48935527  0.98612453  1
  S  S33  1  0.08092978  0.52738051  0.00958795  1
  S  S34  1  0.67270941  0.47690508  0.91637082  1
  S  S35  1  0.33349346  0.42012512  0.10623386  1
  S  S36  1  0.60318623  0.95389947  0.67417218  1
  S  S37  1  0.41921030  0.96498777  0.36807148  1
  S  S38  1  0.25051707  0.45994931  0.30413111  1
  S  S39  1  0.75979950  0.40115363  0.68597141  1
  S  S40  1  0.66335036  0.98313531  0.43416894  1
  S  S41  1  0.32850837  0.04236618  0.55468980  1
