# generated using pymatgen
data_Pr2Mn3(SbS3)4
_symmetry_space_group_name_H-M   'P 1'
_cell_length_a   20.02960800
_cell_length_b   3.90410600
_cell_length_c   14.95364829
_cell_angle_alpha   90.00000000
_cell_angle_beta   126.33350609
_cell_angle_gamma   90.00000000
_symmetry_Int_Tables_number   1
_chemical_formula_structural   Pr2Mn3(SbS3)4
_chemical_formula_sum   'Pr4 Mn6 Sb8 S24'
_cell_volume   942.00006694
_cell_formula_units_Z   2
loop_
 _symmetry_equiv_pos_site_id
 _symmetry_equiv_pos_as_xyz
  1  'x, y, z'
loop_
 _atom_site_type_symbol
 _atom_site_label
 _atom_site_symmetry_multiplicity
 _atom_site_fract_x
 _atom_site_fract_y
 _atom_site_fract_z
 _atom_site_occupancy
  Pr  Pr0  1  0.26552925  0.52353370  0.86453939  1
  Pr  Pr1  1  0.72889831  0.53247021  0.13182787  1
  Pr  Pr2  1  0.76978023  0.95159476  0.88948736  1
  Pr  Pr3  1  0.24468032  0.00727672  0.14762283  1
  Mn  Mn4  1  0.27361697  0.55583125  0.58123319  1
  Mn  Mn5  1  0.69675536  0.46654791  0.37813809  1
  Mn  Mn6  1  0.00137595  0.94691005  0.00286388  1
  Mn  Mn7  1  0.79338894  0.99031253  0.60357749  1
  Mn  Mn8  1  0.20374054  0.95340991  0.41154272  1
  Mn  Mn9  1  0.49874009  0.49963797  0.00640247  1
  Sb  Sb10  1  0.89270383  0.00800641  0.44169261  1
  Sb  Sb11  1  0.10253623  0.03240990  0.55563018  1
  Sb  Sb12  1  0.03417295  0.54137915  0.80934942  1
  Sb  Sb13  1  0.96107828  0.49900958  0.18747433  1
  Sb  Sb14  1  0.39779792  0.49265447  0.46409972  1
  Sb  Sb15  1  0.61213982  0.44866489  0.57171601  1
  Sb  Sb16  1  0.53621159  0.00787310  0.82822867  1
  Sb  Sb17  1  0.46402128  0.00800864  0.18586803  1
  S  S18  1  0.92416013  0.03577575  0.78765406  1
  S  S19  1  0.05934814  0.98386967  0.18810531  1
  S  S20  1  0.41088540  0.97090325  0.98798511  1
  S  S21  1  0.57993691  0.01848510  0.02246867  1
  S  S22  1  0.16451116  0.99250478  0.89526214  1
  S  S23  1  0.83366421  0.02496235  0.12313335  1
  S  S24  1  0.10530197  0.50723790  0.66057670  1
  S  S25  1  0.88966310  0.49758181  0.33099719  1
  S  S26  1  0.73378028  0.96986856  0.31309856  1
  S  S27  1  0.26360219  0.95428222  0.68086932  1
  S  S28  1  0.15508615  0.43332393  0.43482901  1
  S  S29  1  0.81736898  0.41919731  0.53218041  1
  S  S30  1  0.44326288  0.49587224  0.81463815  1
  S  S31  1  0.56111671  0.46248894  0.18692349  1
  S  S32  1  0.91806971  0.48883872  0.98583773  1
  S  S33  1  0.08093990  0.52974675  0.00995421  1
  S  S34  1  0.67264422  0.47689502  0.91606262  1
  S  S35  1  0.33387591  0.42030293  0.10606092  1
  S  S36  1  0.60318959  0.95413753  0.67435575  1
  S  S37  1  0.41960714  0.96379238  0.36856329  1
  S  S38  1  0.25045879  0.46007331  0.30392208  1
  S  S39  1  0.75990218  0.39962784  0.68562828  1
  S  S40  1  0.66345683  0.98202567  0.43446002  1
  S  S41  1  0.32874399  0.04290970  0.55492407  1
