# generated using pymatgen
data_Pr2Mn3(SbS3)4
_symmetry_space_group_name_H-M   'P 1'
_cell_length_a   20.02960800
_cell_length_b   3.90410600
_cell_length_c   14.95364829
_cell_angle_alpha   90.00000000
_cell_angle_beta   126.33350609
_cell_angle_gamma   90.00000000
_symmetry_Int_Tables_number   1
_chemical_formula_structural   Pr2Mn3(SbS3)4
_chemical_formula_sum   'Pr4 Mn6 Sb8 S24'
_cell_volume   942.00006694
_cell_formula_units_Z   2
loop_
 _symmetry_equiv_pos_site_id
 _symmetry_equiv_pos_as_xyz
  1  'x, y, z'
loop_
 _atom_site_type_symbol
 _atom_site_label
 _atom_site_symmetry_multiplicity
 _atom_site_fract_x
 _atom_site_fract_y
 _atom_site_fract_z
 _atom_site_occupancy
  Pr  Pr0  1  0.26566733  0.52372145  0.86481691  1
  Pr  Pr1  1  0.72893995  0.53305324  0.13177413  1
  Pr  Pr2  1  0.76982416  0.95183447  0.88965629  1
  Pr  Pr3  1  0.24450680  0.00733665  0.14760349  1
  Mn  Mn4  1  0.27353245  0.55693498  0.58139759  1
  Mn  Mn5  1  0.69659064  0.46632874  0.37799270  1
  Mn  Mn6  1  0.00133045  0.94681616  0.00274687  1
  Mn  Mn7  1  0.79318923  0.99001756  0.60361866  1
  Mn  Mn8  1  0.20374250  0.95313012  0.41124592  1
  Mn  Mn9  1  0.49868209  0.50119013  0.00621870  1
  Sb  Sb10  1  0.89259877  0.00880839  0.44145701  1
  Sb  Sb11  1  0.10268171  0.03273731  0.55579549  1
  Sb  Sb12  1  0.03419617  0.54103646  0.80910148  1
  Sb  Sb13  1  0.96121782  0.49897811  0.18747878  1
  Sb  Sb14  1  0.39778089  0.49245377  0.46431891  1
  Sb  Sb15  1  0.61211846  0.44845359  0.57196306  1
  Sb  Sb16  1  0.53604259  0.00743650  0.82788971  1
  Sb  Sb17  1  0.46412761  0.00787226  0.18593371  1
  S  S18  1  0.92408008  0.03513289  0.78718584  1
  S  S19  1  0.05927134  0.98327957  0.18813984  1
  S  S20  1  0.41106116  0.97298474  0.98819190  1
  S  S21  1  0.57986278  0.01880914  0.02240648  1
  S  S22  1  0.16450104  0.99277507  0.89490785  1
  S  S23  1  0.83358082  0.02459989  0.12292712  1
  S  S24  1  0.10506281  0.50802936  0.66046108  1
  S  S25  1  0.88933393  0.49745342  0.33084325  1
  S  S26  1  0.73347309  0.96944366  0.31310541  1
  S  S27  1  0.26335178  0.95424867  0.68053777  1
  S  S28  1  0.15536978  0.43344872  0.43470042  1
  S  S29  1  0.81740777  0.41996860  0.53232530  1
  S  S30  1  0.44322102  0.49644098  0.81458347  1
  S  S31  1  0.56091357  0.46202414  0.18648238  1
  S  S32  1  0.91793486  0.48800713  0.98563851  1
  S  S33  1  0.08092900  0.53164670  0.01034869  1
  S  S34  1  0.67246721  0.47704235  0.91586083  1
  S  S35  1  0.33427429  0.42054122  0.10592910  1
  S  S36  1  0.60318422  0.95433396  0.67468440  1
  S  S37  1  0.41998766  0.96322243  0.36908010  1
  S  S38  1  0.25053444  0.46014911  0.30375959  1
  S  S39  1  0.75998107  0.39766724  0.68530946  1
  S  S40  1  0.66346732  0.98061683  0.43467542  1
  S  S41  1  0.32889187  0.04364725  0.55500464  1
