# generated using pymatgen
data_Pr2Mn3(SbS3)4
_symmetry_space_group_name_H-M   'P 1'
_cell_length_a   20.02960800
_cell_length_b   3.90410600
_cell_length_c   14.95364829
_cell_angle_alpha   90.00000000
_cell_angle_beta   126.33350609
_cell_angle_gamma   90.00000000
_symmetry_Int_Tables_number   1
_chemical_formula_structural   Pr2Mn3(SbS3)4
_chemical_formula_sum   'Pr4 Mn6 Sb8 S24'
_cell_volume   942.00006694
_cell_formula_units_Z   2
loop_
 _symmetry_equiv_pos_site_id
 _symmetry_equiv_pos_as_xyz
  1  'x, y, z'
loop_
 _atom_site_type_symbol
 _atom_site_label
 _atom_site_symmetry_multiplicity
 _atom_site_fract_x
 _atom_site_fract_y
 _atom_site_fract_z
 _atom_site_occupancy
  Pr  Pr0  1  0.26574191  0.52404205  0.86511279  1
  Pr  Pr1  1  0.72903513  0.53363106  0.13183061  1
  Pr  Pr2  1  0.76992923  0.95218462  0.88989065  1
  Pr  Pr3  1  0.24439570  0.00723793  0.14761542  1
  Mn  Mn4  1  0.27348380  0.55754360  0.58163497  1
  Mn  Mn5  1  0.69651591  0.46661929  0.37814079  1
  Mn  Mn6  1  0.00131468  0.94698973  0.00276614  1
  Mn  Mn7  1  0.79306293  0.98967963  0.60353549  1
  Mn  Mn8  1  0.20365599  0.95334515  0.41086602  1
  Mn  Mn9  1  0.49849439  0.50274043  0.00600276  1
  Sb  Sb10  1  0.89242312  0.00930772  0.44121693  1
  Sb  Sb11  1  0.10280688  0.03314673  0.55599580  1
  Sb  Sb12  1  0.03413635  0.54075781  0.80888178  1
  Sb  Sb13  1  0.96136447  0.49877921  0.18750839  1
  Sb  Sb14  1  0.39772519  0.49217672  0.46446585  1
  Sb  Sb15  1  0.61205190  0.44845790  0.57203404  1
  Sb  Sb16  1  0.53583775  0.00694552  0.82771100  1
  Sb  Sb17  1  0.46433842  0.00758938  0.18610738  1
  S  S18  1  0.92396543  0.03428207  0.78691517  1
  S  S19  1  0.05901248  0.98253779  0.18814349  1
  S  S20  1  0.41115193  0.97518411  0.98826994  1
  S  S21  1  0.57968138  0.01950326  0.02238421  1
  S  S22  1  0.16446806  0.99228746  0.89467824  1
  S  S23  1  0.83362103  0.02370276  0.12294359  1
  S  S24  1  0.10474151  0.50878430  0.66033172  1
  S  S25  1  0.88891477  0.49784363  0.33058955  1
  S  S26  1  0.73302262  0.96853919  0.31274066  1
  S  S27  1  0.26310379  0.95423343  0.68037813  1
  S  S28  1  0.15562049  0.43424150  0.43471682  1
  S  S29  1  0.81757147  0.42006345  0.53252041  1
  S  S30  1  0.44328206  0.49664017  0.81472530  1
  S  S31  1  0.56102372  0.46200061  0.18637255  1
  S  S32  1  0.91781619  0.48681817  0.98549065  1
  S  S33  1  0.08081663  0.53403413  0.01059583  1
  S  S34  1  0.67216934  0.47732279  0.91549524  1
  S  S35  1  0.33470767  0.42018868  0.10581420  1
  S  S36  1  0.60317810  0.95459181  0.67478018  1
  S  S37  1  0.42027859  0.96330511  0.36945011  1
  S  S38  1  0.25082998  0.46029108  0.30375615  1
  S  S39  1  0.76012662  0.39562302  0.68494022  1
  S  S40  1  0.66355320  0.97925010  0.43484418  1
  S  S41  1  0.32903985  0.04438627  0.55503818  1
