# generated using pymatgen
data_Pr2Mn3(SbS3)4
_symmetry_space_group_name_H-M   'P 1'
_cell_length_a   20.02960800
_cell_length_b   3.90410600
_cell_length_c   14.95364829
_cell_angle_alpha   90.00000000
_cell_angle_beta   126.33350609
_cell_angle_gamma   90.00000000
_symmetry_Int_Tables_number   1
_chemical_formula_structural   Pr2Mn3(SbS3)4
_chemical_formula_sum   'Pr4 Mn6 Sb8 S24'
_cell_volume   942.00006694
_cell_formula_units_Z   2
loop_
 _symmetry_equiv_pos_site_id
 _symmetry_equiv_pos_as_xyz
  1  'x, y, z'
loop_
 _atom_site_type_symbol
 _atom_site_label
 _atom_site_symmetry_multiplicity
 _atom_site_fract_x
 _atom_site_fract_y
 _atom_site_fract_z
 _atom_site_occupancy
  Pr  Pr0  1  0.26580474  0.52422409  0.86536334  1
  Pr  Pr1  1  0.72912875  0.53452112  0.13182111  1
  Pr  Pr2  1  0.76999705  0.95254272  0.89008223  1
  Pr  Pr3  1  0.24433480  0.00696577  0.14772477  1
  Mn  Mn4  1  0.27343971  0.55814807  0.58178125  1
  Mn  Mn5  1  0.69648040  0.46674819  0.37834946  1
  Mn  Mn6  1  0.00133567  0.94750485  0.00281461  1
  Mn  Mn7  1  0.79291316  0.98953292  0.60337608  1
  Mn  Mn8  1  0.20342890  0.95312879  0.41036817  1
  Mn  Mn9  1  0.49825472  0.50415861  0.00571107  1
  Sb  Sb10  1  0.89221884  0.00964979  0.44104531  1
  Sb  Sb11  1  0.10297917  0.03313312  0.55622618  1
  Sb  Sb12  1  0.03408036  0.54043769  0.80865283  1
  Sb  Sb13  1  0.96154728  0.49866027  0.18758296  1
  Sb  Sb14  1  0.39776966  0.49157607  0.46467817  1
  Sb  Sb15  1  0.61192168  0.44862646  0.57203510  1
  Sb  Sb16  1  0.53577551  0.00605786  0.82765205  1
  Sb  Sb17  1  0.46453391  0.00740327  0.18631096  1
  S  S18  1  0.92384765  0.03263635  0.78670771  1
  S  S19  1  0.05872630  0.98187528  0.18814311  1
  S  S20  1  0.41137757  0.97737447  0.98834950  1
  S  S21  1  0.57947721  0.02111435  0.02250052  1
  S  S22  1  0.16438820  0.99184044  0.89446267  1
  S  S23  1  0.83357647  0.02297242  0.12278537  1
  S  S24  1  0.10457335  0.50955545  0.66025917  1
  S  S25  1  0.88851225  0.49789311  0.33030517  1
  S  S26  1  0.73272747  0.96766954  0.31248540  1
  S  S27  1  0.26278325  0.95435748  0.68011168  1
  S  S28  1  0.15569367  0.43444254  0.43471488  1
  S  S29  1  0.81771786  0.41974571  0.53257361  1
  S  S30  1  0.44317786  0.49668645  0.81483242  1
  S  S31  1  0.56106738  0.46181727  0.18616779  1
  S  S32  1  0.91779526  0.48568231  0.98534007  1
  S  S33  1  0.08066354  0.53691726  0.01079358  1
  S  S34  1  0.67187070  0.47697298  0.91500677  1
  S  S35  1  0.33520724  0.41990695  0.10570185  1
  S  S36  1  0.60316381  0.95430294  0.67488175  1
  S  S37  1  0.42057753  0.96318901  0.36997308  1
  S  S38  1  0.25096055  0.45993482  0.30377607  1
  S  S39  1  0.76038852  0.39385677  0.68477588  1
  S  S40  1  0.66367845  0.97779176  0.43509900  1
  S  S41  1  0.32921162  0.04503316  0.55509852  1
