# generated using pymatgen
data_Pr2Mn3(SbS3)4
_symmetry_space_group_name_H-M   'P 1'
_cell_length_a   20.02960800
_cell_length_b   3.90410600
_cell_length_c   14.95364829
_cell_angle_alpha   90.00000000
_cell_angle_beta   126.33350609
_cell_angle_gamma   90.00000000
_symmetry_Int_Tables_number   1
_chemical_formula_structural   Pr2Mn3(SbS3)4
_chemical_formula_sum   'Pr4 Mn6 Sb8 S24'
_cell_volume   942.00006694
_cell_formula_units_Z   2
loop_
 _symmetry_equiv_pos_site_id
 _symmetry_equiv_pos_as_xyz
  1  'x, y, z'
loop_
 _atom_site_type_symbol
 _atom_site_label
 _atom_site_symmetry_multiplicity
 _atom_site_fract_x
 _atom_site_fract_y
 _atom_site_fract_z
 _atom_site_occupancy
  Pr  Pr0  1  0.26583600  0.52439714  0.86559465  1
  Pr  Pr1  1  0.72925201  0.53547426  0.13183889  1
  Pr  Pr2  1  0.77001987  0.95297777  0.89018956  1
  Pr  Pr3  1  0.24428968  0.00675794  0.14785566  1
  Mn  Mn4  1  0.27334666  0.55852824  0.58181569  1
  Mn  Mn5  1  0.69649116  0.46698010  0.37854763  1
  Mn  Mn6  1  0.00134386  0.94801815  0.00282846  1
  Mn  Mn7  1  0.79266208  0.98944320  0.60318755  1
  Mn  Mn8  1  0.20322234  0.95300901  0.40993747  1
  Mn  Mn9  1  0.49799871  0.50604912  0.00534404  1
  Sb  Sb10  1  0.89198977  0.01001216  0.44089921  1
  Sb  Sb11  1  0.10316216  0.03280514  0.55642962  1
  Sb  Sb12  1  0.03405009  0.54001382  0.80849813  1
  Sb  Sb13  1  0.96171686  0.49859526  0.18768155  1
  Sb  Sb14  1  0.39783354  0.49108395  0.46484711  1
  Sb  Sb15  1  0.61181279  0.44880917  0.57203932  1
  Sb  Sb16  1  0.53568982  0.00527910  0.82754125  1
  Sb  Sb17  1  0.46470593  0.00717340  0.18654465  1
  S  S18  1  0.92375755  0.03157588  0.78652591  1
  S  S19  1  0.05863601  0.98096886  0.18816655  1
  S  S20  1  0.41168675  0.97958437  0.98861453  1
  S  S21  1  0.57933743  0.02265517  0.02259282  1
  S  S22  1  0.16424693  0.99156519  0.89415553  1
  S  S23  1  0.83348953  0.02198832  0.12255514  1
  S  S24  1  0.10459670  0.51089050  0.66036235  1
  S  S25  1  0.88824707  0.49738742  0.33010188  1
  S  S26  1  0.73247671  0.96717551  0.31225569  1
  S  S27  1  0.26247150  0.95395578  0.68006482  1
  S  S28  1  0.15581948  0.43494545  0.43475534  1
  S  S29  1  0.81767051  0.41965771  0.53247394  1
  S  S30  1  0.44323287  0.49741953  0.81499359  1
  S  S31  1  0.56114041  0.46150996  0.18605736  1
  S  S32  1  0.91783697  0.48539012  0.98514116  1
  S  S33  1  0.08067593  0.53955286  0.01103054  1
  S  S34  1  0.67166778  0.47688327  0.91443415  1
  S  S35  1  0.33570960  0.41978597  0.10558212  1
  S  S36  1  0.60304531  0.95396431  0.67502085  1
  S  S37  1  0.42074865  0.96295096  0.37035077  1
  S  S38  1  0.25112215  0.46017069  0.30390533  1
  S  S39  1  0.76082898  0.39303606  0.68485292  1
  S  S40  1  0.66379576  0.97673748  0.43543029  1
  S  S41  1  0.32938463  0.04533639  0.55526258  1
