# generated using pymatgen
data_Pr2Mn3(SbS3)4
_symmetry_space_group_name_H-M   'P 1'
_cell_length_a   20.02960800
_cell_length_b   3.90410600
_cell_length_c   14.95364829
_cell_angle_alpha   90.00000000
_cell_angle_beta   126.33350609
_cell_angle_gamma   90.00000000
_symmetry_Int_Tables_number   1
_chemical_formula_structural   Pr2Mn3(SbS3)4
_chemical_formula_sum   'Pr4 Mn6 Sb8 S24'
_cell_volume   942.00006694
_cell_formula_units_Z   2
loop_
 _symmetry_equiv_pos_site_id
 _symmetry_equiv_pos_as_xyz
  1  'x, y, z'
loop_
 _atom_site_type_symbol
 _atom_site_label
 _atom_site_symmetry_multiplicity
 _atom_site_fract_x
 _atom_site_fract_y
 _atom_site_fract_z
 _atom_site_occupancy
  Pr  Pr0  1  0.26582682  0.52464242  0.86572366  1
  Pr  Pr1  1  0.72933300  0.53663574  0.13183930  1
  Pr  Pr2  1  0.77000733  0.95355252  0.89034676  1
  Pr  Pr3  1  0.24432290  0.00642064  0.14796329  1
  Mn  Mn4  1  0.27319603  0.55868894  0.58193820  1
  Mn  Mn5  1  0.69649469  0.46686615  0.37878235  1
  Mn  Mn6  1  0.00140662  0.94840746  0.00302065  1
  Mn  Mn7  1  0.79242009  0.98950641  0.60300242  1
  Mn  Mn8  1  0.20283566  0.95273011  0.40939223  1
  Mn  Mn9  1  0.49786712  0.50820357  0.00508216  1
  Sb  Sb10  1  0.89180761  0.01022897  0.44065180  1
  Sb  Sb11  1  0.10335176  0.03255070  0.55659454  1
  Sb  Sb12  1  0.03408333  0.53946305  0.80829200  1
  Sb  Sb13  1  0.96191135  0.49825896  0.18778468  1
  Sb  Sb14  1  0.39782941  0.49028252  0.46496160  1
  Sb  Sb15  1  0.61169903  0.44889624  0.57201171  1
  Sb  Sb16  1  0.53552347  0.00461176  0.82735112  1
  Sb  Sb17  1  0.46485391  0.00710041  0.18678134  1
  S  S18  1  0.92351324  0.03046892  0.78605797  1
  S  S19  1  0.05847711  0.97989525  0.18802072  1
  S  S20  1  0.41200931  0.98102297  0.98880640  1
  S  S21  1  0.57926523  0.02415722  0.02261453  1
  S  S22  1  0.16411437  0.99102542  0.89381944  1
  S  S23  1  0.83345429  0.02194721  0.12227328  1
  S  S24  1  0.10475299  0.51207247  0.66055708  1
  S  S25  1  0.88802159  0.49656354  0.32993746  1
  S  S26  1  0.73228813  0.96675193  0.31211238  1
  S  S27  1  0.26238561  0.95381856  0.68019583  1
  S  S28  1  0.15616094  0.43548085  0.43499932  1
  S  S29  1  0.81770490  0.41946633  0.53228244  1
  S  S30  1  0.44326761  0.49842864  0.81525105  1
  S  S31  1  0.56107997  0.46223587  0.18592711  1
  S  S32  1  0.91782438  0.48524026  0.98483569  1
  S  S33  1  0.08074847  0.54158353  0.01139497  1
  S  S34  1  0.67144884  0.47716425  0.91381610  1
  S  S35  1  0.33603489  0.41956628  0.10535543  1
  S  S36  1  0.60300636  0.95369857  0.67504490  1
  S  S37  1  0.42099514  0.96259752  0.37086734  1
  S  S38  1  0.25131293  0.46053132  0.30402549  1
  S  S39  1  0.76107821  0.39224720  0.68497694  1
  S  S40  1  0.66393386  0.97598504  0.43569193  1
  S  S41  1  0.32973361  0.04504613  0.55555864  1
