# generated using pymatgen
data_Pr2Mn3(SbS3)4
_symmetry_space_group_name_H-M   'P 1'
_cell_length_a   20.02960800
_cell_length_b   3.90410600
_cell_length_c   14.95364829
_cell_angle_alpha   90.00000000
_cell_angle_beta   126.33350609
_cell_angle_gamma   90.00000000
_symmetry_Int_Tables_number   1
_chemical_formula_structural   Pr2Mn3(SbS3)4
_chemical_formula_sum   'Pr4 Mn6 Sb8 S24'
_cell_volume   942.00006694
_cell_formula_units_Z   2
loop_
 _symmetry_equiv_pos_site_id
 _symmetry_equiv_pos_as_xyz
  1  'x, y, z'
loop_
 _atom_site_type_symbol
 _atom_site_label
 _atom_site_symmetry_multiplicity
 _atom_site_fract_x
 _atom_site_fract_y
 _atom_site_fract_z
 _atom_site_occupancy
  Pr  Pr0  1  0.26579080  0.52495381  0.86579567  1
  Pr  Pr1  1  0.72937481  0.53783097  0.13178157  1
  Pr  Pr2  1  0.76992994  0.95415522  0.89049267  1
  Pr  Pr3  1  0.24431472  0.00596339  0.14804628  1
  Mn  Mn4  1  0.27303940  0.55891866  0.58198573  1
  Mn  Mn5  1  0.69643726  0.46690730  0.37894748  1
  Mn  Mn6  1  0.00141411  0.94874182  0.00324821  1
  Mn  Mn7  1  0.79221754  0.98907343  0.60287338  1
  Mn  Mn8  1  0.20246009  0.95246504  0.40893522  1
  Mn  Mn9  1  0.49776913  0.51015211  0.00485130  1
  Sb  Sb10  1  0.89159672  0.01008343  0.44033515  1
  Sb  Sb11  1  0.10347231  0.03256728  0.55665087  1
  Sb  Sb12  1  0.03414807  0.53922927  0.80814668  1
  Sb  Sb13  1  0.96216160  0.49816467  0.18796961  1
  Sb  Sb14  1  0.39791576  0.48969106  0.46525464  1
  Sb  Sb15  1  0.61163202  0.44883242  0.57190095  1
  Sb  Sb16  1  0.53533188  0.00372153  0.82718324  1
  Sb  Sb17  1  0.46502692  0.00738121  0.18698014  1
  S  S18  1  0.92315414  0.02966625  0.78557221  1
  S  S19  1  0.05831122  0.97937033  0.18788802  1
  S  S20  1  0.41232027  0.98225787  0.98895286  1
  S  S21  1  0.57919046  0.02546721  0.02258803  1
  S  S22  1  0.16411344  0.99015560  0.89362471  1
  S  S23  1  0.83332728  0.02165283  0.12179248  1
  S  S24  1  0.10489035  0.51322845  0.66076683  1
  S  S25  1  0.88757836  0.49563833  0.32965549  1
  S  S26  1  0.73211054  0.96600380  0.31198960  1
  S  S27  1  0.26205867  0.95352419  0.68009782  1
  S  S28  1  0.15652589  0.43562181  0.43534618  1
  S  S29  1  0.81784105  0.41933799  0.53229650  1
  S  S30  1  0.44327567  0.50026215  0.81538068  1
  S  S31  1  0.56134106  0.46356290  0.18610846  1
  S  S32  1  0.91773160  0.48523693  0.98443164  1
  S  S33  1  0.08092149  0.54323584  0.01194017  1
  S  S34  1  0.67126115  0.47714174  0.91329316  1
  S  S35  1  0.33635787  0.41968048  0.10525013  1
  S  S36  1  0.60311047  0.95340632  0.67514575  1
  S  S37  1  0.42115191  0.96192627  0.37129409  1
  S  S38  1  0.25159087  0.46071955  0.30423540  1
  S  S39  1  0.76125185  0.39204979  0.68504854  1
  S  S40  1  0.66411435  0.97538968  0.43597098  1
  S  S41  1  0.33010993  0.04439185  0.55595011  1
