# generated using pymatgen
data_Pr2Mn3(SbS3)4
_symmetry_space_group_name_H-M   'P 1'
_cell_length_a   20.02960800
_cell_length_b   3.90410600
_cell_length_c   14.95364829
_cell_angle_alpha   90.00000000
_cell_angle_beta   126.33350609
_cell_angle_gamma   90.00000000
_symmetry_Int_Tables_number   1
_chemical_formula_structural   Pr2Mn3(SbS3)4
_chemical_formula_sum   'Pr4 Mn6 Sb8 S24'
_cell_volume   942.00006694
_cell_formula_units_Z   2
loop_
 _symmetry_equiv_pos_site_id
 _symmetry_equiv_pos_as_xyz
  1  'x, y, z'
loop_
 _atom_site_type_symbol
 _atom_site_label
 _atom_site_symmetry_multiplicity
 _atom_site_fract_x
 _atom_site_fract_y
 _atom_site_fract_z
 _atom_site_occupancy
  Pr  Pr0  1  0.26576159  0.52543077  0.86590861  1
  Pr  Pr1  1  0.72940889  0.53909538  0.13174677  1
  Pr  Pr2  1  0.76994682  0.95432506  0.89074300  1
  Pr  Pr3  1  0.24434233  0.00544726  0.14816573  1
  Mn  Mn4  1  0.27289498  0.55921536  0.58206529  1
  Mn  Mn5  1  0.69634701  0.46674218  0.37911539  1
  Mn  Mn6  1  0.00129605  0.94887177  0.00335455  1
  Mn  Mn7  1  0.79197369  0.98848106  0.60246839  1
  Mn  Mn8  1  0.20214760  0.95197515  0.40847705  1
  Mn  Mn9  1  0.49773275  0.51193575  0.00462943  1
  Sb  Sb10  1  0.89128924  0.01005969  0.43991042  1
  Sb  Sb11  1  0.10360157  0.03270206  0.55668550  1
  Sb  Sb12  1  0.03420301  0.53935853  0.80804017  1
  Sb  Sb13  1  0.96244567  0.49820343  0.18821624  1
  Sb  Sb14  1  0.39792574  0.48912786  0.46541748  1
  Sb  Sb15  1  0.61154820  0.44911846  0.57186948  1
  Sb  Sb16  1  0.53524902  0.00308799  0.82701113  1
  Sb  Sb17  1  0.46520604  0.00765170  0.18711107  1
  S  S18  1  0.92290724  0.02849066  0.78533357  1
  S  S19  1  0.05818949  0.97867778  0.18790676  1
  S  S20  1  0.41255925  0.98324403  0.98894792  1
  S  S21  1  0.57891606  0.02675442  0.02238099  1
  S  S22  1  0.16422238  0.98947849  0.89352035  1
  S  S23  1  0.83338468  0.02121440  0.12140303  1
  S  S24  1  0.10505334  0.51490105  0.66114024  1
  S  S25  1  0.88711921  0.49446058  0.32939088  1
  S  S26  1  0.73180546  0.96527806  0.31193133  1
  S  S27  1  0.26164060  0.95377081  0.68013962  1
  S  S28  1  0.15697056  0.43558897  0.43571617  1
  S  S29  1  0.81786139  0.41957201  0.53202365  1
  S  S30  1  0.44334650  0.50215039  0.81568927  1
  S  S31  1  0.56161051  0.46420970  0.18622032  1
  S  S32  1  0.91765976  0.48543732  0.98396648  1
  S  S33  1  0.08096645  0.54529041  0.01239322  1
  S  S34  1  0.67106548  0.47714255  0.91270861  1
  S  S35  1  0.33661985  0.42020331  0.10512035  1
  S  S36  1  0.60319210  0.95303171  0.67511006  1
  S  S37  1  0.42150053  0.96164288  0.37184812  1
  S  S38  1  0.25182448  0.46097700  0.30445835  1
  S  S39  1  0.76153638  0.39228263  0.68502691  1
  S  S40  1  0.66429278  0.97465237  0.43654166  1
  S  S41  1  0.33045903  0.04376333  0.55643220  1
