# generated using pymatgen
data_Pr2Mn3(SbS3)4
_symmetry_space_group_name_H-M   'P 1'
_cell_length_a   20.02960800
_cell_length_b   3.90410600
_cell_length_c   14.95364829
_cell_angle_alpha   90.00000000
_cell_angle_beta   126.33350609
_cell_angle_gamma   90.00000000
_symmetry_Int_Tables_number   1
_chemical_formula_structural   Pr2Mn3(SbS3)4
_chemical_formula_sum   'Pr4 Mn6 Sb8 S24'
_cell_volume   942.00006694
_cell_formula_units_Z   2
loop_
 _symmetry_equiv_pos_site_id
 _symmetry_equiv_pos_as_xyz
  1  'x, y, z'
loop_
 _atom_site_type_symbol
 _atom_site_label
 _atom_site_symmetry_multiplicity
 _atom_site_fract_x
 _atom_site_fract_y
 _atom_site_fract_z
 _atom_site_occupancy
  Pr  Pr0  1  0.26573956  0.52578788  0.86602507  1
  Pr  Pr1  1  0.72941995  0.54007509  0.13163168  1
  Pr  Pr2  1  0.76991750  0.95492650  0.89087909  1
  Pr  Pr3  1  0.24425752  0.00497023  0.14815256  1
  Mn  Mn4  1  0.27276086  0.55948412  0.58227249  1
  Mn  Mn5  1  0.69621164  0.46619493  0.37932474  1
  Mn  Mn6  1  0.00119956  0.94900088  0.00352581  1
  Mn  Mn7  1  0.79191088  0.98768829  0.60222166  1
  Mn  Mn8  1  0.20180831  0.95159477  0.40805064  1
  Mn  Mn9  1  0.49776111  0.51303829  0.00448059  1
  Sb  Sb10  1  0.89108111  0.01021578  0.43961367  1
  Sb  Sb11  1  0.10376155  0.03288563  0.55676365  1
  Sb  Sb12  1  0.03419405  0.53944979  0.80798535  1
  Sb  Sb13  1  0.96260838  0.49836352  0.18834731  1
  Sb  Sb14  1  0.39796919  0.48837734  0.46557193  1
  Sb  Sb15  1  0.61144646  0.44921659  0.57181042  1
  Sb  Sb16  1  0.53517829  0.00244199  0.82683798  1
  Sb  Sb17  1  0.46525173  0.00760838  0.18716064  1
  S  S18  1  0.92271455  0.02677905  0.78515165  1
  S  S19  1  0.05798310  0.97863267  0.18785738  1
  S  S20  1  0.41262052  0.98413952  0.98889476  1
  S  S21  1  0.57863995  0.02763208  0.02215441  1
  S  S22  1  0.16427696  0.98919938  0.89350656  1
  S  S23  1  0.83346847  0.02092933  0.12104713  1
  S  S24  1  0.10515087  0.51659160  0.66125776  1
  S  S25  1  0.88673321  0.49311923  0.32916507  1
  S  S26  1  0.73135661  0.96498602  0.31181855  1
  S  S27  1  0.26110249  0.95357263  0.67993980  1
  S  S28  1  0.15736669  0.43606423  0.43608341  1
  S  S29  1  0.81792095  0.42049281  0.53175834  1
  S  S30  1  0.44333017  0.50431767  0.81583779  1
  S  S31  1  0.56188372  0.46506415  0.18639241  1
  S  S32  1  0.91771786  0.48523037  0.98364439  1
  S  S33  1  0.08095077  0.54711337  0.01275282  1
  S  S34  1  0.67099513  0.47758713  0.91219936  1
  S  S35  1  0.33678060  0.42089204  0.10500874  1
  S  S36  1  0.60315785  0.95319958  0.67495618  1
  S  S37  1  0.42185262  0.96203859  0.37234914  1
  S  S38  1  0.25204677  0.46157139  0.30473112  1
  S  S39  1  0.76176953  0.39184458  0.68496790  1
  S  S40  1  0.66444661  0.97384080  0.43712804  1
  S  S41  1  0.33088117  0.04297069  0.55709662  1
