# generated using pymatgen
data_Pr2Mn3(SbS3)4
_symmetry_space_group_name_H-M   'P 1'
_cell_length_a   20.02960800
_cell_length_b   3.90410600
_cell_length_c   14.95364829
_cell_angle_alpha   90.00000000
_cell_angle_beta   126.33350609
_cell_angle_gamma   90.00000000
_symmetry_Int_Tables_number   1
_chemical_formula_structural   Pr2Mn3(SbS3)4
_chemical_formula_sum   'Pr4 Mn6 Sb8 S24'
_cell_volume   942.00006694
_cell_formula_units_Z   2
loop_
 _symmetry_equiv_pos_site_id
 _symmetry_equiv_pos_as_xyz
  1  'x, y, z'
loop_
 _atom_site_type_symbol
 _atom_site_label
 _atom_site_symmetry_multiplicity
 _atom_site_fract_x
 _atom_site_fract_y
 _atom_site_fract_z
 _atom_site_occupancy
  Pr  Pr0  1  0.26868964  0.49952114  0.86593103  1
  Pr  Pr1  1  0.73421179  0.50925160  0.13386028  1
  Pr  Pr2  1  0.76340407  0.01981154  0.86113496  1
  Pr  Pr3  1  0.23417641  0.99671993  0.13246597  1
  Mn  Mn4  1  0.29196302  0.47239254  0.59420269  1
  Mn  Mn5  1  0.68514799  0.46736308  0.36511079  1
  Mn  Mn6  1  0.00743063  0.99505672  0.01541216  1
  Mn  Mn7  1  0.80168874  0.01172490  0.61994673  1
  Mn  Mn8  1  0.19830478  0.97557519  0.37253819  1
  Mn  Mn9  1  0.48907023  0.46626848  0.98902941  1
  Sb  Sb10  1  0.89101378  0.98380204  0.45231700  1
  Sb  Sb11  1  0.11013563  0.97796017  0.54382848  1
  Sb  Sb12  1  0.03541632  0.51996148  0.81878796  1
  Sb  Sb13  1  0.96471254  0.50050979  0.18886477  1
  Sb  Sb14  1  0.39397816  0.49732677  0.45013935  1
  Sb  Sb15  1  0.60590321  0.46930273  0.54839973  1
  Sb  Sb16  1  0.53337157  0.98868098  0.80783709  1
  Sb  Sb17  1  0.46537262  0.02367786  0.19177177  1
  S  S18  1  0.93826952  0.01142293  0.80869457  1
  S  S19  1  0.06391522  0.97931508  0.19757853  1
  S  S20  1  0.42163926  0.95998761  0.99210698  1
  S  S21  1  0.58273564  0.03533473  0.01313456  1
  S  S22  1  0.17317288  0.05780062  0.90232843  1
  S  S23  1  0.82958335  0.05228778  0.10453347  1
  S  S24  1  0.09269905  0.49866539  0.64887244  1
  S  S25  1  0.91463083  0.48717427  0.35816392  1
  S  S26  1  0.73532000  0.97014903  0.29741012  1
  S  S27  1  0.26102233  0.00274563  0.70913348  1
  S  S28  1  0.16354268  0.51823477  0.43065184  1
  S  S29  1  0.82072476  0.48251747  0.54831225  1
  S  S30  1  0.43089595  0.48165671  0.79494893  1
  S  S31  1  0.55298568  0.51873564  0.17972490  1
  S  S32  1  0.91491949  0.48728103  0.98772542  1
  S  S33  1  0.08829735  0.49823616  0.03133235  1
  S  S34  1  0.66418299  0.54589054  0.88995526  1
  S  S35  1  0.32756528  0.50896609  0.09410672  1
  S  S36  1  0.59832943  0.00548981  0.65893343  1
  S  S37  1  0.40135745  0.98153811  0.34290154  1
  S  S38  1  0.24189426  0.47232259  0.31509862  1
  S  S39  1  0.76042160  0.52055539  0.68911614  1
  S  S40  1  0.66522773  0.00914522  0.44915271  1
  S  S41  1  0.33138445  0.98257964  0.55599517  1
