# generated using pymatgen
data_Pr2Mn3(SbS3)4
_symmetry_space_group_name_H-M   'P 1'
_cell_length_a   20.02960800
_cell_length_b   3.90410600
_cell_length_c   14.95364829
_cell_angle_alpha   90.00000000
_cell_angle_beta   126.33350609
_cell_angle_gamma   90.00000000
_symmetry_Int_Tables_number   1
_chemical_formula_structural   Pr2Mn3(SbS3)4
_chemical_formula_sum   'Pr4 Mn6 Sb8 S24'
_cell_volume   942.00006694
_cell_formula_units_Z   2
loop_
 _symmetry_equiv_pos_site_id
 _symmetry_equiv_pos_as_xyz
  1  'x, y, z'
loop_
 _atom_site_type_symbol
 _atom_site_label
 _atom_site_symmetry_multiplicity
 _atom_site_fract_x
 _atom_site_fract_y
 _atom_site_fract_z
 _atom_site_occupancy
  Pr  Pr0  1  0.26574519  0.52596169  0.86612893  1
  Pr  Pr1  1  0.72943120  0.54109303  0.13147711  1
  Pr  Pr2  1  0.76997179  0.95548351  0.89101987  1
  Pr  Pr3  1  0.24414518  0.00446330  0.14810401  1
  Mn  Mn4  1  0.27247035  0.55941288  0.58222263  1
  Mn  Mn5  1  0.69617149  0.46559736  0.37956501  1
  Mn  Mn6  1  0.00098070  0.94891320  0.00351358  1
  Mn  Mn7  1  0.79198876  0.98693930  0.60202594  1
  Mn  Mn8  1  0.20145037  0.95122083  0.40780766  1
  Mn  Mn9  1  0.49773668  0.51353924  0.00428885  1
  Sb  Sb10  1  0.89079814  0.01047421  0.43928306  1
  Sb  Sb11  1  0.10389388  0.03361090  0.55677191  1
  Sb  Sb12  1  0.03418041  0.53956425  0.80797824  1
  Sb  Sb13  1  0.96274406  0.49856482  0.18844518  1
  Sb  Sb14  1  0.39798631  0.48785362  0.46571527  1
  Sb  Sb15  1  0.61133745  0.44950735  0.57165121  1
  Sb  Sb16  1  0.53513170  0.00199270  0.82668725  1
  Sb  Sb17  1  0.46529098  0.00758308  0.18716243  1
  S  S18  1  0.92278129  0.02513346  0.78534958  1
  S  S19  1  0.05791887  0.97860844  0.18784267  1
  S  S20  1  0.41263944  0.98455699  0.98883998  1
  S  S21  1  0.57851399  0.02869837  0.02185786  1
  S  S22  1  0.16439070  0.98903207  0.89353899  1
  S  S23  1  0.83343183  0.02052173  0.12043954  1
  S  S24  1  0.10520521  0.51786243  0.66143681  1
  S  S25  1  0.88645564  0.49168727  0.32911036  1
  S  S26  1  0.73102586  0.96460481  0.31163455  1
  S  S27  1  0.26067312  0.95305329  0.67974753  1
  S  S28  1  0.15762339  0.43678913  0.43639125  1
  S  S29  1  0.81807021  0.42040770  0.53148573  1
  S  S30  1  0.44332887  0.50649906  0.81594083  1
  S  S31  1  0.56219554  0.46603861  0.18677108  1
  S  S32  1  0.91795301  0.48433996  0.98369113  1
  S  S33  1  0.08092490  0.54894014  0.01293495  1
  S  S34  1  0.67098505  0.47872267  0.91180271  1
  S  S35  1  0.33679975  0.42097693  0.10478798  1
  S  S36  1  0.60342144  0.95355489  0.67512474  1
  S  S37  1  0.42212927  0.96198816  0.37272823  1
  S  S38  1  0.25243916  0.46184649  0.30519729  1
  S  S39  1  0.76197887  0.39162274  0.68493678  1
  S  S40  1  0.66460191  0.97314767  0.43764306  1
  S  S41  1  0.33109328  0.04211309  0.55745862  1
