# generated using pymatgen
data_Pr2Mn3(SbS3)4
_symmetry_space_group_name_H-M   'P 1'
_cell_length_a   20.02960800
_cell_length_b   3.90410600
_cell_length_c   14.95364829
_cell_angle_alpha   90.00000000
_cell_angle_beta   126.33350609
_cell_angle_gamma   90.00000000
_symmetry_Int_Tables_number   1
_chemical_formula_structural   Pr2Mn3(SbS3)4
_chemical_formula_sum   'Pr4 Mn6 Sb8 S24'
_cell_volume   942.00006694
_cell_formula_units_Z   2
loop_
 _symmetry_equiv_pos_site_id
 _symmetry_equiv_pos_as_xyz
  1  'x, y, z'
loop_
 _atom_site_type_symbol
 _atom_site_label
 _atom_site_symmetry_multiplicity
 _atom_site_fract_x
 _atom_site_fract_y
 _atom_site_fract_z
 _atom_site_occupancy
  Pr  Pr0  1  0.26575002  0.52616438  0.86620294  1
  Pr  Pr1  1  0.72945637  0.54211325  0.13136231  1
  Pr  Pr2  1  0.77012065  0.95599865  0.89123500  1
  Pr  Pr3  1  0.24401280  0.00402983  0.14800430  1
  Mn  Mn4  1  0.27223671  0.55949109  0.58213956  1
  Mn  Mn5  1  0.69620616  0.46540515  0.37975253  1
  Mn  Mn6  1  0.00067738  0.94864908  0.00338253  1
  Mn  Mn7  1  0.79197746  0.98632629  0.60177256  1
  Mn  Mn8  1  0.20106036  0.95043347  0.40764860  1
  Mn  Mn9  1  0.49769187  0.51359263  0.00408843  1
  Sb  Sb10  1  0.89051911  0.01073432  0.43887771  1
  Sb  Sb11  1  0.10398173  0.03432228  0.55679624  1
  Sb  Sb12  1  0.03422247  0.53962380  0.80808357  1
  Sb  Sb13  1  0.96286858  0.49886524  0.18849422  1
  Sb  Sb14  1  0.39804950  0.48747968  0.46589079  1
  Sb  Sb15  1  0.61125179  0.44962710  0.57158145  1
  Sb  Sb16  1  0.53508769  0.00148689  0.82651799  1
  Sb  Sb17  1  0.46531440  0.00745139  0.18711405  1
  S  S18  1  0.92266230  0.02355244  0.78534735  1
  S  S19  1  0.05782255  0.97905001  0.18772387  1
  S  S20  1  0.41255549  0.98472672  0.98864661  1
  S  S21  1  0.57833596  0.02954459  0.02157794  1
  S  S22  1  0.16440061  0.98920536  0.89341401  1
  S  S23  1  0.83341735  0.01992874  0.11998246  1
  S  S24  1  0.10517842  0.51939325  0.66162485  1
  S  S25  1  0.88617427  0.49080230  0.32904552  1
  S  S26  1  0.73066761  0.96404662  0.31133609  1
  S  S27  1  0.26032942  0.95248495  0.67974235  1
  S  S28  1  0.15779233  0.43692159  0.43673811  1
  S  S29  1  0.81822189  0.42042993  0.53110742  1
  S  S30  1  0.44329768  0.50894105  0.81612686  1
  S  S31  1  0.56263420  0.46666988  0.18727793  1
  S  S32  1  0.91826324  0.48416132  0.98384787  1
  S  S33  1  0.08084090  0.55019875  0.01314998  1
  S  S34  1  0.67105474  0.48027884  0.91157621  1
  S  S35  1  0.33684907  0.42056511  0.10445301  1
  S  S36  1  0.60369227  0.95389034  0.67538536  1
  S  S37  1  0.42243736  0.96185066  0.37307541  1
  S  S38  1  0.25279526  0.46242582  0.30554175  1
  S  S39  1  0.76214151  0.39171649  0.68497509  1
  S  S40  1  0.66481110  0.97194402  0.43833092  1
  S  S41  1  0.33124992  0.04096783  0.55771486  1
