# generated using pymatgen
data_Pr2Mn3(SbS3)4
_symmetry_space_group_name_H-M   'P 1'
_cell_length_a   20.02960800
_cell_length_b   3.90410600
_cell_length_c   14.95364829
_cell_angle_alpha   90.00000000
_cell_angle_beta   126.33350609
_cell_angle_gamma   90.00000000
_symmetry_Int_Tables_number   1
_chemical_formula_structural   Pr2Mn3(SbS3)4
_chemical_formula_sum   'Pr4 Mn6 Sb8 S24'
_cell_volume   942.00006694
_cell_formula_units_Z   2
loop_
 _symmetry_equiv_pos_site_id
 _symmetry_equiv_pos_as_xyz
  1  'x, y, z'
loop_
 _atom_site_type_symbol
 _atom_site_label
 _atom_site_symmetry_multiplicity
 _atom_site_fract_x
 _atom_site_fract_y
 _atom_site_fract_z
 _atom_site_occupancy
  Pr  Pr0  1  0.26578061  0.52659807  0.86628808  1
  Pr  Pr1  1  0.72945043  0.54298411  0.13131511  1
  Pr  Pr2  1  0.77030107  0.95644754  0.89146351  1
  Pr  Pr3  1  0.24388453  0.00378812  0.14790502  1
  Mn  Mn4  1  0.27211780  0.55946887  0.58206092  1
  Mn  Mn5  1  0.69619181  0.46513990  0.37991040  1
  Mn  Mn6  1  0.00036482  0.94917123  0.00320710  1
  Mn  Mn7  1  0.79198199  0.98565068  0.60153385  1
  Mn  Mn8  1  0.20067887  0.94979001  0.40749454  1
  Mn  Mn9  1  0.49766690  0.51410227  0.00384863  1
  Sb  Sb10  1  0.89021927  0.01061023  0.43853606  1
  Sb  Sb11  1  0.10400659  0.03465699  0.55674194  1
  Sb  Sb12  1  0.03425305  0.54004290  0.80819106  1
  Sb  Sb13  1  0.96295040  0.49912754  0.18858040  1
  Sb  Sb14  1  0.39810519  0.48713036  0.46605191  1
  Sb  Sb15  1  0.61112588  0.44959409  0.57157350  1
  Sb  Sb16  1  0.53509543  0.00097189  0.82648867  1
  Sb  Sb17  1  0.46539449  0.00748429  0.18713387  1
  S  S18  1  0.92248225  0.02256314  0.78527006  1
  S  S19  1  0.05770608  0.97885188  0.18750929  1
  S  S20  1  0.41237251  0.98507150  0.98845422  1
  S  S21  1  0.57813902  0.03054495  0.02143084  1
  S  S22  1  0.16442837  0.99002174  0.89321301  1
  S  S23  1  0.83331456  0.01957435  0.11947931  1
  S  S24  1  0.10524873  0.52116493  0.66197214  1
  S  S25  1  0.88588135  0.49083998  0.32895587  1
  S  S26  1  0.73050019  0.96378394  0.31113512  1
  S  S27  1  0.26004543  0.95229785  0.67972256  1
  S  S28  1  0.15789722  0.43692409  0.43696652  1
  S  S29  1  0.81817817  0.42094412  0.53051683  1
  S  S30  1  0.44319676  0.51058432  0.81629947  1
  S  S31  1  0.56310640  0.46808966  0.18787352  1
  S  S32  1  0.91870017  0.48455162  0.98414182  1
  S  S33  1  0.08083069  0.55102458  0.01336271  1
  S  S34  1  0.67094763  0.48178697  0.91132828  1
  S  S35  1  0.33694073  0.42048153  0.10408274  1
  S  S36  1  0.60390286  0.95430033  0.67573707  1
  S  S37  1  0.42269387  0.96104509  0.37339781  1
  S  S38  1  0.25307950  0.46249995  0.30571289  1
  S  S39  1  0.76239442  0.39182234  0.68505750  1
  S  S40  1  0.66510080  0.97110228  0.43909058  1
  S  S41  1  0.33136199  0.03990268  0.55785272  1
