# generated using pymatgen
data_Pr2Mn3(SbS3)4
_symmetry_space_group_name_H-M   'P 1'
_cell_length_a   20.02960800
_cell_length_b   3.90410600
_cell_length_c   14.95364829
_cell_angle_alpha   90.00000000
_cell_angle_beta   126.33350609
_cell_angle_gamma   90.00000000
_symmetry_Int_Tables_number   1
_chemical_formula_structural   Pr2Mn3(SbS3)4
_chemical_formula_sum   'Pr4 Mn6 Sb8 S24'
_cell_volume   942.00006694
_cell_formula_units_Z   2
loop_
 _symmetry_equiv_pos_site_id
 _symmetry_equiv_pos_as_xyz
  1  'x, y, z'
loop_
 _atom_site_type_symbol
 _atom_site_label
 _atom_site_symmetry_multiplicity
 _atom_site_fract_x
 _atom_site_fract_y
 _atom_site_fract_z
 _atom_site_occupancy
  Pr  Pr0  1  0.26576219  0.52683933  0.86630091  1
  Pr  Pr1  1  0.72941462  0.54377110  0.13121148  1
  Pr  Pr2  1  0.77040286  0.95697107  0.89161704  1
  Pr  Pr3  1  0.24376617  0.00324227  0.14780942  1
  Mn  Mn4  1  0.27206981  0.55957749  0.58203103  1
  Mn  Mn5  1  0.69621369  0.46418836  0.38004299  1
  Mn  Mn6  1  0.00000540  0.94976160  0.00304960  1
  Mn  Mn7  1  0.79196323  0.98529052  0.60125233  1
  Mn  Mn8  1  0.20035755  0.94894761  0.40745806  1
  Mn  Mn9  1  0.49770897  0.51404542  0.00366870  1
  Sb  Sb10  1  0.88996076  0.01068072  0.43832584  1
  Sb  Sb11  1  0.10396822  0.03519812  0.55662249  1
  Sb  Sb12  1  0.03433323  0.54022918  0.80829149  1
  Sb  Sb13  1  0.96304144  0.49921285  0.18874117  1
  Sb  Sb14  1  0.39817732  0.48703646  0.46625565  1
  Sb  Sb15  1  0.61105332  0.44936485  0.57153055  1
  Sb  Sb16  1  0.53510788  0.00068280  0.82638919  1
  Sb  Sb17  1  0.46549330  0.00759339  0.18713843  1
  S  S18  1  0.92225738  0.02107633  0.78520348  1
  S  S19  1  0.05753172  0.97909372  0.18728801  1
  S  S20  1  0.41222024  0.98567668  0.98805135  1
  S  S21  1  0.57792285  0.03169198  0.02130386  1
  S  S22  1  0.16444903  0.99065188  0.89315531  1
  S  S23  1  0.83330390  0.01929965  0.11894773  1
  S  S24  1  0.10531592  0.52242608  0.66221556  1
  S  S25  1  0.88562406  0.49090908  0.32887897  1
  S  S26  1  0.73016522  0.96334912  0.31092459  1
  S  S27  1  0.25971774  0.95199785  0.67979469  1
  S  S28  1  0.15795941  0.43695899  0.43715256  1
  S  S29  1  0.81817897  0.42188824  0.52995625  1
  S  S30  1  0.44304896  0.51237810  0.81636728  1
  S  S31  1  0.56359834  0.46973005  0.18841875  1
  S  S32  1  0.91919928  0.48463233  0.98447580  1
  S  S33  1  0.08094220  0.55118435  0.01363770  1
  S  S34  1  0.67076479  0.48338272  0.91082870  1
  S  S35  1  0.33708167  0.42060486  0.10387979  1
  S  S36  1  0.60404557  0.95437919  0.67596263  1
  S  S37  1  0.42302354  0.96055720  0.37377238  1
  S  S38  1  0.25325739  0.46301268  0.30579238  1
  S  S39  1  0.76257935  0.39182113  0.68519548  1
  S  S40  1  0.66554244  0.96979279  0.43988756  1
  S  S41  1  0.33145200  0.03900972  0.55796413  1
