# generated using pymatgen
data_Pr2Mn3(SbS3)4
_symmetry_space_group_name_H-M   'P 1'
_cell_length_a   20.02960800
_cell_length_b   3.90410600
_cell_length_c   14.95364829
_cell_angle_alpha   90.00000000
_cell_angle_beta   126.33350609
_cell_angle_gamma   90.00000000
_symmetry_Int_Tables_number   1
_chemical_formula_structural   Pr2Mn3(SbS3)4
_chemical_formula_sum   'Pr4 Mn6 Sb8 S24'
_cell_volume   942.00006694
_cell_formula_units_Z   2
loop_
 _symmetry_equiv_pos_site_id
 _symmetry_equiv_pos_as_xyz
  1  'x, y, z'
loop_
 _atom_site_type_symbol
 _atom_site_label
 _atom_site_symmetry_multiplicity
 _atom_site_fract_x
 _atom_site_fract_y
 _atom_site_fract_z
 _atom_site_occupancy
  Pr  Pr0  1  0.26578374  0.52740603  0.86639472  1
  Pr  Pr1  1  0.72943739  0.54420420  0.13118249  1
  Pr  Pr2  1  0.77047112  0.95749296  0.89177272  1
  Pr  Pr3  1  0.24367321  0.00271230  0.14778109  1
  Mn  Mn4  1  0.27190627  0.55944710  0.58207120  1
  Mn  Mn5  1  0.69621955  0.46374035  0.38004267  1
  Mn  Mn6  1  0.99961948  0.95061442  0.00294194  1
  Mn  Mn7  1  0.79196506  0.98483373  0.60108830  1
  Mn  Mn8  1  0.20008613  0.94782248  0.40734380  1
  Mn  Mn9  1  0.49770113  0.51396824  0.00349982  1
  Sb  Sb10  1  0.88978882  0.01089861  0.43817267  1
  Sb  Sb11  1  0.10391604  0.03548813  0.55639992  1
  Sb  Sb12  1  0.03440436  0.54020685  0.80837424  1
  Sb  Sb13  1  0.96312241  0.49958449  0.18891138  1
  Sb  Sb14  1  0.39825920  0.48650659  0.46642254  1
  Sb  Sb15  1  0.61111622  0.44931728  0.57163625  1
  Sb  Sb16  1  0.53502925  0.00044317  0.82625112  1
  Sb  Sb17  1  0.46558851  0.00743731  0.18717895  1
  S  S18  1  0.92211313  0.01911065  0.78524847  1
  S  S19  1  0.05752109  0.97954512  0.18722003  1
  S  S20  1  0.41193056  0.98620263  0.98757223  1
  S  S21  1  0.57758768  0.03220771  0.02098970  1
  S  S22  1  0.16451873  0.99114762  0.89300678  1
  S  S23  1  0.83323428  0.01862120  0.11833813  1
  S  S24  1  0.10543237  0.52423467  0.66243209  1
  S  S25  1  0.88543733  0.49089183  0.32882029  1
  S  S26  1  0.72966987  0.96255900  0.31059188  1
  S  S27  1  0.25953981  0.95106160  0.68002410  1
  S  S28  1  0.15803880  0.43697468  0.43744214  1
  S  S29  1  0.81819113  0.42301621  0.52939501  1
  S  S30  1  0.44307746  0.51421172  0.81643791  1
  S  S31  1  0.56403299  0.47107710  0.18897693  1
  S  S32  1  0.91967366  0.48398870  0.98484984  1
  S  S33  1  0.08098411  0.55158798  0.01388597  1
  S  S34  1  0.67059900  0.48503318  0.91033669  1
  S  S35  1  0.33728596  0.42029660  0.10367046  1
  S  S36  1  0.60406044  0.95482088  0.67599527  1
  S  S37  1  0.42336011  0.95987438  0.37437577  1
  S  S38  1  0.25326862  0.46427280  0.30580998  1
  S  S39  1  0.76254299  0.39186187  0.68507016  1
  S  S40  1  0.66572838  0.96844203  0.44038002  1
  S  S41  1  0.33147456  0.03838137  0.55807114  1
