# generated using pymatgen
data_Pr2Mn3(SbS3)4
_symmetry_space_group_name_H-M   'P 1'
_cell_length_a   20.02960800
_cell_length_b   3.90410600
_cell_length_c   14.95364829
_cell_angle_alpha   90.00000000
_cell_angle_beta   126.33350609
_cell_angle_gamma   90.00000000
_symmetry_Int_Tables_number   1
_chemical_formula_structural   Pr2Mn3(SbS3)4
_chemical_formula_sum   'Pr4 Mn6 Sb8 S24'
_cell_volume   942.00006694
_cell_formula_units_Z   2
loop_
 _symmetry_equiv_pos_site_id
 _symmetry_equiv_pos_as_xyz
  1  'x, y, z'
loop_
 _atom_site_type_symbol
 _atom_site_label
 _atom_site_symmetry_multiplicity
 _atom_site_fract_x
 _atom_site_fract_y
 _atom_site_fract_z
 _atom_site_occupancy
  Pr  Pr0  1  0.26580864  0.52791449  0.86643235  1
  Pr  Pr1  1  0.72929179  0.54448857  0.13105703  1
  Pr  Pr2  1  0.77055748  0.95806102  0.89186506  1
  Pr  Pr3  1  0.24356606  0.00241079  0.14771134  1
  Mn  Mn4  1  0.27160756  0.55960944  0.58198187  1
  Mn  Mn5  1  0.69616205  0.46342901  0.37990333  1
  Mn  Mn6  1  0.99924985  0.95119847  0.00286468  1
  Mn  Mn7  1  0.79196959  0.98468603  0.60094015  1
  Mn  Mn8  1  0.19986384  0.94698108  0.40734330  1
  Mn  Mn9  1  0.49772779  0.51363049  0.00328740  1
  Sb  Sb10  1  0.88959864  0.01096953  0.43802981  1
  Sb  Sb11  1  0.10386174  0.03567379  0.55610902  1
  Sb  Sb12  1  0.03447194  0.54015889  0.80843023  1
  Sb  Sb13  1  0.96318480  0.49966401  0.18908979  1
  Sb  Sb14  1  0.39828598  0.48581335  0.46652995  1
  Sb  Sb15  1  0.61120409  0.44912989  0.57164327  1
  Sb  Sb16  1  0.53494955  0.00001682  0.82609804  1
  Sb  Sb17  1  0.46581608  0.00748522  0.18724955  1
  S  S18  1  0.92193231  0.01720354  0.78518095  1
  S  S19  1  0.05758344  0.97918441  0.18715805  1
  S  S20  1  0.41157238  0.98676314  0.98705130  1
  S  S21  1  0.57714283  0.03234765  0.02053278  1
  S  S22  1  0.16444204  0.99243405  0.89278239  1
  S  S23  1  0.83315756  0.01780960  0.11779597  1
  S  S24  1  0.10551590  0.52535644  0.66254841  1
  S  S25  1  0.88534617  0.49082603  0.32885452  1
  S  S26  1  0.72933599  0.96120586  0.31042786  1
  S  S27  1  0.25939173  0.94990298  0.68023688  1
  S  S28  1  0.15798217  0.43646494  0.43751159  1
  S  S29  1  0.81830360  0.42437585  0.52889834  1
  S  S30  1  0.44332073  0.51556147  0.81680794  1
  S  S31  1  0.56446241  0.47259025  0.18975991  1
  S  S32  1  0.92001245  0.48328124  0.98515967  1
  S  S33  1  0.08090904  0.55183944  0.01399106  1
  S  S34  1  0.67053412  0.48737837  0.91004525  1
  S  S35  1  0.33750912  0.42001881  0.10358915  1
  S  S36  1  0.60391613  0.95528087  0.67583641  1
  S  S37  1  0.42364822  0.95899330  0.37491937  1
  S  S38  1  0.25327284  0.46487979  0.30583004  1
  S  S39  1  0.76247240  0.39212702  0.68488837  1
  S  S40  1  0.66587689  0.96733140  0.44100954  1
  S  S41  1  0.33148690  0.03800550  0.55820540  1
