# generated using pymatgen
data_Pr2Mn3(SbS3)4
_symmetry_space_group_name_H-M   'P 1'
_cell_length_a   20.02960800
_cell_length_b   3.90410600
_cell_length_c   14.95364829
_cell_angle_alpha   90.00000000
_cell_angle_beta   126.33350609
_cell_angle_gamma   90.00000000
_symmetry_Int_Tables_number   1
_chemical_formula_structural   Pr2Mn3(SbS3)4
_chemical_formula_sum   'Pr4 Mn6 Sb8 S24'
_cell_volume   942.00006694
_cell_formula_units_Z   2
loop_
 _symmetry_equiv_pos_site_id
 _symmetry_equiv_pos_as_xyz
  1  'x, y, z'
loop_
 _atom_site_type_symbol
 _atom_site_label
 _atom_site_symmetry_multiplicity
 _atom_site_fract_x
 _atom_site_fract_y
 _atom_site_fract_z
 _atom_site_occupancy
  Pr  Pr0  1  0.26585468  0.52832824  0.86647011  1
  Pr  Pr1  1  0.72921288  0.54486298  0.13100832  1
  Pr  Pr2  1  0.77065132  0.95863902  0.89188407  1
  Pr  Pr3  1  0.24354885  0.00193361  0.14770637  1
  Mn  Mn4  1  0.27136160  0.55940747  0.58195897  1
  Mn  Mn5  1  0.69597972  0.46331755  0.37972882  1
  Mn  Mn6  1  0.99875614  0.95176301  0.00269816  1
  Mn  Mn7  1  0.79190932  0.98477458  0.60068976  1
  Mn  Mn8  1  0.19959455  0.94589680  0.40720718  1
  Mn  Mn9  1  0.49765426  0.51329740  0.00311501  1
  Sb  Sb10  1  0.88934147  0.01098584  0.43780498  1
  Sb  Sb11  1  0.10389899  0.03599991  0.55590362  1
  Sb  Sb12  1  0.03456863  0.54002320  0.80845986  1
  Sb  Sb13  1  0.96323290  0.49979052  0.18918904  1
  Sb  Sb14  1  0.39833643  0.48534465  0.46670937  1
  Sb  Sb15  1  0.61127811  0.44910784  0.57171448  1
  Sb  Sb16  1  0.53493161  0.99944283  0.82607419  1
  Sb  Sb17  1  0.46590993  0.00761522  0.18719353  1
  S  S18  1  0.92191497  0.01538409  0.78512814  1
  S  S19  1  0.05757481  0.97903216  0.18712305  1
  S  S20  1  0.41117811  0.98717155  0.98650274  1
  S  S21  1  0.57674016  0.03300711  0.02006547  1
  S  S22  1  0.16441833  0.99338962  0.89267690  1
  S  S23  1  0.83314644  0.01724302  0.11727637  1
  S  S24  1  0.10558291  0.52589165  0.66263419  1
  S  S25  1  0.88540382  0.49062154  0.32907342  1
  S  S26  1  0.72901079  0.95995537  0.31018363  1
  S  S27  1  0.25916917  0.94929623  0.68036789  1
  S  S28  1  0.15781264  0.43686066  0.43744061  1
  S  S29  1  0.81842614  0.42646970  0.52839574  1
  S  S30  1  0.44346434  0.51670938  0.81708042  1
  S  S31  1  0.56471208  0.47413537  0.19030021  1
  S  S32  1  0.92028339  0.48344775  0.98531426  1
  S  S33  1  0.08096691  0.55243145  0.01407188  1
  S  S34  1  0.67050213  0.48941947  0.90964306  1
  S  S35  1  0.33765119  0.41977038  0.10355159  1
  S  S36  1  0.60365772  0.95543870  0.67553211  1
  S  S37  1  0.42394475  0.95779581  0.37550794  1
  S  S38  1  0.25345957  0.46540700  0.30592044  1
  S  S39  1  0.76241366  0.39227310  0.68463860  1
  S  S40  1  0.66611182  0.96666085  0.44179221  1
  S  S41  1  0.33158370  0.03813352  0.55847926  1
