# generated using pymatgen
data_Pr2Mn3(SbS3)4
_symmetry_space_group_name_H-M   'P 1'
_cell_length_a   20.02960800
_cell_length_b   3.90410600
_cell_length_c   14.95364829
_cell_angle_alpha   90.00000000
_cell_angle_beta   126.33350609
_cell_angle_gamma   90.00000000
_symmetry_Int_Tables_number   1
_chemical_formula_structural   Pr2Mn3(SbS3)4
_chemical_formula_sum   'Pr4 Mn6 Sb8 S24'
_cell_volume   942.00006694
_cell_formula_units_Z   2
loop_
 _symmetry_equiv_pos_site_id
 _symmetry_equiv_pos_as_xyz
  1  'x, y, z'
loop_
 _atom_site_type_symbol
 _atom_site_label
 _atom_site_symmetry_multiplicity
 _atom_site_fract_x
 _atom_site_fract_y
 _atom_site_fract_z
 _atom_site_occupancy
  Pr  Pr0  1  0.26586568  0.52870183  0.86646039  1
  Pr  Pr1  1  0.72905607  0.54538857  0.13080471  1
  Pr  Pr2  1  0.77070601  0.95939520  0.89187312  1
  Pr  Pr3  1  0.24347905  0.00143426  0.14772115  1
  Mn  Mn4  1  0.27104054  0.55919302  0.58179046  1
  Mn  Mn5  1  0.69581792  0.46305360  0.37965759  1
  Mn  Mn6  1  0.99834868  0.95220034  0.00270728  1
  Mn  Mn7  1  0.79189520  0.98466256  0.60049922  1
  Mn  Mn8  1  0.19930639  0.94511929  0.40713349  1
  Mn  Mn9  1  0.49761127  0.51333829  0.00297305  1
  Sb  Sb10  1  0.88919382  0.01068983  0.43770521  1
  Sb  Sb11  1  0.10397055  0.03622966  0.55568432  1
  Sb  Sb12  1  0.03458510  0.53962873  0.80845458  1
  Sb  Sb13  1  0.96330050  0.50000360  0.18937054  1
  Sb  Sb14  1  0.39840890  0.48493252  0.46687518  1
  Sb  Sb15  1  0.61133404  0.44903100  0.57173804  1
  Sb  Sb16  1  0.53496687  0.99906467  0.82603198  1
  Sb  Sb17  1  0.46598592  0.00767653  0.18719161  1
  S  S18  1  0.92199583  0.01376640  0.78508151  1
  S  S19  1  0.05749540  0.97874486  0.18707446  1
  S  S20  1  0.41085293  0.98770274  0.98610909  1
  S  S21  1  0.57634570  0.03412333  0.01965304  1
  S  S22  1  0.16445822  0.99485397  0.89284120  1
  S  S23  1  0.83323329  0.01637877  0.11684703  1
  S  S24  1  0.10560611  0.52641351  0.66273440  1
  S  S25  1  0.88544110  0.49023283  0.32913353  1
  S  S26  1  0.72861892  0.95831024  0.30990242  1
  S  S27  1  0.25915279  0.94867743  0.68062933  1
  S  S28  1  0.15763005  0.43729292  0.43737200  1
  S  S29  1  0.81860544  0.42846370  0.52801395  1
  S  S30  1  0.44359227  0.51744865  0.81725505  1
  S  S31  1  0.56488482  0.47507559  0.19082117  1
  S  S32  1  0.92060692  0.48345056  0.98546259  1
  S  S33  1  0.08108675  0.55332925  0.01425727  1
  S  S34  1  0.67047570  0.49156000  0.90913091  1
  S  S35  1  0.33782350  0.41912201  0.10364654  1
  S  S36  1  0.60339173  0.95562693  0.67513106  1
  S  S37  1  0.42424008  0.95702318  0.37624318  1
  S  S38  1  0.25359875  0.46553582  0.30604842  1
  S  S39  1  0.76239491  0.39239606  0.68447015  1
  S  S40  1  0.66626504  0.96606681  0.44256503  1
  S  S41  1  0.33170261  0.03859719  0.55869411  1
