# generated using pymatgen
data_Pr2Mn3(SbS3)4
_symmetry_space_group_name_H-M   'P 1'
_cell_length_a   20.02960800
_cell_length_b   3.90410600
_cell_length_c   14.95364829
_cell_angle_alpha   90.00000000
_cell_angle_beta   126.33350609
_cell_angle_gamma   90.00000000
_symmetry_Int_Tables_number   1
_chemical_formula_structural   Pr2Mn3(SbS3)4
_chemical_formula_sum   'Pr4 Mn6 Sb8 S24'
_cell_volume   942.00006694
_cell_formula_units_Z   2
loop_
 _symmetry_equiv_pos_site_id
 _symmetry_equiv_pos_as_xyz
  1  'x, y, z'
loop_
 _atom_site_type_symbol
 _atom_site_label
 _atom_site_symmetry_multiplicity
 _atom_site_fract_x
 _atom_site_fract_y
 _atom_site_fract_z
 _atom_site_occupancy
  Pr  Pr0  1  0.26588514  0.52891064  0.86655119  1
  Pr  Pr1  1  0.72894295  0.54583329  0.13061008  1
  Pr  Pr2  1  0.77072948  0.95980952  0.89186870  1
  Pr  Pr3  1  0.24339201  0.00101169  0.14766249  1
  Mn  Mn4  1  0.27064801  0.55918736  0.58156272  1
  Mn  Mn5  1  0.69566499  0.46297031  0.37958637  1
  Mn  Mn6  1  0.99799293  0.95267876  0.00276826  1
  Mn  Mn7  1  0.79187758  0.98484730  0.60044276  1
  Mn  Mn8  1  0.19887875  0.94436752  0.40704829  1
  Mn  Mn9  1  0.49760551  0.51308856  0.00286775  1
  Sb  Sb10  1  0.88901136  0.01020600  0.43759667  1
  Sb  Sb11  1  0.10401320  0.03604481  0.55549002  1
  Sb  Sb12  1  0.03462195  0.53935810  0.80844479  1
  Sb  Sb13  1  0.96328834  0.49961455  0.18946396  1
  Sb  Sb14  1  0.39850354  0.48438804  0.46700463  1
  Sb  Sb15  1  0.61140298  0.44916956  0.57183064  1
  Sb  Sb16  1  0.53497416  0.99872226  0.82595147  1
  Sb  Sb17  1  0.46608314  0.00780212  0.18715226  1
  S  S18  1  0.92234092  0.01172474  0.78538279  1
  S  S19  1  0.05742285  0.97864686  0.18705988  1
  S  S20  1  0.41060534  0.98833638  0.98567776  1
  S  S21  1  0.57579470  0.03567462  0.01926820  1
  S  S22  1  0.16453139  0.99642822  0.89300917  1
  S  S23  1  0.83318190  0.01497281  0.11639430  1
  S  S24  1  0.10549064  0.52645608  0.66271875  1
  S  S25  1  0.88563425  0.48981208  0.32943656  1
  S  S26  1  0.72828806  0.95715202  0.30960373  1
  S  S27  1  0.25912187  0.94797787  0.68094080  1
  S  S28  1  0.15745912  0.43779511  0.43734775  1
  S  S29  1  0.81869075  0.43051043  0.52764258  1
  S  S30  1  0.44381061  0.51821720  0.81759373  1
  S  S31  1  0.56511167  0.47621294  0.19132424  1
  S  S32  1  0.92091258  0.48404076  0.98568990  1
  S  S33  1  0.08117665  0.55455377  0.01421253  1
  S  S34  1  0.67042040  0.49327678  0.90867622  1
  S  S35  1  0.33787515  0.41920759  0.10379376  1
  S  S36  1  0.60320174  0.95593889  0.67476490  1
  S  S37  1  0.42452471  0.95649193  0.37682649  1
  S  S38  1  0.25367699  0.46554209  0.30614145  1
  S  S39  1  0.76240428  0.39270680  0.68437105  1
  S  S40  1  0.66638342  0.96536151  0.44329547  1
  S  S41  1  0.33178287  0.03855024  0.55884899  1
