# generated using pymatgen
data_Pr2Mn3(SbS3)4
_symmetry_space_group_name_H-M   'P 1'
_cell_length_a   20.02960800
_cell_length_b   3.90410600
_cell_length_c   14.95364829
_cell_angle_alpha   90.00000000
_cell_angle_beta   126.33350609
_cell_angle_gamma   90.00000000
_symmetry_Int_Tables_number   1
_chemical_formula_structural   Pr2Mn3(SbS3)4
_chemical_formula_sum   'Pr4 Mn6 Sb8 S24'
_cell_volume   942.00006694
_cell_formula_units_Z   2
loop_
 _symmetry_equiv_pos_site_id
 _symmetry_equiv_pos_as_xyz
  1  'x, y, z'
loop_
 _atom_site_type_symbol
 _atom_site_label
 _atom_site_symmetry_multiplicity
 _atom_site_fract_x
 _atom_site_fract_y
 _atom_site_fract_z
 _atom_site_occupancy
  Pr  Pr0  1  0.26592772  0.52899664  0.86678901  1
  Pr  Pr1  1  0.72884483  0.54614352  0.13040045  1
  Pr  Pr2  1  0.77074247  0.96023525  0.89180585  1
  Pr  Pr3  1  0.24341278  0.00036635  0.14773642  1
  Mn  Mn4  1  0.27015860  0.55995805  0.58122353  1
  Mn  Mn5  1  0.69556486  0.46291564  0.37946733  1
  Mn  Mn6  1  0.99766786  0.95360041  0.00277438  1
  Mn  Mn7  1  0.79190433  0.98469000  0.60030573  1
  Mn  Mn8  1  0.19846716  0.94402142  0.40700123  1
  Mn  Mn9  1  0.49762105  0.51315456  0.00283930  1
  Sb  Sb10  1  0.88889535  0.00973248  0.43752919  1
  Sb  Sb11  1  0.10398903  0.03572534  0.55531336  1
  Sb  Sb12  1  0.03462968  0.53891133  0.80841930  1
  Sb  Sb13  1  0.96329899  0.49929320  0.18949230  1
  Sb  Sb14  1  0.39862537  0.48385845  0.46714996  1
  Sb  Sb15  1  0.61143188  0.44906734  0.57181060  1
  Sb  Sb16  1  0.53501741  0.99857393  0.82591505  1
  Sb  Sb17  1  0.46625692  0.00810427  0.18714053  1
  S  S18  1  0.92269212  0.00998147  0.78590570  1
  S  S19  1  0.05717349  0.97847074  0.18689321  1
  S  S20  1  0.41030872  0.98917605  0.98505152  1
  S  S21  1  0.57531059  0.03708699  0.01881801  1
  S  S22  1  0.16456117  0.99867007  0.89317114  1
  S  S23  1  0.83321530  0.01310827  0.11587813  1
  S  S24  1  0.10536448  0.52601746  0.66260440  1
  S  S25  1  0.88586707  0.48916415  0.32978756  1
  S  S26  1  0.72774147  0.95571858  0.30914802  1
  S  S27  1  0.25904785  0.94747467  0.68127983  1
  S  S28  1  0.15721546  0.43870190  0.43721432  1
  S  S29  1  0.81880177  0.43195010  0.52718959  1
  S  S30  1  0.44406331  0.51888524  0.81800211  1
  S  S31  1  0.56518970  0.47731040  0.19163960  1
  S  S32  1  0.92126551  0.48438301  0.98597497  1
  S  S33  1  0.08109382  0.55570129  0.01379139  1
  S  S34  1  0.67044194  0.49525977  0.90833470  1
  S  S35  1  0.33794185  0.41913765  0.10387087  1
  S  S36  1  0.60292891  0.95719396  0.67428058  1
  S  S37  1  0.42486403  0.95622120  0.37749429  1
  S  S38  1  0.25372127  0.46518340  0.30604905  1
  S  S39  1  0.76240010  0.39343882  0.68424546  1
  S  S40  1  0.66647932  0.96458050  0.44385022  1
  S  S41  1  0.33191228  0.03851002  0.55897415  1
