# generated using pymatgen
data_Pr2Mn3(SbS3)4
_symmetry_space_group_name_H-M   'P 1'
_cell_length_a   20.02960800
_cell_length_b   3.90410600
_cell_length_c   14.95364829
_cell_angle_alpha   90.00000000
_cell_angle_beta   126.33350609
_cell_angle_gamma   90.00000000
_symmetry_Int_Tables_number   1
_chemical_formula_structural   Pr2Mn3(SbS3)4
_chemical_formula_sum   'Pr4 Mn6 Sb8 S24'
_cell_volume   942.00006694
_cell_formula_units_Z   2
loop_
 _symmetry_equiv_pos_site_id
 _symmetry_equiv_pos_as_xyz
  1  'x, y, z'
loop_
 _atom_site_type_symbol
 _atom_site_label
 _atom_site_symmetry_multiplicity
 _atom_site_fract_x
 _atom_site_fract_y
 _atom_site_fract_z
 _atom_site_occupancy
  Pr  Pr0  1  0.26887838  0.49933214  0.86602804  1
  Pr  Pr1  1  0.73413386  0.50906297  0.13383112  1
  Pr  Pr2  1  0.76336916  0.02006670  0.86112736  1
  Pr  Pr3  1  0.23412815  0.99684674  0.13235748  1
  Mn  Mn4  1  0.29206794  0.47277230  0.59445532  1
  Mn  Mn5  1  0.68524640  0.46731086  0.36521319  1
  Mn  Mn6  1  0.00735725  0.99503930  0.01504691  1
  Mn  Mn7  1  0.80125950  0.01098720  0.61976469  1
  Mn  Mn8  1  0.19824603  0.97506640  0.37232947  1
  Mn  Mn9  1  0.48896188  0.46666399  0.98890905  1
  Sb  Sb10  1  0.89089170  0.98363150  0.45225556  1
  Sb  Sb11  1  0.10999510  0.97797494  0.54379466  1
  Sb  Sb12  1  0.03534793  0.52007778  0.81874331  1
  Sb  Sb13  1  0.96472059  0.50033994  0.18891652  1
  Sb  Sb14  1  0.39377190  0.49749858  0.44990671  1
  Sb  Sb15  1  0.60586346  0.46964941  0.54833489  1
  Sb  Sb16  1  0.53337283  0.98824852  0.80792022  1
  Sb  Sb17  1  0.46527376  0.02348457  0.19164993  1
  S  S18  1  0.93818647  0.01277430  0.80838582  1
  S  S19  1  0.06388759  0.97967352  0.19751763  1
  S  S20  1  0.42155334  0.96021903  0.99231862  1
  S  S21  1  0.58261792  0.03497364  0.01285475  1
  S  S22  1  0.17314738  0.05706979  0.90201092  1
  S  S23  1  0.82948380  0.05291328  0.10440709  1
  S  S24  1  0.09231976  0.49929679  0.64854028  1
  S  S25  1  0.91452874  0.48672496  0.35808230  1
  S  S26  1  0.73527502  0.97105943  0.29738990  1
  S  S27  1  0.26092368  0.00202701  0.70938036  1
  S  S28  1  0.16371888  0.51856878  0.43065387  1
  S  S29  1  0.82033890  0.48182810  0.54804111  1
  S  S30  1  0.43102505  0.48078336  0.79508852  1
  S  S31  1  0.55314916  0.51867785  0.17984565  1
  S  S32  1  0.91510046  0.48738417  0.98796638  1
  S  S33  1  0.08820695  0.49831188  0.03147007  1
  S  S34  1  0.66424340  0.54591663  0.89036057  1
  S  S35  1  0.32731045  0.50817706  0.09378002  1
  S  S36  1  0.59808160  0.00493368  0.65847547  1
  S  S37  1  0.40104512  0.98152260  0.34295807  1
  S  S38  1  0.24222840  0.47216735  0.31544497  1
  S  S39  1  0.76018443  0.52141824  0.68887272  1
  S  S40  1  0.66520785  0.00861066  0.44937193  1
  S  S41  1  0.33128750  0.98354876  0.55583520  1
