# generated using pymatgen
data_Pr2Mn3(SbS3)4
_symmetry_space_group_name_H-M   'P 1'
_cell_length_a   20.02960800
_cell_length_b   3.90410600
_cell_length_c   14.95364829
_cell_angle_alpha   90.00000000
_cell_angle_beta   126.33350609
_cell_angle_gamma   90.00000000
_symmetry_Int_Tables_number   1
_chemical_formula_structural   Pr2Mn3(SbS3)4
_chemical_formula_sum   'Pr4 Mn6 Sb8 S24'
_cell_volume   942.00006694
_cell_formula_units_Z   2
loop_
 _symmetry_equiv_pos_site_id
 _symmetry_equiv_pos_as_xyz
  1  'x, y, z'
loop_
 _atom_site_type_symbol
 _atom_site_label
 _atom_site_symmetry_multiplicity
 _atom_site_fract_x
 _atom_site_fract_y
 _atom_site_fract_z
 _atom_site_occupancy
  Pr  Pr0  1  0.26596197  0.52909212  0.86695130  1
  Pr  Pr1  1  0.72878334  0.54626911  0.13031411  1
  Pr  Pr2  1  0.77081437  0.96073915  0.89178080  1
  Pr  Pr3  1  0.24342905  0.99966733  0.14775394  1
  Mn  Mn4  1  0.26972758  0.56055782  0.58089668  1
  Mn  Mn5  1  0.69552825  0.46334722  0.37931629  1
  Mn  Mn6  1  0.99739150  0.95435354  0.00286803  1
  Mn  Mn7  1  0.79193023  0.98469410  0.60014034  1
  Mn  Mn8  1  0.19802611  0.94355604  0.40689277  1
  Mn  Mn9  1  0.49760275  0.51315125  0.00274270  1
  Sb  Sb10  1  0.88874055  0.00927011  0.43756020  1
  Sb  Sb11  1  0.10395849  0.03571023  0.55520385  1
  Sb  Sb12  1  0.03460750  0.53889547  0.80842975  1
  Sb  Sb13  1  0.96328128  0.49884823  0.18944745  1
  Sb  Sb14  1  0.39884561  0.48353847  0.46733598  1
  Sb  Sb15  1  0.61142499  0.44898755  0.57169899  1
  Sb  Sb16  1  0.53500260  0.99838736  0.82578820  1
  Sb  Sb17  1  0.46644863  0.00838672  0.18708985  1
  S  S18  1  0.92298531  0.00848281  0.78632555  1
  S  S19  1  0.05709059  0.97813389  0.18681555  1
  S  S20  1  0.40996873  0.98983565  0.98442748  1
  S  S21  1  0.57488042  0.03853335  0.01836534  1
  S  S22  1  0.16451840  0.00148926  0.89334198  1
  S  S23  1  0.83317189  0.01220589  0.11561166  1
  S  S24  1  0.10520284  0.52522912  0.66247397  1
  S  S25  1  0.88613592  0.48833428  0.33016938  1
  S  S26  1  0.72719347  0.95446016  0.30863433  1
  S  S27  1  0.25896576  0.94723828  0.68148336  1
  S  S28  1  0.15697044  0.43912603  0.43714933  1
  S  S29  1  0.81910459  0.43342811  0.52705596  1
  S  S30  1  0.44427697  0.51878494  0.81853483  1
  S  S31  1  0.56526954  0.47809771  0.19204808  1
  S  S32  1  0.92162192  0.48505257  0.98620455  1
  S  S33  1  0.08103671  0.55697312  0.01347198  1
  S  S34  1  0.67065838  0.49704134  0.90844131  1
  S  S35  1  0.33810392  0.41919086  0.10393443  1
  S  S36  1  0.60270681  0.95852222  0.67389215  1
  S  S37  1  0.42522380  0.95627132  0.37811453  1
  S  S38  1  0.25379416  0.46401796  0.30592056  1
  S  S39  1  0.76238045  0.39369566  0.68418936  1
  S  S40  1  0.66634758  0.96364097  0.44419799  1
  S  S41  1  0.33210055  0.03830176  0.55911100  1
