# generated using pymatgen
data_Pr2Mn3(SbS3)4
_symmetry_space_group_name_H-M   'P 1'
_cell_length_a   20.02960800
_cell_length_b   3.90410600
_cell_length_c   14.95364829
_cell_angle_alpha   90.00000000
_cell_angle_beta   126.33350609
_cell_angle_gamma   90.00000000
_symmetry_Int_Tables_number   1
_chemical_formula_structural   Pr2Mn3(SbS3)4
_chemical_formula_sum   'Pr4 Mn6 Sb8 S24'
_cell_volume   942.00006694
_cell_formula_units_Z   2
loop_
 _symmetry_equiv_pos_site_id
 _symmetry_equiv_pos_as_xyz
  1  'x, y, z'
loop_
 _atom_site_type_symbol
 _atom_site_label
 _atom_site_symmetry_multiplicity
 _atom_site_fract_x
 _atom_site_fract_y
 _atom_site_fract_z
 _atom_site_occupancy
  Pr  Pr0  1  0.26596665  0.52922894  0.86713441  1
  Pr  Pr1  1  0.72869646  0.54638588  0.13024314  1
  Pr  Pr2  1  0.77077960  0.96127979  0.89165503  1
  Pr  Pr3  1  0.24347653  0.99914878  0.14786926  1
  Mn  Mn4  1  0.26933061  0.56097138  0.58055743  1
  Mn  Mn5  1  0.69551996  0.46391739  0.37922560  1
  Mn  Mn6  1  0.99715010  0.95508689  0.00297931  1
  Mn  Mn7  1  0.79196081  0.98441280  0.59998414  1
  Mn  Mn8  1  0.19771761  0.94320192  0.40687332  1
  Mn  Mn9  1  0.49768917  0.51232654  0.00259129  1
  Sb  Sb10  1  0.88854886  0.00888167  0.43756448  1
  Sb  Sb11  1  0.10393972  0.03579062  0.55506438  1
  Sb  Sb12  1  0.03458293  0.53880098  0.80854127  1
  Sb  Sb13  1  0.96318427  0.49864827  0.18933524  1
  Sb  Sb14  1  0.39898856  0.48318058  0.46740880  1
  Sb  Sb15  1  0.61138792  0.44910118  0.57150037  1
  Sb  Sb16  1  0.53491652  0.99818941  0.82560551  1
  Sb  Sb17  1  0.46664802  0.00891709  0.18709056  1
  S  S18  1  0.92324506  0.00700832  0.78676044  1
  S  S19  1  0.05707521  0.97809947  0.18677999  1
  S  S20  1  0.40963133  0.99082096  0.98384340  1
  S  S21  1  0.57445966  0.03976012  0.01806029  1
  S  S22  1  0.16448619  0.00390618  0.89335028  1
  S  S23  1  0.83297129  0.01193862  0.11519526  1
  S  S24  1  0.10513399  0.52470267  0.66251108  1
  S  S25  1  0.88648987  0.48732481  0.33062569  1
  S  S26  1  0.72667077  0.95294325  0.30801709  1
  S  S27  1  0.25894002  0.94745121  0.68162004  1
  S  S28  1  0.15673741  0.43986161  0.43716758  1
  S  S29  1  0.81950571  0.43499361  0.52721907  1
  S  S30  1  0.44439789  0.51863827  0.81905959  1
  S  S31  1  0.56534338  0.47854759  0.19232228  1
  S  S32  1  0.92181937  0.48592733  0.98630526  1
  S  S33  1  0.08094746  0.55834994  0.01316106  1
  S  S34  1  0.67089727  0.49965673  0.90849634  1
  S  S35  1  0.33829435  0.41875222  0.10410298  1
  S  S36  1  0.60252112  0.95933685  0.67351695  1
  S  S37  1  0.42570926  0.95614395  0.37868733  1
  S  S38  1  0.25376553  0.46335929  0.30572233  1
  S  S39  1  0.76221642  0.39418508  0.68409283  1
  S  S40  1  0.66618862  0.96280338  0.44472521  1
  S  S41  1  0.33225933  0.03843159  0.55914499  1
