# generated using pymatgen
data_Pr2Mn3(SbS3)4
_symmetry_space_group_name_H-M   'P 1'
_cell_length_a   20.02960800
_cell_length_b   3.90410600
_cell_length_c   14.95364829
_cell_angle_alpha   90.00000000
_cell_angle_beta   126.33350609
_cell_angle_gamma   90.00000000
_symmetry_Int_Tables_number   1
_chemical_formula_structural   Pr2Mn3(SbS3)4
_chemical_formula_sum   'Pr4 Mn6 Sb8 S24'
_cell_volume   942.00006694
_cell_formula_units_Z   2
loop_
 _symmetry_equiv_pos_site_id
 _symmetry_equiv_pos_as_xyz
  1  'x, y, z'
loop_
 _atom_site_type_symbol
 _atom_site_label
 _atom_site_symmetry_multiplicity
 _atom_site_fract_x
 _atom_site_fract_y
 _atom_site_fract_z
 _atom_site_occupancy
  Pr  Pr0  1  0.26594047  0.52915412  0.86715814  1
  Pr  Pr1  1  0.72858016  0.54647969  0.13016018  1
  Pr  Pr2  1  0.77074901  0.96199020  0.89151278  1
  Pr  Pr3  1  0.24347223  0.99851576  0.14784923  1
  Mn  Mn4  1  0.26905519  0.56114396  0.58029411  1
  Mn  Mn5  1  0.69549525  0.46396504  0.37905278  1
  Mn  Mn6  1  0.99703568  0.95552027  0.00315261  1
  Mn  Mn7  1  0.79192461  0.98443382  0.59977843  1
  Mn  Mn8  1  0.19748727  0.94245739  0.40685883  1
  Mn  Mn9  1  0.49769716  0.51153834  0.00232312  1
  Sb  Sb10  1  0.88839804  0.00873160  0.43766079  1
  Sb  Sb11  1  0.10394225  0.03554154  0.55503625  1
  Sb  Sb12  1  0.03453424  0.53855954  0.80862459  1
  Sb  Sb13  1  0.96307526  0.49851271  0.18912748  1
  Sb  Sb14  1  0.39913041  0.48309735  0.46743562  1
  Sb  Sb15  1  0.61130523  0.44958637  0.57123117  1
  Sb  Sb16  1  0.53483167  0.99754660  0.82547342  1
  Sb  Sb17  1  0.46679179  0.00932183  0.18703739  1
  S  S18  1  0.92344638  0.00632003  0.78711057  1
  S  S19  1  0.05698438  0.97762558  0.18661148  1
  S  S20  1  0.40934984  0.99133174  0.98333165  1
  S  S21  1  0.57417311  0.04106529  0.01767260  1
  S  S22  1  0.16443610  0.00724407  0.89333859  1
  S  S23  1  0.83261078  0.01142152  0.11468111  1
  S  S24  1  0.10506706  0.52475409  0.66260474  1
  S  S25  1  0.88691363  0.48685970  0.33114342  1
  S  S26  1  0.72603750  0.95141996  0.30745725  1
  S  S27  1  0.25899701  0.94752426  0.68172577  1
  S  S28  1  0.15636845  0.44047774  0.43699038  1
  S  S29  1  0.81987259  0.43618761  0.52738266  1
  S  S30  1  0.44448042  0.51842129  0.81955970  1
  S  S31  1  0.56558883  0.47869751  0.19275308  1
  S  S32  1  0.92196652  0.48574780  0.98638592  1
  S  S33  1  0.08102954  0.55987486  0.01287627  1
  S  S34  1  0.67098844  0.50133122  0.90850476  1
  S  S35  1  0.33846612  0.41891207  0.10428209  1
  S  S36  1  0.60253839  0.95980217  0.67317021  1
  S  S37  1  0.42609383  0.95570201  0.37905298  1
  S  S38  1  0.25367806  0.46248531  0.30548365  1
  S  S39  1  0.76216830  0.39473577  0.68411915  1
  S  S40  1  0.66591190  0.96200570  0.44515547  1
  S  S41  1  0.33244732  0.03837283  0.55927817  1
