# generated using pymatgen
data_Pr2Mn3(SbS3)4
_symmetry_space_group_name_H-M   'P 1'
_cell_length_a   20.02960800
_cell_length_b   3.90410600
_cell_length_c   14.95364829
_cell_angle_alpha   90.00000000
_cell_angle_beta   126.33350609
_cell_angle_gamma   90.00000000
_symmetry_Int_Tables_number   1
_chemical_formula_structural   Pr2Mn3(SbS3)4
_chemical_formula_sum   'Pr4 Mn6 Sb8 S24'
_cell_volume   942.00006694
_cell_formula_units_Z   2
loop_
 _symmetry_equiv_pos_site_id
 _symmetry_equiv_pos_as_xyz
  1  'x, y, z'
loop_
 _atom_site_type_symbol
 _atom_site_label
 _atom_site_symmetry_multiplicity
 _atom_site_fract_x
 _atom_site_fract_y
 _atom_site_fract_z
 _atom_site_occupancy
  Pr  Pr0  1  0.26589071  0.52930386  0.86711150  1
  Pr  Pr1  1  0.72838610  0.54671362  0.13008728  1
  Pr  Pr2  1  0.77075980  0.96284233  0.89133859  1
  Pr  Pr3  1  0.24352704  0.99780483  0.14784339  1
  Mn  Mn4  1  0.26879575  0.56147042  0.57991749  1
  Mn  Mn5  1  0.69546803  0.46422827  0.37883232  1
  Mn  Mn6  1  0.99678948  0.95558595  0.00320768  1
  Mn  Mn7  1  0.79194090  0.98453690  0.59957938  1
  Mn  Mn8  1  0.19734979  0.94155178  0.40693533  1
  Mn  Mn9  1  0.49759321  0.51123311  0.00211675  1
  Sb  Sb10  1  0.88823189  0.00847054  0.43772250  1
  Sb  Sb11  1  0.10394339  0.03531304  0.55499164  1
  Sb  Sb12  1  0.03450516  0.53854247  0.80866933  1
  Sb  Sb13  1  0.96299998  0.49864933  0.18891596  1
  Sb  Sb14  1  0.39925778  0.48305367  0.46744427  1
  Sb  Sb15  1  0.61124919  0.45017991  0.57098986  1
  Sb  Sb16  1  0.53476222  0.99705294  0.82533887  1
  Sb  Sb17  1  0.46692352  0.00991321  0.18706076  1
  S  S18  1  0.92363060  0.00551039  0.78765093  1
  S  S19  1  0.05701366  0.97785226  0.18673345  1
  S  S20  1  0.40918241  0.99168555  0.98290477  1
  S  S21  1  0.57396896  0.04214409  0.01731438  1
  S  S22  1  0.16434991  0.01020920  0.89331559  1
  S  S23  1  0.83242415  0.01109886  0.11434999  1
  S  S24  1  0.10494964  0.52479280  0.66260113  1
  S  S25  1  0.88731374  0.48664345  0.33159845  1
  S  S26  1  0.72533210  0.95005898  0.30680712  1
  S  S27  1  0.25894007  0.94795054  0.68168334  1
  S  S28  1  0.15609786  0.44111138  0.43684715  1
  S  S29  1  0.82021052  0.43741501  0.52750642  1
  S  S30  1  0.44462164  0.51774640  0.82011015  1
  S  S31  1  0.56584183  0.47889200  0.19310315  1
  S  S32  1  0.92205834  0.48525247  0.98645432  1
  S  S33  1  0.08117138  0.56069447  0.01267078  1
  S  S34  1  0.67117648  0.50264649  0.90861975  1
  S  S35  1  0.33865722  0.41906245  0.10445736  1
  S  S36  1  0.60267285  0.96012019  0.67305304  1
  S  S37  1  0.42641020  0.95511224  0.37923895  1
  S  S38  1  0.25347720  0.46102959  0.30506082  1
  S  S39  1  0.76216945  0.39501374  0.68411036  1
  S  S40  1  0.66560998  0.96178425  0.44545683  1
  S  S41  1  0.33255537  0.03876968  0.55920385  1
