# generated using pymatgen
data_Pr2Mn3(SbS3)4
_symmetry_space_group_name_H-M   'P 1'
_cell_length_a   20.02960800
_cell_length_b   3.90410600
_cell_length_c   14.95364829
_cell_angle_alpha   90.00000000
_cell_angle_beta   126.33350609
_cell_angle_gamma   90.00000000
_symmetry_Int_Tables_number   1
_chemical_formula_structural   Pr2Mn3(SbS3)4
_chemical_formula_sum   'Pr4 Mn6 Sb8 S24'
_cell_volume   942.00006694
_cell_formula_units_Z   2
loop_
 _symmetry_equiv_pos_site_id
 _symmetry_equiv_pos_as_xyz
  1  'x, y, z'
loop_
 _atom_site_type_symbol
 _atom_site_label
 _atom_site_symmetry_multiplicity
 _atom_site_fract_x
 _atom_site_fract_y
 _atom_site_fract_z
 _atom_site_occupancy
  Pr  Pr0  1  0.26577792  0.52957850  0.86706842  1
  Pr  Pr1  1  0.72817762  0.54717968  0.13000664  1
  Pr  Pr2  1  0.77074739  0.96339792  0.89115261  1
  Pr  Pr3  1  0.24367095  0.99695543  0.14783690  1
  Mn  Mn4  1  0.26853593  0.56205248  0.57970687  1
  Mn  Mn5  1  0.69540042  0.46442184  0.37841134  1
  Mn  Mn6  1  0.99663317  0.95580207  0.00344915  1
  Mn  Mn7  1  0.79191190  0.98463216  0.59923654  1
  Mn  Mn8  1  0.19719086  0.94075534  0.40704978  1
  Mn  Mn9  1  0.49757233  0.51132147  0.00196825  1
  Sb  Sb10  1  0.88812145  0.00834987  0.43778069  1
  Sb  Sb11  1  0.10391946  0.03507309  0.55501204  1
  Sb  Sb12  1  0.03448103  0.53844610  0.80877869  1
  Sb  Sb13  1  0.96298848  0.49882454  0.18889250  1
  Sb  Sb14  1  0.39937318  0.48273343  0.46737847  1
  Sb  Sb15  1  0.61123776  0.45064787  0.57077360  1
  Sb  Sb16  1  0.53477559  0.99633610  0.82521967  1
  Sb  Sb17  1  0.46708173  0.01057207  0.18705531  1
  S  S18  1  0.92376967  0.00520574  0.78809983  1
  S  S19  1  0.05716063  0.97876269  0.18698583  1
  S  S20  1  0.40908847  0.99179917  0.98255020  1
  S  S21  1  0.57386479  0.04249351  0.01723269  1
  S  S22  1  0.16423912  0.01316499  0.89319850  1
  S  S23  1  0.83218136  0.01082989  0.11418789  1
  S  S24  1  0.10473205  0.52539946  0.66268382  1
  S  S25  1  0.88770640  0.48616941  0.33191224  1
  S  S26  1  0.72470804  0.94904300  0.30640534  1
  S  S27  1  0.25892171  0.94818137  0.68153683  1
  S  S28  1  0.15570857  0.44098802  0.43650760  1
  S  S29  1  0.82035397  0.43792464  0.52747335  1
  S  S30  1  0.44484133  0.51643109  0.82058771  1
  S  S31  1  0.56604798  0.47912143  0.19343024  1
  S  S32  1  0.92226895  0.48481387  0.98658056  1
  S  S33  1  0.08129057  0.56193026  0.01237189  1
  S  S34  1  0.67122609  0.50336996  0.90846925  1
  S  S35  1  0.33872374  0.41913285  0.10455382  1
  S  S36  1  0.60273553  0.96129836  0.67298106  1
  S  S37  1  0.42684152  0.95529786  0.37950622  1
  S  S38  1  0.25324867  0.45935802  0.30465226  1
  S  S39  1  0.76208463  0.39536422  0.68402424  1
  S  S40  1  0.66545209  0.96199773  0.44582987  1
  S  S41  1  0.33267956  0.03860991  0.55921653  1
