# generated using pymatgen
data_Pr2Mn3(SbS3)4
_symmetry_space_group_name_H-M   'P 1'
_cell_length_a   20.02960800
_cell_length_b   3.90410600
_cell_length_c   14.95364829
_cell_angle_alpha   90.00000000
_cell_angle_beta   126.33350609
_cell_angle_gamma   90.00000000
_symmetry_Int_Tables_number   1
_chemical_formula_structural   Pr2Mn3(SbS3)4
_chemical_formula_sum   'Pr4 Mn6 Sb8 S24'
_cell_volume   942.00006694
_cell_formula_units_Z   2
loop_
 _symmetry_equiv_pos_site_id
 _symmetry_equiv_pos_as_xyz
  1  'x, y, z'
loop_
 _atom_site_type_symbol
 _atom_site_label
 _atom_site_symmetry_multiplicity
 _atom_site_fract_x
 _atom_site_fract_y
 _atom_site_fract_z
 _atom_site_occupancy
  Pr  Pr0  1  0.26574504  0.52964270  0.86708397  1
  Pr  Pr1  1  0.72786065  0.54762504  0.12980156  1
  Pr  Pr2  1  0.77073790  0.96394028  0.89097274  1
  Pr  Pr3  1  0.24376627  0.99594657  0.14780186  1
  Mn  Mn4  1  0.26845222  0.56224633  0.57967885  1
  Mn  Mn5  1  0.69535117  0.46485764  0.37816301  1
  Mn  Mn6  1  0.99664369  0.95580436  0.00381122  1
  Mn  Mn7  1  0.79193209  0.98515351  0.59893431  1
  Mn  Mn8  1  0.19708928  0.94006661  0.40715455  1
  Mn  Mn9  1  0.49751560  0.51083954  0.00173028  1
  Sb  Sb10  1  0.88801852  0.00811196  0.43787469  1
  Sb  Sb11  1  0.10383965  0.03491937  0.55499110  1
  Sb  Sb12  1  0.03446710  0.53836594  0.80887345  1
  Sb  Sb13  1  0.96297784  0.49896287  0.18884427  1
  Sb  Sb14  1  0.39947144  0.48278016  0.46728188  1
  Sb  Sb15  1  0.61113972  0.45083744  0.57051705  1
  Sb  Sb16  1  0.53474936  0.99582663  0.82507330  1
  Sb  Sb17  1  0.46716998  0.01135444  0.18698499  1
  S  S18  1  0.92390559  0.00434975  0.78860206  1
  S  S19  1  0.05735246  0.97926515  0.18720307  1
  S  S20  1  0.40893532  0.99123960  0.98230087  1
  S  S21  1  0.57394002  0.04305721  0.01708120  1
  S  S22  1  0.16398889  0.01579641  0.89307580  1
  S  S23  1  0.83207570  0.01051133  0.11429866  1
  S  S24  1  0.10457415  0.52553154  0.66286980  1
  S  S25  1  0.88810371  0.48586527  0.33217829  1
  S  S26  1  0.72419738  0.94866732  0.30604654  1
  S  S27  1  0.25877007  0.94900793  0.68127163  1
  S  S28  1  0.15550868  0.44029554  0.43644616  1
  S  S29  1  0.82050701  0.43842665  0.52747737  1
  S  S30  1  0.44516938  0.51496122  0.82109422  1
  S  S31  1  0.56630618  0.47894208  0.19371262  1
  S  S32  1  0.92246315  0.48446151  0.98667286  1
  S  S33  1  0.08169651  0.56339174  0.01228933  1
  S  S34  1  0.67134016  0.50396123  0.90837106  1
  S  S35  1  0.33883597  0.42018184  0.10458672  1
  S  S36  1  0.60269799  0.96211762  0.67290554  1
  S  S37  1  0.42719746  0.95596861  0.37970083  1
  S  S38  1  0.25290212  0.45794518  0.30415899  1
  S  S39  1  0.76218274  0.39557990  0.68418105  1
  S  S40  1  0.66524751  0.96152799  0.44610216  1
  S  S41  1  0.33278813  0.03872620  0.55922309  1
