# generated using pymatgen
data_Pr2Mn3(SbS3)4
_symmetry_space_group_name_H-M   'P 1'
_cell_length_a   20.02960800
_cell_length_b   3.90410600
_cell_length_c   14.95364829
_cell_angle_alpha   90.00000000
_cell_angle_beta   126.33350609
_cell_angle_gamma   90.00000000
_symmetry_Int_Tables_number   1
_chemical_formula_structural   Pr2Mn3(SbS3)4
_chemical_formula_sum   'Pr4 Mn6 Sb8 S24'
_cell_volume   942.00006694
_cell_formula_units_Z   2
loop_
 _symmetry_equiv_pos_site_id
 _symmetry_equiv_pos_as_xyz
  1  'x, y, z'
loop_
 _atom_site_type_symbol
 _atom_site_label
 _atom_site_symmetry_multiplicity
 _atom_site_fract_x
 _atom_site_fract_y
 _atom_site_fract_z
 _atom_site_occupancy
  Pr  Pr0  1  0.26574668  0.52992424  0.86709111  1
  Pr  Pr1  1  0.72755813  0.54810632  0.12960574  1
  Pr  Pr2  1  0.77078760  0.96448664  0.89089389  1
  Pr  Pr3  1  0.24391796  0.99493719  0.14782582  1
  Mn  Mn4  1  0.26840431  0.56237570  0.57976853  1
  Mn  Mn5  1  0.69527033  0.46511419  0.37795018  1
  Mn  Mn6  1  0.99664516  0.95593931  0.00408582  1
  Mn  Mn7  1  0.79198166  0.98517576  0.59870375  1
  Mn  Mn8  1  0.19703192  0.93969073  0.40739819  1
  Mn  Mn9  1  0.49745575  0.50992803  0.00153139  1
  Sb  Sb10  1  0.88796491  0.00811235  0.43802207  1
  Sb  Sb11  1  0.10385589  0.03480682  0.55506852  1
  Sb  Sb12  1  0.03450390  0.53867943  0.80901644  1
  Sb  Sb13  1  0.96293342  0.49891190  0.18881950  1
  Sb  Sb14  1  0.39953753  0.48269048  0.46715254  1
  Sb  Sb15  1  0.61107989  0.45081070  0.57031355  1
  Sb  Sb16  1  0.53472170  0.99529597  0.82488625  1
  Sb  Sb17  1  0.46727423  0.01156572  0.18692735  1
  S  S18  1  0.92397057  0.00366460  0.78883940  1
  S  S19  1  0.05747790  0.97986877  0.18751963  1
  S  S20  1  0.40877756  0.99020623  0.98216062  1
  S  S21  1  0.57408203  0.04399204  0.01709073  1
  S  S22  1  0.16379723  0.01802806  0.89281162  1
  S  S23  1  0.83215862  0.01004566  0.11445031  1
  S  S24  1  0.10437690  0.52561834  0.66296033  1
  S  S25  1  0.88841926  0.48597504  0.33254552  1
  S  S26  1  0.72394157  0.94853760  0.30572076  1
  S  S27  1  0.25867030  0.94923084  0.68105943  1
  S  S28  1  0.15529801  0.43981276  0.43604232  1
  S  S29  1  0.82073686  0.43840866  0.52772397  1
  S  S30  1  0.44543725  0.51351712  0.82156923  1
  S  S31  1  0.56642465  0.47859583  0.19384555  1
  S  S32  1  0.92268826  0.48453853  0.98688815  1
  S  S33  1  0.08190819  0.56475996  0.01215724  1
  S  S34  1  0.67124543  0.50532112  0.90806792  1
  S  S35  1  0.33895338  0.42075384  0.10471018  1
  S  S36  1  0.60271177  0.96297127  0.67289934  1
  S  S37  1  0.42743929  0.95563200  0.37999995  1
  S  S38  1  0.25249418  0.45707728  0.30362202  1
  S  S39  1  0.76224895  0.39538391  0.68424232  1
  S  S40  1  0.66496738  0.96114348  0.44626579  1
  S  S41  1  0.33280779  0.03876677  0.55913500  1
