# generated using pymatgen
data_Pr2Mn3(SbS3)4
_symmetry_space_group_name_H-M   'P 1'
_cell_length_a   20.02960800
_cell_length_b   3.90410600
_cell_length_c   14.95364829
_cell_angle_alpha   90.00000000
_cell_angle_beta   126.33350609
_cell_angle_gamma   90.00000000
_symmetry_Int_Tables_number   1
_chemical_formula_structural   Pr2Mn3(SbS3)4
_chemical_formula_sum   'Pr4 Mn6 Sb8 S24'
_cell_volume   942.00006694
_cell_formula_units_Z   2
loop_
 _symmetry_equiv_pos_site_id
 _symmetry_equiv_pos_as_xyz
  1  'x, y, z'
loop_
 _atom_site_type_symbol
 _atom_site_label
 _atom_site_symmetry_multiplicity
 _atom_site_fract_x
 _atom_site_fract_y
 _atom_site_fract_z
 _atom_site_occupancy
  Pr  Pr0  1  0.26580766  0.53021065  0.86711354  1
  Pr  Pr1  1  0.72730420  0.54857880  0.12934651  1
  Pr  Pr2  1  0.77074785  0.96463280  0.89082172  1
  Pr  Pr3  1  0.24407944  0.99413514  0.14793716  1
  Mn  Mn4  1  0.26848803  0.56296635  0.57999385  1
  Mn  Mn5  1  0.69520415  0.46589308  0.37779359  1
  Mn  Mn6  1  0.99653540  0.95680302  0.00427344  1
  Mn  Mn7  1  0.79223193  0.98566041  0.59862052  1
  Mn  Mn8  1  0.19686462  0.93940357  0.40760239  1
  Mn  Mn9  1  0.49738538  0.50916018  0.00148250  1
  Sb  Sb10  1  0.88788071  0.00825976  0.43811124  1
  Sb  Sb11  1  0.10391463  0.03485651  0.55517445  1
  Sb  Sb12  1  0.03450924  0.53858158  0.80915089  1
  Sb  Sb13  1  0.96298546  0.49871571  0.18890378  1
  Sb  Sb14  1  0.39961465  0.48273057  0.46703818  1
  Sb  Sb15  1  0.61108534  0.45087797  0.57016873  1
  Sb  Sb16  1  0.53471067  0.99499506  0.82470283  1
  Sb  Sb17  1  0.46744040  0.01179230  0.18682915  1
  S  S18  1  0.92415965  0.00315504  0.78908286  1
  S  S19  1  0.05779767  0.98069555  0.18809067  1
  S  S20  1  0.40853460  0.98921613  0.98192941  1
  S  S21  1  0.57420251  0.04498317  0.01717400  1
  S  S22  1  0.16360846  0.01988269  0.89261230  1
  S  S23  1  0.83242587  0.00963227  0.11459380  1
  S  S24  1  0.10422372  0.52560437  0.66314620  1
  S  S25  1  0.88845892  0.48575376  0.33261855  1
  S  S26  1  0.72375407  0.94892446  0.30536300  1
  S  S27  1  0.25865333  0.94906250  0.68074810  1
  S  S28  1  0.15516223  0.43886394  0.43584834  1
  S  S29  1  0.82105387  0.43860382  0.52816288  1
  S  S30  1  0.44568266  0.51225130  0.82213029  1
  S  S31  1  0.56652424  0.47851420  0.19409224  1
  S  S32  1  0.92296722  0.48437568  0.98717379  1
  S  S33  1  0.08207849  0.56585270  0.01207773  1
  S  S34  1  0.67110670  0.50613407  0.90785291  1
  S  S35  1  0.33907455  0.42108136  0.10482251  1
  S  S36  1  0.60270128  0.96326826  0.67284266  1
  S  S37  1  0.42761018  0.95494125  0.38042792  1
  S  S38  1  0.25211000  0.45651462  0.30315468  1
  S  S39  1  0.76230229  0.39497976  0.68428660  1
  S  S40  1  0.66477119  0.96050258  0.44645393  1
  S  S41  1  0.33266468  0.03869220  0.55905532  1
