# generated using pymatgen
data_Pr2Mn3(SbS3)4
_symmetry_space_group_name_H-M   'P 1'
_cell_length_a   20.02960800
_cell_length_b   3.90410600
_cell_length_c   14.95364829
_cell_angle_alpha   90.00000000
_cell_angle_beta   126.33350609
_cell_angle_gamma   90.00000000
_symmetry_Int_Tables_number   1
_chemical_formula_structural   Pr2Mn3(SbS3)4
_chemical_formula_sum   'Pr4 Mn6 Sb8 S24'
_cell_volume   942.00006694
_cell_formula_units_Z   2
loop_
 _symmetry_equiv_pos_site_id
 _symmetry_equiv_pos_as_xyz
  1  'x, y, z'
loop_
 _atom_site_type_symbol
 _atom_site_label
 _atom_site_symmetry_multiplicity
 _atom_site_fract_x
 _atom_site_fract_y
 _atom_site_fract_z
 _atom_site_occupancy
  Pr  Pr0  1  0.26584656  0.53041159  0.86716437  1
  Pr  Pr1  1  0.72704875  0.54878321  0.12909840  1
  Pr  Pr2  1  0.77065881  0.96460632  0.89070248  1
  Pr  Pr3  1  0.24415585  0.99347921  0.14795906  1
  Mn  Mn4  1  0.26853110  0.56395836  0.58014647  1
  Mn  Mn5  1  0.69517160  0.46634211  0.37775656  1
  Mn  Mn6  1  0.99644613  0.95724630  0.00449263  1
  Mn  Mn7  1  0.79260179  0.98630188  0.59857825  1
  Mn  Mn8  1  0.19669327  0.93960010  0.40768334  1
  Mn  Mn9  1  0.49740070  0.50862072  0.00145488  1
  Sb  Sb10  1  0.88775233  0.00844377  0.43817028  1
  Sb  Sb11  1  0.10392266  0.03551302  0.55520523  1
  Sb  Sb12  1  0.03455936  0.53837009  0.80928024  1
  Sb  Sb13  1  0.96302303  0.49882595  0.18895587  1
  Sb  Sb14  1  0.39969715  0.48298560  0.46693934  1
  Sb  Sb15  1  0.61108233  0.45095358  0.57009572  1
  Sb  Sb16  1  0.53467227  0.99493454  0.82456451  1
  Sb  Sb17  1  0.46761984  0.01194254  0.18684689  1
  S  S18  1  0.92432835  0.00226477  0.78943041  1
  S  S19  1  0.05815445  0.98163694  0.18882122  1
  S  S20  1  0.40824980  0.98817612  0.98169880  1
  S  S21  1  0.57434131  0.04600701  0.01719336  1
  S  S22  1  0.16349892  0.02163147  0.89263349  1
  S  S23  1  0.83272679  0.00911327  0.11469499  1
  S  S24  1  0.10411778  0.52542471  0.66337529  1
  S  S25  1  0.88855258  0.48639312  0.33282104  1
  S  S26  1  0.72359289  0.94954344  0.30510964  1
  S  S27  1  0.25869371  0.94909701  0.68035430  1
  S  S28  1  0.15499499  0.43817961  0.43560897  1
  S  S29  1  0.82143341  0.43849664  0.52869198  1
  S  S30  1  0.44588626  0.51149842  0.82258028  1
  S  S31  1  0.56662376  0.47829027  0.19445180  1
  S  S32  1  0.92299531  0.48414626  0.98724076  1
  S  S33  1  0.08211810  0.56726108  0.01197990  1
  S  S34  1  0.67120442  0.50719249  0.90785798  1
  S  S35  1  0.33905950  0.42105090  0.10483748  1
  S  S36  1  0.60270496  0.96386025  0.67264259  1
  S  S37  1  0.42773331  0.95505026  0.38079467  1
  S  S38  1  0.25174116  0.45617659  0.30270144  1
  S  S39  1  0.76227322  0.39529851  0.68414428  1
  S  S40  1  0.66450658  0.96027843  0.44654709  1
  S  S41  1  0.33265232  0.03947160  0.55911621  1
