# generated using pymatgen
data_Pr2Mn3(SbS3)4
_symmetry_space_group_name_H-M   'P 1'
_cell_length_a   20.02960800
_cell_length_b   3.90410600
_cell_length_c   14.95364829
_cell_angle_alpha   90.00000000
_cell_angle_beta   126.33350609
_cell_angle_gamma   90.00000000
_symmetry_Int_Tables_number   1
_chemical_formula_structural   Pr2Mn3(SbS3)4
_chemical_formula_sum   'Pr4 Mn6 Sb8 S24'
_cell_volume   942.00006694
_cell_formula_units_Z   2
loop_
 _symmetry_equiv_pos_site_id
 _symmetry_equiv_pos_as_xyz
  1  'x, y, z'
loop_
 _atom_site_type_symbol
 _atom_site_label
 _atom_site_symmetry_multiplicity
 _atom_site_fract_x
 _atom_site_fract_y
 _atom_site_fract_z
 _atom_site_occupancy
  Pr  Pr0  1  0.26589163  0.53048285  0.86724448  1
  Pr  Pr1  1  0.72683314  0.54878169  0.12894738  1
  Pr  Pr2  1  0.77053568  0.96440063  0.89068253  1
  Pr  Pr3  1  0.24428448  0.99305817  0.14807035  1
  Mn  Mn4  1  0.26853071  0.56514685  0.58022298  1
  Mn  Mn5  1  0.69514082  0.46709878  0.37774076  1
  Mn  Mn6  1  0.99640867  0.95815897  0.00476721  1
  Mn  Mn7  1  0.79280387  0.98703507  0.59851950  1
  Mn  Mn8  1  0.19657437  0.93989965  0.40785405  1
  Mn  Mn9  1  0.49742486  0.50845291  0.00141444  1
  Sb  Sb10  1  0.88765427  0.00852393  0.43823666  1
  Sb  Sb11  1  0.10389977  0.03614566  0.55510128  1
  Sb  Sb12  1  0.03453675  0.53845704  0.80931377  1
  Sb  Sb13  1  0.96303942  0.49923926  0.18897840  1
  Sb  Sb14  1  0.39975640  0.48341298  0.46674448  1
  Sb  Sb15  1  0.61107357  0.45102452  0.57017564  1
  Sb  Sb16  1  0.53460781  0.99464644  0.82432926  1
  Sb  Sb17  1  0.46788804  0.01250539  0.18694207  1
  S  S18  1  0.92453059  0.00114099  0.78978272  1
  S  S19  1  0.05836835  0.98266814  0.18931309  1
  S  S20  1  0.40804523  0.98706220  0.98168241  1
  S  S21  1  0.57437429  0.04670559  0.01719283  1
  S  S22  1  0.16325859  0.02308766  0.89276852  1
  S  S23  1  0.83299421  0.00881632  0.11474559  1
  S  S24  1  0.10390443  0.52523423  0.66359917  1
  S  S25  1  0.88857308  0.48662785  0.33281211  1
  S  S26  1  0.72342480  0.95066799  0.30473451  1
  S  S27  1  0.25876806  0.94938042  0.67978499  1
  S  S28  1  0.15464993  0.43768796  0.43529038  1
  S  S29  1  0.82172289  0.43861184  0.52914615  1
  S  S30  1  0.44603742  0.51103785  0.82294208  1
  S  S31  1  0.56667521  0.47768099  0.19465174  1
  S  S32  1  0.92308945  0.48392388  0.98734543  1
  S  S33  1  0.08213584  0.56889267  0.01187447  1
  S  S34  1  0.67140933  0.50763726  0.90792512  1
  S  S35  1  0.33921739  0.42072727  0.10474262  1
  S  S36  1  0.60274736  0.96496937  0.67251007  1
  S  S37  1  0.42791625  0.95495081  0.38116392  1
  S  S38  1  0.25142550  0.45584020  0.30218745  1
  S  S39  1  0.76227647  0.39583726  0.68395932  1
  S  S40  1  0.66416014  0.95958700  0.44669145  1
  S  S41  1  0.33247715  0.04000820  0.55909341  1
