# generated using pymatgen
data_Pr2Mn3(SbS3)4
_symmetry_space_group_name_H-M   'P 1'
_cell_length_a   20.02960800
_cell_length_b   3.90410600
_cell_length_c   14.95364829
_cell_angle_alpha   90.00000000
_cell_angle_beta   126.33350609
_cell_angle_gamma   90.00000000
_symmetry_Int_Tables_number   1
_chemical_formula_structural   Pr2Mn3(SbS3)4
_chemical_formula_sum   'Pr4 Mn6 Sb8 S24'
_cell_volume   942.00006694
_cell_formula_units_Z   2
loop_
 _symmetry_equiv_pos_site_id
 _symmetry_equiv_pos_as_xyz
  1  'x, y, z'
loop_
 _atom_site_type_symbol
 _atom_site_label
 _atom_site_symmetry_multiplicity
 _atom_site_fract_x
 _atom_site_fract_y
 _atom_site_fract_z
 _atom_site_occupancy
  Pr  Pr0  1  0.26905540  0.49900815  0.86617324  1
  Pr  Pr1  1  0.73401484  0.50907118  0.13377114  1
  Pr  Pr2  1  0.76335190  0.02060008  0.86112979  1
  Pr  Pr3  1  0.23406484  0.99689104  0.13222993  1
  Mn  Mn4  1  0.29210555  0.47321961  0.59466209  1
  Mn  Mn5  1  0.68534330  0.46689837  0.36516567  1
  Mn  Mn6  1  0.00728540  0.99475107  0.01471634  1
  Mn  Mn7  1  0.80081966  0.01026131  0.61963175  1
  Mn  Mn8  1  0.19825452  0.97500172  0.37212859  1
  Mn  Mn9  1  0.48889438  0.46683957  0.98876333  1
  Sb  Sb10  1  0.89072964  0.98373743  0.45220015  1
  Sb  Sb11  1  0.10988743  0.97799294  0.54383447  1
  Sb  Sb12  1  0.03527716  0.52032383  0.81873307  1
  Sb  Sb13  1  0.96472610  0.50030369  0.18894807  1
  Sb  Sb14  1  0.39354810  0.49749841  0.44963143  1
  Sb  Sb15  1  0.60586268  0.46993154  0.54833589  1
  Sb  Sb16  1  0.53340829  0.98751027  0.80806127  1
  Sb  Sb17  1  0.46520510  0.02303018  0.19148090  1
  S  S18  1  0.93809765  0.01404342  0.80818236  1
  S  S19  1  0.06378178  0.97987088  0.19749185  1
  S  S20  1  0.42149167  0.96019681  0.99250582  1
  S  S21  1  0.58265448  0.03450656  0.01271019  1
  S  S22  1  0.17303289  0.05629111  0.90168739  1
  S  S23  1  0.82934484  0.05344697  0.10414379  1
  S  S24  1  0.09198259  0.50020819  0.64824053  1
  S  S25  1  0.91457988  0.48625667  0.35809764  1
  S  S26  1  0.73527715  0.97181831  0.29745332  1
  S  S27  1  0.26086850  0.00169792  0.70949189  1
  S  S28  1  0.16387857  0.51878373  0.43051250  1
  S  S29  1  0.81989867  0.48103406  0.54767843  1
  S  S30  1  0.43112993  0.47969584  0.79526166  1
  S  S31  1  0.55339374  0.51908381  0.18011548  1
  S  S32  1  0.91532358  0.48743659  0.98833221  1
  S  S33  1  0.08835203  0.49855762  0.03167773  1
  S  S34  1  0.66423001  0.54617146  0.89086758  1
  S  S35  1  0.32707158  0.50713525  0.09346943  1
  S  S36  1  0.59780282  0.00439749  0.65789668  1
  S  S37  1  0.40068596  0.98111844  0.34297781  1
  S  S38  1  0.24242619  0.47138809  0.31567101  1
  S  S39  1  0.76004720  0.52208566  0.68860975  1
  S  S40  1  0.66521062  0.00790784  0.44966798  1
  S  S41  1  0.33120890  0.98451452  0.55565462  1
