# generated using pymatgen
data_Pr2Mn3(SbS3)4
_symmetry_space_group_name_H-M   'P 1'
_cell_length_a   20.02960800
_cell_length_b   3.90410600
_cell_length_c   14.95364829
_cell_angle_alpha   90.00000000
_cell_angle_beta   126.33350609
_cell_angle_gamma   90.00000000
_symmetry_Int_Tables_number   1
_chemical_formula_structural   Pr2Mn3(SbS3)4
_chemical_formula_sum   'Pr4 Mn6 Sb8 S24'
_cell_volume   942.00006694
_cell_formula_units_Z   2
loop_
 _symmetry_equiv_pos_site_id
 _symmetry_equiv_pos_as_xyz
  1  'x, y, z'
loop_
 _atom_site_type_symbol
 _atom_site_label
 _atom_site_symmetry_multiplicity
 _atom_site_fract_x
 _atom_site_fract_y
 _atom_site_fract_z
 _atom_site_occupancy
  Pr  Pr0  1  0.26597963  0.53068850  0.86736577  1
  Pr  Pr1  1  0.72666420  0.54878988  0.12883900  1
  Pr  Pr2  1  0.77040694  0.96407470  0.89062736  1
  Pr  Pr3  1  0.24439868  0.99257202  0.14815833  1
  Mn  Mn4  1  0.26852735  0.56679495  0.58033422  1
  Mn  Mn5  1  0.69515499  0.46769913  0.37771290  1
  Mn  Mn6  1  0.99627087  0.95906994  0.00500621  1
  Mn  Mn7  1  0.79295383  0.98757562  0.59836572  1
  Mn  Mn8  1  0.19651634  0.94008500  0.40810129  1
  Mn  Mn9  1  0.49749945  0.50867182  0.00135713  1
  Sb  Sb10  1  0.88766809  0.00852990  0.43831533  1
  Sb  Sb11  1  0.10390412  0.03670731  0.55504705  1
  Sb  Sb12  1  0.03454951  0.53846441  0.80927803  1
  Sb  Sb13  1  0.96304633  0.49944308  0.18902985  1
  Sb  Sb14  1  0.39982711  0.48400607  0.46660023  1
  Sb  Sb15  1  0.61106201  0.45091421  0.57021150  1
  Sb  Sb16  1  0.53451809  0.99460575  0.82411237  1
  Sb  Sb17  1  0.46815603  0.01295786  0.18709879  1
  S  S18  1  0.92464977  0.00030212  0.79004874  1
  S  S19  1  0.05848666  0.98353406  0.18967045  1
  S  S20  1  0.40772568  0.98663395  0.98147973  1
  S  S21  1  0.57451379  0.04738113  0.01717461  1
  S  S22  1  0.16305680  0.02440756  0.89296266  1
  S  S23  1  0.83331733  0.00822682  0.11504705  1
  S  S24  1  0.10347078  0.52503605  0.66360019  1
  S  S25  1  0.88843276  0.48695031  0.33271117  1
  S  S26  1  0.72338886  0.95147858  0.30455993  1
  S  S27  1  0.25882820  0.94997665  0.67919790  1
  S  S28  1  0.15422827  0.43709216  0.43526660  1
  S  S29  1  0.82195574  0.43842406  0.52943017  1
  S  S30  1  0.44607775  0.50947104  0.82318718  1
  S  S31  1  0.56662492  0.47755368  0.19466481  1
  S  S32  1  0.92316241  0.48393332  0.98742430  1
  S  S33  1  0.08230164  0.57010240  0.01199844  1
  S  S34  1  0.67165853  0.50835627  0.90808113  1
  S  S35  1  0.33933919  0.42015324  0.10460642  1
  S  S36  1  0.60272352  0.96594127  0.67232717  1
  S  S37  1  0.42803143  0.95540019  0.38136778  1
  S  S38  1  0.25119843  0.45567834  0.30184592  1
  S  S39  1  0.76226639  0.39627166  0.68373015  1
  S  S40  1  0.66394830  0.95909959  0.44679354  1
  S  S41  1  0.33242216  0.04089328  0.55904535  1
