# generated using pymatgen
data_Pr2Mn3(SbS3)4
_symmetry_space_group_name_H-M   'P 1'
_cell_length_a   20.02960800
_cell_length_b   3.90410600
_cell_length_c   14.95364829
_cell_angle_alpha   90.00000000
_cell_angle_beta   126.33350609
_cell_angle_gamma   90.00000000
_symmetry_Int_Tables_number   1
_chemical_formula_structural   Pr2Mn3(SbS3)4
_chemical_formula_sum   'Pr4 Mn6 Sb8 S24'
_cell_volume   942.00006694
_cell_formula_units_Z   2
loop_
 _symmetry_equiv_pos_site_id
 _symmetry_equiv_pos_as_xyz
  1  'x, y, z'
loop_
 _atom_site_type_symbol
 _atom_site_label
 _atom_site_symmetry_multiplicity
 _atom_site_fract_x
 _atom_site_fract_y
 _atom_site_fract_z
 _atom_site_occupancy
  Pr  Pr0  1  0.26605424  0.53109467  0.86748164  1
  Pr  Pr1  1  0.72651540  0.54863478  0.12873142  1
  Pr  Pr2  1  0.77024038  0.96420045  0.89053813  1
  Pr  Pr3  1  0.24451187  0.99219322  0.14826960  1
  Mn  Mn4  1  0.26847713  0.56825770  0.58042412  1
  Mn  Mn5  1  0.69532226  0.46799725  0.37793533  1
  Mn  Mn6  1  0.99608372  0.95975726  0.00512944  1
  Mn  Mn7  1  0.79303157  0.98832007  0.59819191  1
  Mn  Mn8  1  0.19660572  0.94040663  0.40836357  1
  Mn  Mn9  1  0.49762356  0.50877226  0.00132579  1
  Sb  Sb10  1  0.88765840  0.00856807  0.43837923  1
  Sb  Sb11  1  0.10391141  0.03705818  0.55497533  1
  Sb  Sb12  1  0.03454112  0.53866609  0.80928818  1
  Sb  Sb13  1  0.96307324  0.49965623  0.18903119  1
  Sb  Sb14  1  0.39988872  0.48416621  0.46655563  1
  Sb  Sb15  1  0.61109277  0.45120145  0.57024257  1
  Sb  Sb16  1  0.53441070  0.99455209  0.82397505  1
  Sb  Sb17  1  0.46847101  0.01293941  0.18737315  1
  S  S18  1  0.92470918  0.99966789  0.79003533  1
  S  S19  1  0.05853900  0.98453833  0.18999229  1
  S  S20  1  0.40744944  0.98572717  0.98131713  1
  S  S21  1  0.57453571  0.04818279  0.01701945  1
  S  S22  1  0.16287289  0.02538921  0.89316055  1
  S  S23  1  0.83352944  0.00686932  0.11523846  1
  S  S24  1  0.10302999  0.52464736  0.66344556  1
  S  S25  1  0.88837929  0.48743201  0.33263233  1
  S  S26  1  0.72349479  0.95095692  0.30456583  1
  S  S27  1  0.25885209  0.95070946  0.67857085  1
  S  S28  1  0.15398697  0.43590346  0.43535208  1
  S  S29  1  0.82230409  0.43843868  0.52997291  1
  S  S30  1  0.44597336  0.50787363  0.82319474  1
  S  S31  1  0.56658415  0.47750461  0.19472362  1
  S  S32  1  0.92327847  0.48401428  0.98759846  1
  S  S33  1  0.08247465  0.57140798  0.01202130  1
  S  S34  1  0.67190068  0.50905890  0.90809923  1
  S  S35  1  0.33953205  0.41911068  0.10462237  1
  S  S36  1  0.60287583  0.96657119  0.67220587  1
  S  S37  1  0.42814028  0.95582224  0.38159203  1
  S  S38  1  0.25090468  0.45567447  0.30156504  1
  S  S39  1  0.76218765  0.39727773  0.68337528  1
  S  S40  1  0.66363623  0.95864972  0.44676377  1
  S  S41  1  0.33243118  0.04215100  0.55899088  1
