# generated using pymatgen
data_Pr2Mn3(SbS3)4
_symmetry_space_group_name_H-M   'P 1'
_cell_length_a   20.02960800
_cell_length_b   3.90410600
_cell_length_c   14.95364829
_cell_angle_alpha   90.00000000
_cell_angle_beta   126.33350609
_cell_angle_gamma   90.00000000
_symmetry_Int_Tables_number   1
_chemical_formula_structural   Pr2Mn3(SbS3)4
_chemical_formula_sum   'Pr4 Mn6 Sb8 S24'
_cell_volume   942.00006694
_cell_formula_units_Z   2
loop_
 _symmetry_equiv_pos_site_id
 _symmetry_equiv_pos_as_xyz
  1  'x, y, z'
loop_
 _atom_site_type_symbol
 _atom_site_label
 _atom_site_symmetry_multiplicity
 _atom_site_fract_x
 _atom_site_fract_y
 _atom_site_fract_z
 _atom_site_occupancy
  Pr  Pr0  1  0.26618676  0.53129766  0.86765297  1
  Pr  Pr1  1  0.72637882  0.54845902  0.12865026  1
  Pr  Pr2  1  0.77016818  0.96445066  0.89045198  1
  Pr  Pr3  1  0.24464629  0.99149222  0.14841722  1
  Mn  Mn4  1  0.26856120  0.56964576  0.58048808  1
  Mn  Mn5  1  0.69549837  0.46822177  0.37814536  1
  Mn  Mn6  1  0.99595687  0.96066165  0.00523864  1
  Mn  Mn7  1  0.79310864  0.98889441  0.59808686  1
  Mn  Mn8  1  0.19664866  0.94119445  0.40854198  1
  Mn  Mn9  1  0.49766620  0.50873850  0.00129640  1
  Sb  Sb10  1  0.88772056  0.00882231  0.43848710  1
  Sb  Sb11  1  0.10395988  0.03725714  0.55496809  1
  Sb  Sb12  1  0.03455105  0.53876776  0.80929870  1
  Sb  Sb13  1  0.96311375  0.49993850  0.18909446  1
  Sb  Sb14  1  0.39986811  0.48459252  0.46656667  1
  Sb  Sb15  1  0.61119051  0.45103436  0.57038208  1
  Sb  Sb16  1  0.53433407  0.99439664  0.82382394  1
  Sb  Sb17  1  0.46869499  0.01303820  0.18759381  1
  S  S18  1  0.92457262  0.99920858  0.79010696  1
  S  S19  1  0.05857645  0.98526741  0.19020336  1
  S  S20  1  0.40716387  0.98538119  0.98108146  1
  S  S21  1  0.57462165  0.04881280  0.01690200  1
  S  S22  1  0.16303571  0.02555156  0.89359273  1
  S  S23  1  0.83370811  0.00625936  0.11550110  1
  S  S24  1  0.10267192  0.52428060  0.66331457  1
  S  S25  1  0.88825779  0.48757557  0.33245002  1
  S  S26  1  0.72353900  0.94969255  0.30435947  1
  S  S27  1  0.25896445  0.95149213  0.67823585  1
  S  S28  1  0.15368708  0.43454855  0.43545898  1
  S  S29  1  0.82263535  0.43864885  0.53048103  1
  S  S30  1  0.44593538  0.50647222  0.82321571  1
  S  S31  1  0.56642056  0.47759470  0.19478742  1
  S  S32  1  0.92322869  0.48497147  0.98758969  1
  S  S33  1  0.08276118  0.57277185  0.01208764  1
  S  S34  1  0.67225395  0.50995458  0.90822212  1
  S  S35  1  0.33970247  0.41793706  0.10455573  1
  S  S36  1  0.60301256  0.96716660  0.67220812  1
  S  S37  1  0.42807163  0.95563700  0.38178154  1
  S  S38  1  0.25061512  0.45570980  0.30124423  1
  S  S39  1  0.76210949  0.39851998  0.68301726  1
  S  S40  1  0.66336802  0.95787434  0.44659189  1
  S  S41  1  0.33240308  0.04361222  0.55893145  1
