# generated using pymatgen
data_Pr2Mn3(SbS3)4
_symmetry_space_group_name_H-M   'P 1'
_cell_length_a   20.02960800
_cell_length_b   3.90410600
_cell_length_c   14.95364829
_cell_angle_alpha   90.00000000
_cell_angle_beta   126.33350609
_cell_angle_gamma   90.00000000
_symmetry_Int_Tables_number   1
_chemical_formula_structural   Pr2Mn3(SbS3)4
_chemical_formula_sum   'Pr4 Mn6 Sb8 S24'
_cell_volume   942.00006694
_cell_formula_units_Z   2
loop_
 _symmetry_equiv_pos_site_id
 _symmetry_equiv_pos_as_xyz
  1  'x, y, z'
loop_
 _atom_site_type_symbol
 _atom_site_label
 _atom_site_symmetry_multiplicity
 _atom_site_fract_x
 _atom_site_fract_y
 _atom_site_fract_z
 _atom_site_occupancy
  Pr  Pr0  1  0.26629578  0.53138847  0.86774438  1
  Pr  Pr1  1  0.72627973  0.54835194  0.12862343  1
  Pr  Pr2  1  0.77016465  0.96478585  0.89043142  1
  Pr  Pr3  1  0.24473027  0.99072159  0.14859561  1
  Mn  Mn4  1  0.26863092  0.57075276  0.58058108  1
  Mn  Mn5  1  0.69562467  0.46857634  0.37817063  1
  Mn  Mn6  1  0.99577248  0.96226279  0.00531404  1
  Mn  Mn7  1  0.79327810  0.98980889  0.59815168  1
  Mn  Mn8  1  0.19664699  0.94197601  0.40858094  1
  Mn  Mn9  1  0.49767571  0.50846240  0.00124074  1
  Sb  Sb10  1  0.88784484  0.00897115  0.43866022  1
  Sb  Sb11  1  0.10402112  0.03712116  0.55501623  1
  Sb  Sb12  1  0.03458021  0.53872837  0.80936396  1
  Sb  Sb13  1  0.96317460  0.50013161  0.18912711  1
  Sb  Sb14  1  0.39988564  0.48517597  0.46663957  1
  Sb  Sb15  1  0.61130763  0.45083411  0.57051903  1
  Sb  Sb16  1  0.53424132  0.99442684  0.82368183  1
  Sb  Sb17  1  0.46891508  0.01279132  0.18782455  1
  S  S18  1  0.92443243  0.99828828  0.79009878  1
  S  S19  1  0.05856343  0.98652198  0.19030014  1
  S  S20  1  0.40685319  0.98512925  0.98080867  1
  S  S21  1  0.57469832  0.04909790  0.01690426  1
  S  S22  1  0.16330003  0.02599346  0.89405544  1
  S  S23  1  0.83381963  0.00516425  0.11576584  1
  S  S24  1  0.10222081  0.52376540  0.66306458  1
  S  S25  1  0.88817462  0.48798377  0.33225544  1
  S  S26  1  0.72348812  0.94900718  0.30418003  1
  S  S27  1  0.25903660  0.95227409  0.67789805  1
  S  S28  1  0.15351850  0.43310814  0.43573400  1
  S  S29  1  0.82281551  0.43840116  0.53080887  1
  S  S30  1  0.44577390  0.50516834  0.82307842  1
  S  S31  1  0.56636836  0.47749942  0.19495450  1
  S  S32  1  0.92313727  0.48515351  0.98753683  1
  S  S33  1  0.08316803  0.57411579  0.01228511  1
  S  S34  1  0.67251212  0.51060846  0.90841796  1
  S  S35  1  0.33992312  0.41714471  0.10452801  1
  S  S36  1  0.60331491  0.96745211  0.67247586  1
  S  S37  1  0.42807034  0.95495358  0.38196402  1
  S  S38  1  0.25042358  0.45579092  0.30111664  1
  S  S39  1  0.76213962  0.39909279  0.68277986  1
  S  S40  1  0.66312729  0.95691570  0.44653783  1
  S  S41  1  0.33228909  0.04457932  0.55897536  1
