# generated using pymatgen
data_Pr2Mn3(SbS3)4
_symmetry_space_group_name_H-M   'P 1'
_cell_length_a   20.02960800
_cell_length_b   3.90410600
_cell_length_c   14.95364829
_cell_angle_alpha   90.00000000
_cell_angle_beta   126.33350609
_cell_angle_gamma   90.00000000
_symmetry_Int_Tables_number   1
_chemical_formula_structural   Pr2Mn3(SbS3)4
_chemical_formula_sum   'Pr4 Mn6 Sb8 S24'
_cell_volume   942.00006694
_cell_formula_units_Z   2
loop_
 _symmetry_equiv_pos_site_id
 _symmetry_equiv_pos_as_xyz
  1  'x, y, z'
loop_
 _atom_site_type_symbol
 _atom_site_label
 _atom_site_symmetry_multiplicity
 _atom_site_fract_x
 _atom_site_fract_y
 _atom_site_fract_z
 _atom_site_occupancy
  Pr  Pr0  1  0.26637232  0.53185300  0.86779881  1
  Pr  Pr1  1  0.72628394  0.54824246  0.12858850  1
  Pr  Pr2  1  0.77014004  0.96497578  0.89036255  1
  Pr  Pr3  1  0.24470471  0.98995298  0.14868535  1
  Mn  Mn4  1  0.26869607  0.57168531  0.58054944  1
  Mn  Mn5  1  0.69582315  0.46875122  0.37822222  1
  Mn  Mn6  1  0.99568302  0.96370721  0.00540771  1
  Mn  Mn7  1  0.79344938  0.99069706  0.59840281  1
  Mn  Mn8  1  0.19661163  0.94268336  0.40858523  1
  Mn  Mn9  1  0.49770699  0.50858578  0.00125571  1
  Sb  Sb10  1  0.88798360  0.00920974  0.43886653  1
  Sb  Sb11  1  0.10408796  0.03705925  0.55507623  1
  Sb  Sb12  1  0.03465221  0.53836867  0.80948863  1
  Sb  Sb13  1  0.96323210  0.50027479  0.18903971  1
  Sb  Sb14  1  0.39997777  0.48580319  0.46680864  1
  Sb  Sb15  1  0.61147224  0.45063114  0.57073206  1
  Sb  Sb16  1  0.53406450  0.99441086  0.82353867  1
  Sb  Sb17  1  0.46914982  0.01287733  0.18807838  1
  S  S18  1  0.92425595  0.99818965  0.79005057  1
  S  S19  1  0.05850845  0.98696734  0.19032595  1
  S  S20  1  0.40659520  0.98449573  0.98077875  1
  S  S21  1  0.57479430  0.04933486  0.01677272  1
  S  S22  1  0.16358057  0.02597352  0.89458570  1
  S  S23  1  0.83380278  0.00377322  0.11600596  1
  S  S24  1  0.10184397  0.52295883  0.66302543  1
  S  S25  1  0.88807808  0.48882055  0.33202859  1
  S  S26  1  0.72352472  0.94819257  0.30404497  1
  S  S27  1  0.25908428  0.95292734  0.67752755  1
  S  S28  1  0.15324612  0.43234536  0.43579625  1
  S  S29  1  0.82304200  0.43852233  0.53119831  1
  S  S30  1  0.44555049  0.50353064  0.82295534  1
  S  S31  1  0.56642772  0.47697998  0.19534309  1
  S  S32  1  0.92301668  0.48509411  0.98746875  1
  S  S33  1  0.08357618  0.57437259  0.01247804  1
  S  S34  1  0.67272764  0.51115019  0.90842234  1
  S  S35  1  0.34007987  0.41613909  0.10453681  1
  S  S36  1  0.60370283  0.96815655  0.67269670  1
  S  S37  1  0.42798259  0.95434225  0.38210476  1
  S  S38  1  0.25013614  0.45616430  0.30071435  1
  S  S39  1  0.76206461  0.39991458  0.68243248  1
  S  S40  1  0.66285128  0.95583680  0.44636314  1
  S  S41  1  0.33214188  0.04523026  0.55895816  1
