# generated using pymatgen
data_Pr2Mn3(SbS3)4
_symmetry_space_group_name_H-M   'P 1'
_cell_length_a   20.02960800
_cell_length_b   3.90410600
_cell_length_c   14.95364829
_cell_angle_alpha   90.00000000
_cell_angle_beta   126.33350609
_cell_angle_gamma   90.00000000
_symmetry_Int_Tables_number   1
_chemical_formula_structural   Pr2Mn3(SbS3)4
_chemical_formula_sum   'Pr4 Mn6 Sb8 S24'
_cell_volume   942.00006694
_cell_formula_units_Z   2
loop_
 _symmetry_equiv_pos_site_id
 _symmetry_equiv_pos_as_xyz
  1  'x, y, z'
loop_
 _atom_site_type_symbol
 _atom_site_label
 _atom_site_symmetry_multiplicity
 _atom_site_fract_x
 _atom_site_fract_y
 _atom_site_fract_z
 _atom_site_occupancy
  Pr  Pr0  1  0.26642109  0.53203403  0.86777820  1
  Pr  Pr1  1  0.72635920  0.54857898  0.12860940  1
  Pr  Pr2  1  0.77011499  0.96528438  0.89023190  1
  Pr  Pr3  1  0.24463635  0.98931072  0.14871473  1
  Mn  Mn4  1  0.26871691  0.57310724  0.58040742  1
  Mn  Mn5  1  0.69605108  0.46929659  0.37829712  1
  Mn  Mn6  1  0.99563603  0.96529164  0.00548333  1
  Mn  Mn7  1  0.79354898  0.99155993  0.59851831  1
  Mn  Mn8  1  0.19653867  0.94323967  0.40855479  1
  Mn  Mn9  1  0.49771365  0.50867376  0.00115553  1
  Sb  Sb10  1  0.88806503  0.00964407  0.43906669  1
  Sb  Sb11  1  0.10419187  0.03696397  0.55508637  1
  Sb  Sb12  1  0.03465826  0.53776831  0.80963484  1
  Sb  Sb13  1  0.96331114  0.50048232  0.18898697  1
  Sb  Sb14  1  0.40008182  0.48640942  0.46702659  1
  Sb  Sb15  1  0.61152719  0.45057152  0.57079803  1
  Sb  Sb16  1  0.53387439  0.99437638  0.82337733  1
  Sb  Sb17  1  0.46934215  0.01302803  0.18822791  1
  S  S18  1  0.92415650  0.99850115  0.78978520  1
  S  S19  1  0.05820007  0.98716678  0.19013553  1
  S  S20  1  0.40645178  0.98380163  0.98084151  1
  S  S21  1  0.57484659  0.04897040  0.01663468  1
  S  S22  1  0.16388513  0.02592941  0.89511514  1
  S  S23  1  0.83381528  0.00147436  0.11608382  1
  S  S24  1  0.10146551  0.52218206  0.66304089  1
  S  S25  1  0.88785126  0.48931362  0.33166807  1
  S  S26  1  0.72368497  0.94685248  0.30409463  1
  S  S27  1  0.25906158  0.95335257  0.67708300  1
  S  S28  1  0.15276006  0.43246348  0.43560562  1
  S  S29  1  0.82308630  0.43874434  0.53130464  1
  S  S30  1  0.44546700  0.50169706  0.82299436  1
  S  S31  1  0.56656556  0.47657946  0.19576579  1
  S  S32  1  0.92285410  0.48461988  0.98725097  1
  S  S33  1  0.08380886  0.57510849  0.01258126  1
  S  S34  1  0.67293252  0.51129372  0.90864067  1
  S  S35  1  0.34034497  0.41518053  0.10467242  1
  S  S36  1  0.60400871  0.96912194  0.67287176  1
  S  S37  1  0.42806759  0.95386196  0.38227457  1
  S  S38  1  0.24993820  0.45658820  0.30041283  1
  S  S39  1  0.76198739  0.40083960  0.68208654  1
  S  S40  1  0.66254462  0.95481371  0.44630273  1
  S  S41  1  0.33183852  0.04581873  0.55865177  1
