# generated using pymatgen
data_Pr2Mn3(SbS3)4
_symmetry_space_group_name_H-M   'P 1'
_cell_length_a   20.02960800
_cell_length_b   3.90410600
_cell_length_c   14.95364829
_cell_angle_alpha   90.00000000
_cell_angle_beta   126.33350609
_cell_angle_gamma   90.00000000
_symmetry_Int_Tables_number   1
_chemical_formula_structural   Pr2Mn3(SbS3)4
_chemical_formula_sum   'Pr4 Mn6 Sb8 S24'
_cell_volume   942.00006694
_cell_formula_units_Z   2
loop_
 _symmetry_equiv_pos_site_id
 _symmetry_equiv_pos_as_xyz
  1  'x, y, z'
loop_
 _atom_site_type_symbol
 _atom_site_label
 _atom_site_symmetry_multiplicity
 _atom_site_fract_x
 _atom_site_fract_y
 _atom_site_fract_z
 _atom_site_occupancy
  Pr  Pr0  1  0.26648051  0.53216697  0.86783312  1
  Pr  Pr1  1  0.72635421  0.54882584  0.12851644  1
  Pr  Pr2  1  0.77005912  0.96562607  0.88999446  1
  Pr  Pr3  1  0.24453874  0.98835362  0.14869947  1
  Mn  Mn4  1  0.26872626  0.57447377  0.58014777  1
  Mn  Mn5  1  0.69625632  0.47001247  0.37839359  1
  Mn  Mn6  1  0.99567839  0.96636396  0.00563749  1
  Mn  Mn7  1  0.79353174  0.99216607  0.59844252  1
  Mn  Mn8  1  0.19657339  0.94387473  0.40860225  1
  Mn  Mn9  1  0.49783513  0.50846194  0.00104586  1
  Sb  Sb10  1  0.88816136  0.00976305  0.43925204  1
  Sb  Sb11  1  0.10424268  0.03652290  0.55507046  1
  Sb  Sb12  1  0.03461957  0.53727378  0.80981656  1
  Sb  Sb13  1  0.96328797  0.50060312  0.18894375  1
  Sb  Sb14  1  0.40021209  0.48720526  0.46724132  1
  Sb  Sb15  1  0.61158683  0.45065956  0.57088509  1
  Sb  Sb16  1  0.53374383  0.99410505  0.82341889  1
  Sb  Sb17  1  0.46948307  0.01323470  0.18836213  1
  S  S18  1  0.92419194  0.99864380  0.78961340  1
  S  S19  1  0.05788346  0.98701016  0.18991027  1
  S  S20  1  0.40641226  0.98356669  0.98086901  1
  S  S21  1  0.57480820  0.04889419  0.01652359  1
  S  S22  1  0.16414502  0.02655327  0.89566367  1
  S  S23  1  0.83397961  0.99940043  0.11626061  1
  S  S24  1  0.10093640  0.52081980  0.66303788  1
  S  S25  1  0.88758941  0.48942283  0.33131510  1
  S  S26  1  0.72384388  0.94609198  0.30415903  1
  S  S27  1  0.25892560  0.95405590  0.67661657  1
  S  S28  1  0.15217509  0.43239261  0.43538364  1
  S  S29  1  0.82318943  0.43934167  0.53161590  1
  S  S30  1  0.44530928  0.49938380  0.82300693  1
  S  S31  1  0.56685713  0.47629969  0.19648258  1
  S  S32  1  0.92266790  0.48455888  0.98701899  1
  S  S33  1  0.08397443  0.57568445  0.01252811  1
  S  S34  1  0.67315847  0.51159571  0.90900432  1
  S  S35  1  0.34064504  0.41399298  0.10490908  1
  S  S36  1  0.60410715  0.97010439  0.67306958  1
  S  S37  1  0.42820692  0.95305226  0.38247356  1
  S  S38  1  0.24994197  0.45679747  0.30020690  1
  S  S39  1  0.76176348  0.40225295  0.68146553  1
  S  S40  1  0.66221320  0.95326413  0.44617532  1
  S  S41  1  0.33167314  0.04599814  0.55842118  1
