# generated using pymatgen
data_Pr2Mn3(SbS3)4
_symmetry_space_group_name_H-M   'P 1'
_cell_length_a   20.02960800
_cell_length_b   3.90410600
_cell_length_c   14.95364829
_cell_angle_alpha   90.00000000
_cell_angle_beta   126.33350609
_cell_angle_gamma   90.00000000
_symmetry_Int_Tables_number   1
_chemical_formula_structural   Pr2Mn3(SbS3)4
_chemical_formula_sum   'Pr4 Mn6 Sb8 S24'
_cell_volume   942.00006694
_cell_formula_units_Z   2
loop_
 _symmetry_equiv_pos_site_id
 _symmetry_equiv_pos_as_xyz
  1  'x, y, z'
loop_
 _atom_site_type_symbol
 _atom_site_label
 _atom_site_symmetry_multiplicity
 _atom_site_fract_x
 _atom_site_fract_y
 _atom_site_fract_z
 _atom_site_occupancy
  Pr  Pr0  1  0.26652769  0.53234109  0.86786866  1
  Pr  Pr1  1  0.72641931  0.54890785  0.12844054  1
  Pr  Pr2  1  0.77004617  0.96571957  0.88978674  1
  Pr  Pr3  1  0.24443283  0.98738788  0.14866335  1
  Mn  Mn4  1  0.26872312  0.57554849  0.57997058  1
  Mn  Mn5  1  0.69639906  0.47055216  0.37848661  1
  Mn  Mn6  1  0.99568439  0.96749664  0.00572584  1
  Mn  Mn7  1  0.79361265  0.99256284  0.59844713  1
  Mn  Mn8  1  0.19663537  0.94489467  0.40855761  1
  Mn  Mn9  1  0.49786929  0.50819656  0.00081915  1
  Sb  Sb10  1  0.88815133  0.00968118  0.43944643  1
  Sb  Sb11  1  0.10433197  0.03612522  0.55498106  1
  Sb  Sb12  1  0.03460209  0.53655855  0.80994947  1
  Sb  Sb13  1  0.96321478  0.50080300  0.18882597  1
  Sb  Sb14  1  0.40038546  0.48812751  0.46741880  1
  Sb  Sb15  1  0.61166584  0.45110372  0.57100350  1
  Sb  Sb16  1  0.53364951  0.99375838  0.82339675  1
  Sb  Sb17  1  0.46964166  0.01326498  0.18861557  1
  S  S18  1  0.92427878  0.99835607  0.78943543  1
  S  S19  1  0.05769669  0.98655044  0.18991637  1
  S  S20  1  0.40628264  0.98336332  0.98057397  1
  S  S21  1  0.57486368  0.04779712  0.01637642  1
  S  S22  1  0.16442133  0.02739061  0.89632685  1
  S  S23  1  0.83414335  0.99781074  0.11640918  1
  S  S24  1  0.10038973  0.52027576  0.66301756  1
  S  S25  1  0.88731789  0.48931219  0.33103334  1
  S  S26  1  0.72401618  0.94487225  0.30417436  1
  S  S27  1  0.25889131  0.95525231  0.67620048  1
  S  S28  1  0.15170867  0.43148983  0.43507286  1
  S  S29  1  0.82317862  0.43860032  0.53183401  1
  S  S30  1  0.44521104  0.49722338  0.82314420  1
  S  S31  1  0.56716134  0.47625416  0.19732685  1
  S  S32  1  0.92241958  0.48432015  0.98668679  1
  S  S33  1  0.08406023  0.57665858  0.01232008  1
  S  S34  1  0.67340674  0.51231952  0.90924788  1
  S  S35  1  0.34100251  0.41242747  0.10522133  1
  S  S36  1  0.60427958  0.97063300  0.67323040  1
  S  S37  1  0.42814078  0.95251457  0.38253891  1
  S  S38  1  0.24990106  0.45699753  0.30001504  1
  S  S39  1  0.76171476  0.40383935  0.68109791  1
  S  S40  1  0.66173001  0.95136983  0.44593873  1
  S  S41  1  0.33153109  0.04583630  0.55836763  1
