# generated using pymatgen
data_Pr2Mn3(SbS3)4
_symmetry_space_group_name_H-M   'P 1'
_cell_length_a   20.02960800
_cell_length_b   3.90410600
_cell_length_c   14.95364829
_cell_angle_alpha   90.00000000
_cell_angle_beta   126.33350609
_cell_angle_gamma   90.00000000
_symmetry_Int_Tables_number   1
_chemical_formula_structural   Pr2Mn3(SbS3)4
_chemical_formula_sum   'Pr4 Mn6 Sb8 S24'
_cell_volume   942.00006694
_cell_formula_units_Z   2
loop_
 _symmetry_equiv_pos_site_id
 _symmetry_equiv_pos_as_xyz
  1  'x, y, z'
loop_
 _atom_site_type_symbol
 _atom_site_label
 _atom_site_symmetry_multiplicity
 _atom_site_fract_x
 _atom_site_fract_y
 _atom_site_fract_z
 _atom_site_occupancy
  Pr  Pr0  1  0.26653144  0.53235144  0.86780389  1
  Pr  Pr1  1  0.72644227  0.54907465  0.12837754  1
  Pr  Pr2  1  0.77004213  0.96579774  0.88961063  1
  Pr  Pr3  1  0.24438450  0.98650656  0.14868000  1
  Mn  Mn4  1  0.26870106  0.57617804  0.57990832  1
  Mn  Mn5  1  0.69640983  0.47092571  0.37832808  1
  Mn  Mn6  1  0.99583988  0.96875453  0.00589168  1
  Mn  Mn7  1  0.79367146  0.99322524  0.59845047  1
  Mn  Mn8  1  0.19671638  0.94543474  0.40860457  1
  Mn  Mn9  1  0.49790439  0.50757564  0.00059522  1
  Sb  Sb10  1  0.88813161  0.00962114  0.43953283  1
  Sb  Sb11  1  0.10452879  0.03593076  0.55496325  1
  Sb  Sb12  1  0.03447833  0.53585485  0.81008739  1
  Sb  Sb13  1  0.96319073  0.50137451  0.18879807  1
  Sb  Sb14  1  0.40049740  0.48943513  0.46753812  1
  Sb  Sb15  1  0.61173155  0.45175723  0.57106663  1
  Sb  Sb16  1  0.53363273  0.99380427  0.82332896  1
  Sb  Sb17  1  0.46976116  0.01338711  0.18882940  1
  S  S18  1  0.92440289  0.99813807  0.78922220  1
  S  S19  1  0.05752554  0.98548537  0.18990277  1
  S  S20  1  0.40617490  0.98315928  0.98034243  1
  S  S21  1  0.57487304  0.04665651  0.01626806  1
  S  S22  1  0.16475863  0.02746107  0.89704560  1
  S  S23  1  0.83423755  0.99612774  0.11652991  1
  S  S24  1  0.09990303  0.51967401  0.66308968  1
  S  S25  1  0.88709554  0.48906566  0.33087779  1
  S  S26  1  0.72431525  0.94368541  0.30433076  1
  S  S27  1  0.25873480  0.95696420  0.67564030  1
  S  S28  1  0.15139322  0.43053398  0.43463962  1
  S  S29  1  0.82320130  0.43816238  0.53206373  1
  S  S30  1  0.44506885  0.49498870  0.82323717  1
  S  S31  1  0.56747681  0.47629999  0.19809837  1
  S  S32  1  0.92214894  0.48440625  0.98653046  1
  S  S33  1  0.08414063  0.57705543  0.01213387  1
  S  S34  1  0.67352884  0.51319522  0.90942590  1
  S  S35  1  0.34131279  0.41151807  0.10539497  1
  S  S36  1  0.60432275  0.97128523  0.67336707  1
  S  S37  1  0.42795381  0.95274478  0.38252759  1
  S  S38  1  0.24991598  0.45749419  0.29984968  1
  S  S39  1  0.76149332  0.40588435  0.68073179  1
  S  S40  1  0.66124298  0.95000082  0.44574649  1
  S  S41  1  0.33132448  0.04511578  0.55833944  1
