# generated using pymatgen
data_Pr2Mn3(SbS3)4
_symmetry_space_group_name_H-M   'P 1'
_cell_length_a   20.02960800
_cell_length_b   3.90410600
_cell_length_c   14.95364829
_cell_angle_alpha   90.00000000
_cell_angle_beta   126.33350609
_cell_angle_gamma   90.00000000
_symmetry_Int_Tables_number   1
_chemical_formula_structural   Pr2Mn3(SbS3)4
_chemical_formula_sum   'Pr4 Mn6 Sb8 S24'
_cell_volume   942.00006694
_cell_formula_units_Z   2
loop_
 _symmetry_equiv_pos_site_id
 _symmetry_equiv_pos_as_xyz
  1  'x, y, z'
loop_
 _atom_site_type_symbol
 _atom_site_label
 _atom_site_symmetry_multiplicity
 _atom_site_fract_x
 _atom_site_fract_y
 _atom_site_fract_z
 _atom_site_occupancy
  Pr  Pr0  1  0.26649612  0.53257958  0.86770468  1
  Pr  Pr1  1  0.72645658  0.54942807  0.12831408  1
  Pr  Pr2  1  0.76998459  0.96629809  0.88944360  1
  Pr  Pr3  1  0.24437811  0.98558831  0.14876799  1
  Mn  Mn4  1  0.26871142  0.57676920  0.57986740  1
  Mn  Mn5  1  0.69627074  0.47111985  0.37796740  1
  Mn  Mn6  1  0.99598216  0.96996541  0.00612739  1
  Mn  Mn7  1  0.79360920  0.99340357  0.59845745  1
  Mn  Mn8  1  0.19684964  0.94635694  0.40866666  1
  Mn  Mn9  1  0.49796374  0.50714124  0.00033311  1
  Sb  Sb10  1  0.88811850  0.00936402  0.43960086  1
  Sb  Sb11  1  0.10471399  0.03565031  0.55501973  1
  Sb  Sb12  1  0.03437757  0.53518619  0.81022978  1
  Sb  Sb13  1  0.96322145  0.50163990  0.18878162  1
  Sb  Sb14  1  0.40063216  0.49090014  0.46765056  1
  Sb  Sb15  1  0.61177823  0.45215557  0.57105554  1
  Sb  Sb16  1  0.53355337  0.99403635  0.82323610  1
  Sb  Sb17  1  0.46979394  0.01365807  0.18903957  1
  S  S18  1  0.92452040  0.99752587  0.78902021  1
  S  S19  1  0.05741801  0.98436478  0.18990539  1
  S  S20  1  0.40602648  0.98324102  0.98003116  1
  S  S21  1  0.57489484  0.04561342  0.01610605  1
  S  S22  1  0.16493232  0.02734426  0.89777087  1
  S  S23  1  0.83428248  0.99434660  0.11676695  1
  S  S24  1  0.09948344  0.51921242  0.66319526  1
  S  S25  1  0.88688312  0.48883201  0.33088816  1
  S  S26  1  0.72461172  0.94365097  0.30450430  1
  S  S27  1  0.25871069  0.95787994  0.67536114  1
  S  S28  1  0.15111847  0.42994027  0.43422293  1
  S  S29  1  0.82326612  0.43848045  0.53250953  1
  S  S30  1  0.44496015  0.49306484  0.82334667  1
  S  S31  1  0.56777670  0.47648678  0.19887182  1
  S  S32  1  0.92206031  0.48445968  0.98642035  1
  S  S33  1  0.08426538  0.57772367  0.01197373  1
  S  S34  1  0.67365697  0.51346124  0.90961243  1
  S  S35  1  0.34158047  0.41067668  0.10555433  1
  S  S36  1  0.60418855  0.97131432  0.67337989  1
  S  S37  1  0.42776112  0.95310654  0.38244753  1
  S  S38  1  0.25017255  0.45745863  0.30002311  1
  S  S39  1  0.76119322  0.40722403  0.68041659  1
  S  S40  1  0.66074565  0.94855940  0.44542970  1
  S  S41  1  0.33090034  0.04492855  0.55820048  1
