# generated using pymatgen
data_Pr2Mn3(SbS3)4
_symmetry_space_group_name_H-M   'P 1'
_cell_length_a   20.02960800
_cell_length_b   3.90410600
_cell_length_c   14.95364829
_cell_angle_alpha   90.00000000
_cell_angle_beta   126.33350609
_cell_angle_gamma   90.00000000
_symmetry_Int_Tables_number   1
_chemical_formula_structural   Pr2Mn3(SbS3)4
_chemical_formula_sum   'Pr4 Mn6 Sb8 S24'
_cell_volume   942.00006694
_cell_formula_units_Z   2
loop_
 _symmetry_equiv_pos_site_id
 _symmetry_equiv_pos_as_xyz
  1  'x, y, z'
loop_
 _atom_site_type_symbol
 _atom_site_label
 _atom_site_symmetry_multiplicity
 _atom_site_fract_x
 _atom_site_fract_y
 _atom_site_fract_z
 _atom_site_occupancy
  Pr  Pr0  1  0.26919523  0.49862747  0.86627678  1
  Pr  Pr1  1  0.73390787  0.50902070  0.13376943  1
  Pr  Pr2  1  0.76329569  0.02111962  0.86113167  1
  Pr  Pr3  1  0.23403505  0.99696438  0.13214488  1
  Mn  Mn4  1  0.29216576  0.47369255  0.59487985  1
  Mn  Mn5  1  0.68547252  0.46635517  0.36512004  1
  Mn  Mn6  1  0.00716954  0.99406619  0.01439582  1
  Mn  Mn7  1  0.80033946  0.00933777  0.61947425  1
  Mn  Mn8  1  0.19828914  0.97496162  0.37198004  1
  Mn  Mn9  1  0.48877977  0.46651813  0.98846540  1
  Sb  Sb10  1  0.89051262  0.98408075  0.45209031  1
  Sb  Sb11  1  0.10975018  0.97792927  0.54386100  1
  Sb  Sb12  1  0.03523147  0.52038536  0.81866719  1
  Sb  Sb13  1  0.96476244  0.50018238  0.18906277  1
  Sb  Sb14  1  0.39344339  0.49763829  0.44951856  1
  Sb  Sb15  1  0.60582694  0.47003075  0.54833424  1
  Sb  Sb16  1  0.53345698  0.98700322  0.80820705  1
  Sb  Sb17  1  0.46517143  0.02276608  0.19139325  1
  S  S18  1  0.93795762  0.01520390  0.80802043  1
  S  S19  1  0.06368394  0.98025156  0.19759527  1
  S  S20  1  0.42143401  0.96001633  0.99250625  1
  S  S21  1  0.58270471  0.03375182  0.01253357  1
  S  S22  1  0.17283356  0.05589295  0.90141924  1
  S  S23  1  0.82913908  0.05413798  0.10385072  1
  S  S24  1  0.09163129  0.50113193  0.64794286  1
  S  S25  1  0.91476069  0.48574764  0.35819804  1
  S  S26  1  0.73535896  0.97265975  0.29759742  1
  S  S27  1  0.26081465  0.00134148  0.70968466  1
  S  S28  1  0.16394292  0.51867626  0.43051853  1
  S  S29  1  0.81943751  0.48069135  0.54724628  1
  S  S30  1  0.43113078  0.47854752  0.79543866  1
  S  S31  1  0.55361244  0.51904658  0.18038308  1
  S  S32  1  0.91550321  0.48799156  0.98872614  1
  S  S33  1  0.08857053  0.49880410  0.03193187  1
  S  S34  1  0.66419796  0.54639832  0.89130063  1
  S  S35  1  0.32690233  0.50543791  0.09326980  1
  S  S36  1  0.59758123  0.00384817  0.65730308  1
  S  S37  1  0.40054577  0.98037002  0.34326188  1
  S  S38  1  0.24251082  0.47079693  0.31578746  1
  S  S39  1  0.75992327  0.52230585  0.68818872  1
  S  S40  1  0.66512994  0.00692435  0.44969419  1
  S  S41  1  0.33112966  0.98517687  0.55538931  1
