# generated using pymatgen
data_Pr2Mn3(SbS3)4
_symmetry_space_group_name_H-M   'P 1'
_cell_length_a   20.02960800
_cell_length_b   3.90410600
_cell_length_c   14.95364829
_cell_angle_alpha   90.00000000
_cell_angle_beta   126.33350609
_cell_angle_gamma   90.00000000
_symmetry_Int_Tables_number   1
_chemical_formula_structural   Pr2Mn3(SbS3)4
_chemical_formula_sum   'Pr4 Mn6 Sb8 S24'
_cell_volume   942.00006694
_cell_formula_units_Z   2
loop_
 _symmetry_equiv_pos_site_id
 _symmetry_equiv_pos_as_xyz
  1  'x, y, z'
loop_
 _atom_site_type_symbol
 _atom_site_label
 _atom_site_symmetry_multiplicity
 _atom_site_fract_x
 _atom_site_fract_y
 _atom_site_fract_z
 _atom_site_occupancy
  Pr  Pr0  1  0.26640141  0.53265531  0.86761693  1
  Pr  Pr1  1  0.72646408  0.54959089  0.12821235  1
  Pr  Pr2  1  0.76990042  0.96670949  0.88918642  1
  Pr  Pr3  1  0.24432942  0.98478454  0.14883213  1
  Mn  Mn4  1  0.26883514  0.57732414  0.57989498  1
  Mn  Mn5  1  0.69604176  0.47099119  0.37755044  1
  Mn  Mn6  1  0.99600775  0.97137110  0.00628462  1
  Mn  Mn7  1  0.79358217  0.99363510  0.59855191  1
  Mn  Mn8  1  0.19708686  0.94715393  0.40879110  1
  Mn  Mn9  1  0.49792372  0.50715163  0.99998195  1
  Sb  Sb10  1  0.88807345  0.00922356  0.43955941  1
  Sb  Sb11  1  0.10490955  0.03543552  0.55502834  1
  Sb  Sb12  1  0.03421370  0.53423875  0.81032965  1
  Sb  Sb13  1  0.96321263  0.50195811  0.18871019  1
  Sb  Sb14  1  0.40062973  0.49235174  0.46768365  1
  Sb  Sb15  1  0.61185189  0.45266336  0.57107427  1
  Sb  Sb16  1  0.53345068  0.99428225  0.82312363  1
  Sb  Sb17  1  0.46978338  0.01401362  0.18917019  1
  S  S18  1  0.92448353  0.99664254  0.78852448  1
  S  S19  1  0.05737680  0.98365831  0.19012070  1
  S  S20  1  0.40591858  0.98314759  0.97970254  1
  S  S21  1  0.57491082  0.04410422  0.01591540  1
  S  S22  1  0.16518595  0.02730530  0.89828694  1
  S  S23  1  0.83420164  0.99258699  0.11703226  1
  S  S24  1  0.09894191  0.51921495  0.66303970  1
  S  S25  1  0.88676748  0.48877891  0.33100166  1
  S  S26  1  0.72489443  0.94355553  0.30465149  1
  S  S27  1  0.25879545  0.95860966  0.67522549  1
  S  S28  1  0.15088915  0.42934856  0.43389325  1
  S  S29  1  0.82329401  0.43913337  0.53279594  1
  S  S30  1  0.44477553  0.49118546  0.82348673  1
  S  S31  1  0.56802064  0.47622569  0.19939143  1
  S  S32  1  0.92196338  0.48409192  0.98634499  1
  S  S33  1  0.08432031  0.57823099  0.01166665  1
  S  S34  1  0.67388663  0.51371908  0.90981964  1
  S  S35  1  0.34159503  0.40949241  0.10556619  1
  S  S36  1  0.60416102  0.97091787  0.67368417  1
  S  S37  1  0.42762804  0.95290402  0.38244154  1
  S  S38  1  0.25048459  0.45766881  0.30033898  1
  S  S39  1  0.76090292  0.40823629  0.68007474  1
  S  S40  1  0.66036176  0.94741773  0.44528753  1
  S  S41  1  0.33058392  0.04434220  0.55821518  1
