# generated using pymatgen
data_Pr2Mn3(SbS3)4
_symmetry_space_group_name_H-M   'P 1'
_cell_length_a   20.02960800
_cell_length_b   3.90410600
_cell_length_c   14.95364829
_cell_angle_alpha   90.00000000
_cell_angle_beta   126.33350609
_cell_angle_gamma   90.00000000
_symmetry_Int_Tables_number   1
_chemical_formula_structural   Pr2Mn3(SbS3)4
_chemical_formula_sum   'Pr4 Mn6 Sb8 S24'
_cell_volume   942.00006694
_cell_formula_units_Z   2
loop_
 _symmetry_equiv_pos_site_id
 _symmetry_equiv_pos_as_xyz
  1  'x, y, z'
loop_
 _atom_site_type_symbol
 _atom_site_label
 _atom_site_symmetry_multiplicity
 _atom_site_fract_x
 _atom_site_fract_y
 _atom_site_fract_z
 _atom_site_occupancy
  Pr  Pr0  1  0.26620330  0.53279575  0.86730073  1
  Pr  Pr1  1  0.72650512  0.54972207  0.12812689  1
  Pr  Pr2  1  0.76984519  0.96675220  0.88895625  1
  Pr  Pr3  1  0.24425292  0.98404431  0.14882649  1
  Mn  Mn4  1  0.26891545  0.57794384  0.57987726  1
  Mn  Mn5  1  0.69577375  0.47052662  0.37731416  1
  Mn  Mn6  1  0.99597791  0.97256329  0.00634256  1
  Mn  Mn7  1  0.79356070  0.99388303  0.59866106  1
  Mn  Mn8  1  0.19725849  0.94818162  0.40877305  1
  Mn  Mn9  1  0.49781282  0.50718893  0.99957429  1
  Sb  Sb10  1  0.88812524  0.00910604  0.43956072  1
  Sb  Sb11  1  0.10514734  0.03523901  0.55508746  1
  Sb  Sb12  1  0.03407017  0.53335310  0.81042117  1
  Sb  Sb13  1  0.96318528  0.50210784  0.18861384  1
  Sb  Sb14  1  0.40061025  0.49409308  0.46767501  1
  Sb  Sb15  1  0.61187608  0.45317879  0.57109684  1
  Sb  Sb16  1  0.53339249  0.99447205  0.82308929  1
  Sb  Sb17  1  0.46973948  0.01410061  0.18922801  1
  S  S18  1  0.92441602  0.99543496  0.78804321  1
  S  S19  1  0.05742190  0.98319460  0.19036574  1
  S  S20  1  0.40579491  0.98252259  0.97939021  1
  S  S21  1  0.57502741  0.04266394  0.01586093  1
  S  S22  1  0.16554330  0.02779099  0.89900057  1
  S  S23  1  0.83409498  0.99081975  0.11727353  1
  S  S24  1  0.09837377  0.51942452  0.66289469  1
  S  S25  1  0.88652825  0.48868089  0.33090159  1
  S  S26  1  0.72503847  0.94350356  0.30472154  1
  S  S27  1  0.25891907  0.95927600  0.67510642  1
  S  S28  1  0.15071865  0.42871335  0.43370448  1
  S  S29  1  0.82315797  0.43988490  0.53292343  1
  S  S30  1  0.44472602  0.49016455  0.82353868  1
  S  S31  1  0.56816904  0.47650723  0.19978116  1
  S  S32  1  0.92190995  0.48421640  0.98611104  1
  S  S33  1  0.08444211  0.57882804  0.01140354  1
  S  S34  1  0.67406087  0.51423468  0.90989351  1
  S  S35  1  0.34160520  0.40825584  0.10564558  1
  S  S36  1  0.60421003  0.97060469  0.67399394  1
  S  S37  1  0.42739834  0.95294723  0.38224480  1
  S  S38  1  0.25070465  0.45766264  0.30039813  1
  S  S39  1  0.76058046  0.40902794  0.67967914  1
  S  S40  1  0.65985414  0.94647775  0.44522983  1
  S  S41  1  0.33032362  0.04399693  0.55816962  1
