# generated using pymatgen
data_Pr2Mn3(SbS3)4
_symmetry_space_group_name_H-M   'P 1'
_cell_length_a   20.02960800
_cell_length_b   3.90410600
_cell_length_c   14.95364829
_cell_angle_alpha   90.00000000
_cell_angle_beta   126.33350609
_cell_angle_gamma   90.00000000
_symmetry_Int_Tables_number   1
_chemical_formula_structural   Pr2Mn3(SbS3)4
_chemical_formula_sum   'Pr4 Mn6 Sb8 S24'
_cell_volume   942.00006694
_cell_formula_units_Z   2
loop_
 _symmetry_equiv_pos_site_id
 _symmetry_equiv_pos_as_xyz
  1  'x, y, z'
loop_
 _atom_site_type_symbol
 _atom_site_label
 _atom_site_symmetry_multiplicity
 _atom_site_fract_x
 _atom_site_fract_y
 _atom_site_fract_z
 _atom_site_occupancy
  Pr  Pr0  1  0.26603846  0.53249475  0.86705132  1
  Pr  Pr1  1  0.72652295  0.54976316  0.12796040  1
  Pr  Pr2  1  0.76983846  0.96705966  0.88886759  1
  Pr  Pr3  1  0.24420246  0.98352708  0.14895776  1
  Mn  Mn4  1  0.26892832  0.57780163  0.57977221  1
  Mn  Mn5  1  0.69547372  0.46946253  0.37718161  1
  Mn  Mn6  1  0.99608078  0.97344073  0.00639698  1
  Mn  Mn7  1  0.79358332  0.99413790  0.59886050  1
  Mn  Mn8  1  0.19740269  0.94893716  0.40874547  1
  Mn  Mn9  1  0.49769746  0.50730928  0.99912639  1
  Sb  Sb10  1  0.88812556  0.00877578  0.43954193  1
  Sb  Sb11  1  0.10545445  0.03481374  0.55523405  1
  Sb  Sb12  1  0.03395342  0.53267371  0.81056883  1
  Sb  Sb13  1  0.96319433  0.50250240  0.18858697  1
  Sb  Sb14  1  0.40057974  0.49542291  0.46771416  1
  Sb  Sb15  1  0.61190630  0.45346241  0.57109287  1
  Sb  Sb16  1  0.53341557  0.99463618  0.82305500  1
  Sb  Sb17  1  0.46966331  0.01445177  0.18923960  1
  S  S18  1  0.92430868  0.99375587  0.78743660  1
  S  S19  1  0.05751969  0.98261293  0.19051987  1
  S  S20  1  0.40577458  0.98183723  0.97927558  1
  S  S21  1  0.57499736  0.04170167  0.01577494  1
  S  S22  1  0.16590061  0.02829669  0.89957654  1
  S  S23  1  0.83397561  0.98908056  0.11742753  1
  S  S24  1  0.09785691  0.51964510  0.66254011  1
  S  S25  1  0.88628863  0.48928436  0.33062916  1
  S  S26  1  0.72524078  0.94307696  0.30480564  1
  S  S27  1  0.25910557  0.95980017  0.67491956  1
  S  S28  1  0.15052438  0.42786293  0.43337433  1
  S  S29  1  0.82314907  0.44044719  0.53325153  1
  S  S30  1  0.44463098  0.48903020  0.82355777  1
  S  S31  1  0.56837672  0.47725460  0.20037666  1
  S  S32  1  0.92184693  0.48406667  0.98616048  1
  S  S33  1  0.08473183  0.57952688  0.01144676  1
  S  S34  1  0.67431365  0.51414455  0.90984646  1
  S  S35  1  0.34160725  0.40769772  0.10560655  1
  S  S36  1  0.60436664  0.97002842  0.67445433  1
  S  S37  1  0.42719716  0.95253756  0.38205616  1
  S  S38  1  0.25095085  0.45823413  0.30040186  1
  S  S39  1  0.76023071  0.40931997  0.67913127  1
  S  S40  1  0.65944393  0.94610605  0.44551812  1
  S  S41  1  0.33017346  0.04373703  0.55825458  1
