# generated using pymatgen
data_Pr2Mn3(SbS3)4
_symmetry_space_group_name_H-M   'P 1'
_cell_length_a   20.02960800
_cell_length_b   3.90410600
_cell_length_c   14.95364829
_cell_angle_alpha   90.00000000
_cell_angle_beta   126.33350609
_cell_angle_gamma   90.00000000
_symmetry_Int_Tables_number   1
_chemical_formula_structural   Pr2Mn3(SbS3)4
_chemical_formula_sum   'Pr4 Mn6 Sb8 S24'
_cell_volume   942.00006694
_cell_formula_units_Z   2
loop_
 _symmetry_equiv_pos_site_id
 _symmetry_equiv_pos_as_xyz
  1  'x, y, z'
loop_
 _atom_site_type_symbol
 _atom_site_label
 _atom_site_symmetry_multiplicity
 _atom_site_fract_x
 _atom_site_fract_y
 _atom_site_fract_z
 _atom_site_occupancy
  Pr  Pr0  1  0.26594661  0.53229590  0.86684135  1
  Pr  Pr1  1  0.72664622  0.54999421  0.12793935  1
  Pr  Pr2  1  0.76983464  0.96718177  0.88884880  1
  Pr  Pr3  1  0.24419730  0.98272226  0.14908469  1
  Mn  Mn4  1  0.26896380  0.57773353  0.57967192  1
  Mn  Mn5  1  0.69507847  0.46827749  0.37692577  1
  Mn  Mn6  1  0.99622817  0.97396174  0.00649927  1
  Mn  Mn7  1  0.79373340  0.99470198  0.59906106  1
  Mn  Mn8  1  0.19751365  0.95001862  0.40871112  1
  Mn  Mn9  1  0.49769131  0.50762528  0.99878409  1
  Sb  Sb10  1  0.88805494  0.00865101  0.43953491  1
  Sb  Sb11  1  0.10575426  0.03480609  0.55539729  1
  Sb  Sb12  1  0.03382712  0.53190310  0.81067408  1
  Sb  Sb13  1  0.96311807  0.50299832  0.18848278  1
  Sb  Sb14  1  0.40058973  0.49680000  0.46772189  1
  Sb  Sb15  1  0.61201239  0.45382974  0.57115587  1
  Sb  Sb16  1  0.53340942  0.99486958  0.82304367  1
  Sb  Sb17  1  0.46958742  0.01496545  0.18931256  1
  S  S18  1  0.92422688  0.99224620  0.78692298  1
  S  S19  1  0.05761105  0.98204621  0.19051490  1
  S  S20  1  0.40590456  0.98060416  0.97920796  1
  S  S21  1  0.57479503  0.04155725  0.01559044  1
  S  S22  1  0.16623394  0.02852520  0.89994995  1
  S  S23  1  0.83369576  0.98800181  0.11758690  1
  S  S24  1  0.09732143  0.51939155  0.66226687  1
  S  S25  1  0.88596305  0.48897181  0.33033879  1
  S  S26  1  0.72556358  0.94299576  0.30482274  1
  S  S27  1  0.25911510  0.96038549  0.67468911  1
  S  S28  1  0.15037758  0.42668598  0.43313840  1
  S  S29  1  0.82313613  0.44003712  0.53338499  1
  S  S30  1  0.44439400  0.48900642  0.82344188  1
  S  S31  1  0.56848783  0.47862413  0.20085318  1
  S  S32  1  0.92168288  0.48460746  0.98610806  1
  S  S33  1  0.08493134  0.58039957  0.01151017  1
  S  S34  1  0.67458820  0.51423122  0.91004502  1
  S  S35  1  0.34146596  0.40739026  0.10550667  1
  S  S36  1  0.60461877  0.96965884  0.67507686  1
  S  S37  1  0.42689154  0.95210220  0.38184583  1
  S  S38  1  0.25110693  0.45907901  0.30041260  1
  S  S39  1  0.76004777  0.40953951  0.67883363  1
  S  S40  1  0.65912547  0.94537704  0.44575057  1
  S  S41  1  0.32991922  0.04431544  0.55828803  1
