# generated using pymatgen
data_Pr2Mn3(SbS3)4
_symmetry_space_group_name_H-M   'P 1'
_cell_length_a   20.02960800
_cell_length_b   3.90410600
_cell_length_c   14.95364829
_cell_angle_alpha   90.00000000
_cell_angle_beta   126.33350609
_cell_angle_gamma   90.00000000
_symmetry_Int_Tables_number   1
_chemical_formula_structural   Pr2Mn3(SbS3)4
_chemical_formula_sum   'Pr4 Mn6 Sb8 S24'
_cell_volume   942.00006694
_cell_formula_units_Z   2
loop_
 _symmetry_equiv_pos_site_id
 _symmetry_equiv_pos_as_xyz
  1  'x, y, z'
loop_
 _atom_site_type_symbol
 _atom_site_label
 _atom_site_symmetry_multiplicity
 _atom_site_fract_x
 _atom_site_fract_y
 _atom_site_fract_z
 _atom_site_occupancy
  Pr  Pr0  1  0.26584628  0.53196591  0.86660950  1
  Pr  Pr1  1  0.72672206  0.55007677  0.12788678  1
  Pr  Pr2  1  0.76991216  0.96726288  0.88890214  1
  Pr  Pr3  1  0.24420718  0.98205005  0.14921106  1
  Mn  Mn4  1  0.26902460  0.57778556  0.57951586  1
  Mn  Mn5  1  0.69482116  0.46751319  0.37689746  1
  Mn  Mn6  1  0.99631507  0.97442767  0.00648873  1
  Mn  Mn7  1  0.79389752  0.99485591  0.59921825  1
  Mn  Mn8  1  0.19755840  0.95074397  0.40868054  1
  Mn  Mn9  1  0.49774504  0.50826404  0.99868369  1
  Sb  Sb10  1  0.88810828  0.00835344  0.43959074  1
  Sb  Sb11  1  0.10602917  0.03460667  0.55551123  1
  Sb  Sb12  1  0.03374596  0.53135864  0.81073616  1
  Sb  Sb13  1  0.96301412  0.50345846  0.18842466  1
  Sb  Sb14  1  0.40062117  0.49813532  0.46785183  1
  Sb  Sb15  1  0.61216154  0.45390099  0.57122656  1
  Sb  Sb16  1  0.53331177  0.99468067  0.82291508  1
  Sb  Sb17  1  0.46941297  0.01517164  0.18922887  1
  S  S18  1  0.92423337  0.99089210  0.78657934  1
  S  S19  1  0.05775360  0.98200393  0.19038077  1
  S  S20  1  0.40592747  0.97926643  0.97888606  1
  S  S21  1  0.57462967  0.04186518  0.01540173  1
  S  S22  1  0.16665616  0.02917047  0.90046779  1
  S  S23  1  0.83345573  0.98724807  0.11778086  1
  S  S24  1  0.09679118  0.51913307  0.66194923  1
  S  S25  1  0.88578347  0.48888923  0.33022740  1
  S  S26  1  0.72579315  0.94215230  0.30470255  1
  S  S27  1  0.25914365  0.96067988  0.67466199  1
  S  S28  1  0.15016241  0.42534343  0.43280334  1
  S  S29  1  0.82311439  0.43917510  0.53364249  1
  S  S30  1  0.44417925  0.48870077  0.82325848  1
  S  S31  1  0.56846161  0.47996835  0.20106467  1
  S  S32  1  0.92152363  0.48544187  0.98605769  1
  S  S33  1  0.08512490  0.58135058  0.01174690  1
  S  S34  1  0.67471307  0.51421779  0.91035359  1
  S  S35  1  0.34124441  0.40732204  0.10524858  1
  S  S36  1  0.60484842  0.96940221  0.67549647  1
  S  S37  1  0.42658599  0.95134237  0.38153211  1
  S  S38  1  0.25124655  0.46050924  0.30029460  1
  S  S39  1  0.75974769  0.40962449  0.67855856  1
  S  S40  1  0.65885492  0.94424101  0.44583800  1
  S  S41  1  0.32965482  0.04449636  0.55828321  1
