# generated using pymatgen
data_Pr2Mn3(SbS3)4
_symmetry_space_group_name_H-M   'P 1'
_cell_length_a   20.02960800
_cell_length_b   3.90410600
_cell_length_c   14.95364829
_cell_angle_alpha   90.00000000
_cell_angle_beta   126.33350609
_cell_angle_gamma   90.00000000
_symmetry_Int_Tables_number   1
_chemical_formula_structural   Pr2Mn3(SbS3)4
_chemical_formula_sum   'Pr4 Mn6 Sb8 S24'
_cell_volume   942.00006694
_cell_formula_units_Z   2
loop_
 _symmetry_equiv_pos_site_id
 _symmetry_equiv_pos_as_xyz
  1  'x, y, z'
loop_
 _atom_site_type_symbol
 _atom_site_label
 _atom_site_symmetry_multiplicity
 _atom_site_fract_x
 _atom_site_fract_y
 _atom_site_fract_z
 _atom_site_occupancy
  Pr  Pr0  1  0.26575050  0.53195115  0.86639226  1
  Pr  Pr1  1  0.72678477  0.54994073  0.12780641  1
  Pr  Pr2  1  0.76999729  0.96715468  0.88896666  1
  Pr  Pr3  1  0.24422722  0.98130376  0.14941797  1
  Mn  Mn4  1  0.26907262  0.57785383  0.57926265  1
  Mn  Mn5  1  0.69465201  0.46736483  0.37696731  1
  Mn  Mn6  1  0.99646163  0.97508655  0.00648361  1
  Mn  Mn7  1  0.79408298  0.99482933  0.59926468  1
  Mn  Mn8  1  0.19777044  0.95181740  0.40878039  1
  Mn  Mn9  1  0.49769241  0.50859907  0.99852108  1
  Sb  Sb10  1  0.88816425  0.00808645  0.43972138  1
  Sb  Sb11  1  0.10627120  0.03426836  0.55561071  1
  Sb  Sb12  1  0.03362793  0.53099667  0.81068319  1
  Sb  Sb13  1  0.96294544  0.50393302  0.18836961  1
  Sb  Sb14  1  0.40066055  0.49942045  0.46791559  1
  Sb  Sb15  1  0.61230540  0.45400056  0.57137854  1
  Sb  Sb16  1  0.53321903  0.99461077  0.82282581  1
  Sb  Sb17  1  0.46924232  0.01543941  0.18914715  1
  S  S18  1  0.92422976  0.98901094  0.78666036  1
  S  S19  1  0.05781935  0.98206537  0.19029146  1
  S  S20  1  0.40598789  0.97795464  0.97875064  1
  S  S21  1  0.57436050  0.04177465  0.01528846  1
  S  S22  1  0.16710485  0.03020304  0.90093160  1
  S  S23  1  0.83321421  0.98721440  0.11786093  1
  S  S24  1  0.09643827  0.51880498  0.66165011  1
  S  S25  1  0.88551104  0.48907714  0.33003011  1
  S  S26  1  0.72602619  0.94124123  0.30453474  1
  S  S27  1  0.25914880  0.96113935  0.67464111  1
  S  S28  1  0.14989411  0.42344738  0.43227710  1
  S  S29  1  0.82312592  0.43838980  0.53385116  1
  S  S30  1  0.44412980  0.48843465  0.82327176  1
  S  S31  1  0.56849663  0.48091216  0.20129329  1
  S  S32  1  0.92124190  0.48637740  0.98609710  1
  S  S33  1  0.08527514  0.58231232  0.01177207  1
  S  S34  1  0.67492450  0.51369174  0.91058259  1
  S  S35  1  0.34103587  0.40665680  0.10503816  1
  S  S36  1  0.60510251  0.96856460  0.67605370  1
  S  S37  1  0.42642335  0.95203967  0.38134321  1
  S  S38  1  0.25128368  0.46184552  0.30015890  1
  S  S39  1  0.75943796  0.41023490  0.67836513  1
  S  S40  1  0.65851098  0.94406431  0.44594345  1
  S  S41  1  0.32953875  0.04490189  0.55842336  1
