# generated using pymatgen
data_Pr2Mn3(SbS3)4
_symmetry_space_group_name_H-M   'P 1'
_cell_length_a   20.02960800
_cell_length_b   3.90410600
_cell_length_c   14.95364829
_cell_angle_alpha   90.00000000
_cell_angle_beta   126.33350609
_cell_angle_gamma   90.00000000
_symmetry_Int_Tables_number   1
_chemical_formula_structural   Pr2Mn3(SbS3)4
_chemical_formula_sum   'Pr4 Mn6 Sb8 S24'
_cell_volume   942.00006694
_cell_formula_units_Z   2
loop_
 _symmetry_equiv_pos_site_id
 _symmetry_equiv_pos_as_xyz
  1  'x, y, z'
loop_
 _atom_site_type_symbol
 _atom_site_label
 _atom_site_symmetry_multiplicity
 _atom_site_fract_x
 _atom_site_fract_y
 _atom_site_fract_z
 _atom_site_occupancy
  Pr  Pr0  1  0.26562380  0.53167139  0.86622183  1
  Pr  Pr1  1  0.72686051  0.54986386  0.12767518  1
  Pr  Pr2  1  0.77004916  0.96717128  0.88914319  1
  Pr  Pr3  1  0.24426627  0.98076148  0.14960497  1
  Mn  Mn4  1  0.26921959  0.57768877  0.57895975  1
  Mn  Mn5  1  0.69451143  0.46779795  0.37701427  1
  Mn  Mn6  1  0.99669621  0.97592922  0.00663979  1
  Mn  Mn7  1  0.79428455  0.99481435  0.59932247  1
  Mn  Mn8  1  0.19790821  0.95335169  0.40875359  1
  Mn  Mn9  1  0.49778740  0.50851203  0.99847880  1
  Sb  Sb10  1  0.88815197  0.00786852  0.43968656  1
  Sb  Sb11  1  0.10650907  0.03385344  0.55568144  1
  Sb  Sb12  1  0.03348769  0.53059749  0.81057972  1
  Sb  Sb13  1  0.96290054  0.50433002  0.18827226  1
  Sb  Sb14  1  0.40064023  0.50054189  0.46781162  1
  Sb  Sb15  1  0.61248465  0.45443861  0.57148887  1
  Sb  Sb16  1  0.53310358  0.99470809  0.82265458  1
  Sb  Sb17  1  0.46912332  0.01576255  0.18911710  1
  S  S18  1  0.92429436  0.98758572  0.78677488  1
  S  S19  1  0.05776060  0.98194797  0.19013745  1
  S  S20  1  0.40597817  0.97699056  0.97871748  1
  S  S21  1  0.57425717  0.04192460  0.01530135  1
  S  S22  1  0.16742613  0.03120203  0.90137871  1
  S  S23  1  0.83304542  0.98696409  0.11778085  1
  S  S24  1  0.09619829  0.51876558  0.66151288  1
  S  S25  1  0.88533425  0.48920745  0.32988008  1
  S  S26  1  0.72618771  0.94036104  0.30437215  1
  S  S27  1  0.25926836  0.96188039  0.67467997  1
  S  S28  1  0.14947882  0.42102689  0.43169506  1
  S  S29  1  0.82309665  0.43752591  0.53399490  1
  S  S30  1  0.44395325  0.48788515  0.82325766  1
  S  S31  1  0.56863246  0.48222672  0.20159601  1
  S  S32  1  0.92094015  0.48718403  0.98610079  1
  S  S33  1  0.08537132  0.58246199  0.01178760  1
  S  S34  1  0.67524772  0.51368232  0.91084612  1
  S  S35  1  0.34080212  0.40655499  0.10498022  1
  S  S36  1  0.60519994  0.96801473  0.67643979  1
  S  S37  1  0.42633236  0.95355244  0.38128956  1
  S  S38  1  0.25122385  0.46313609  0.29982981  1
  S  S39  1  0.75914624  0.41108822  0.67822980  1
  S  S40  1  0.65830403  0.94319525  0.44613768  1
  S  S41  1  0.32952984  0.04472045  0.55855172  1
