# generated using pymatgen
data_Pr2Mn3(SbS3)4
_symmetry_space_group_name_H-M   'P 1'
_cell_length_a   20.02960800
_cell_length_b   3.90410600
_cell_length_c   14.95364829
_cell_angle_alpha   90.00000000
_cell_angle_beta   126.33350609
_cell_angle_gamma   90.00000000
_symmetry_Int_Tables_number   1
_chemical_formula_structural   Pr2Mn3(SbS3)4
_chemical_formula_sum   'Pr4 Mn6 Sb8 S24'
_cell_volume   942.00006694
_cell_formula_units_Z   2
loop_
 _symmetry_equiv_pos_site_id
 _symmetry_equiv_pos_as_xyz
  1  'x, y, z'
loop_
 _atom_site_type_symbol
 _atom_site_label
 _atom_site_symmetry_multiplicity
 _atom_site_fract_x
 _atom_site_fract_y
 _atom_site_fract_z
 _atom_site_occupancy
  Pr  Pr0  1  0.26548593  0.53129405  0.86603874  1
  Pr  Pr1  1  0.72684446  0.54959420  0.12754078  1
  Pr  Pr2  1  0.77013173  0.96712821  0.88931316  1
  Pr  Pr3  1  0.24430881  0.98029358  0.14980109  1
  Mn  Mn4  1  0.26928416  0.57770397  0.57876316  1
  Mn  Mn5  1  0.69426328  0.46812092  0.37703248  1
  Mn  Mn6  1  0.99702193  0.97709301  0.00700029  1
  Mn  Mn7  1  0.79442961  0.99519682  0.59935727  1
  Mn  Mn8  1  0.19814382  0.95444518  0.40891749  1
  Mn  Mn9  1  0.49780576  0.50895465  0.99840900  1
  Sb  Sb10  1  0.88817041  0.00764225  0.43978361  1
  Sb  Sb11  1  0.10674953  0.03328969  0.55575664  1
  Sb  Sb12  1  0.03324115  0.53021322  0.81044138  1
  Sb  Sb13  1  0.96284815  0.50456278  0.18813386  1
  Sb  Sb14  1  0.40063088  0.50164305  0.46774325  1
  Sb  Sb15  1  0.61262447  0.45474616  0.57162191  1
  Sb  Sb16  1  0.53299202  0.99453970  0.82237632  1
  Sb  Sb17  1  0.46898422  0.01635615  0.18894705  1
  S  S18  1  0.92427280  0.98679523  0.78684766  1
  S  S19  1  0.05786095  0.98140814  0.19009914  1
  S  S20  1  0.40597113  0.97596762  0.97868288  1
  S  S21  1  0.57418771  0.04197475  0.01521742  1
  S  S22  1  0.16771187  0.03231273  0.90194174  1
  S  S23  1  0.83301760  0.98655550  0.11783361  1
  S  S24  1  0.09613989  0.51821322  0.66154108  1
  S  S25  1  0.88530109  0.48902463  0.32999557  1
  S  S26  1  0.72631801  0.94004184  0.30425065  1
  S  S27  1  0.25960933  0.96255237  0.67506302  1
  S  S28  1  0.14909313  0.41861892  0.43113968  1
  S  S29  1  0.82313523  0.43614301  0.53430980  1
  S  S30  1  0.44370895  0.48732819  0.82316532  1
  S  S31  1  0.56867855  0.48295250  0.20186394  1
  S  S32  1  0.92066298  0.48801878  0.98604077  1
  S  S33  1  0.08535751  0.58303061  0.01183299  1
  S  S34  1  0.67548261  0.51417989  0.91103669  1
  S  S35  1  0.34049401  0.40592656  0.10481971  1
  S  S36  1  0.60513739  0.96795989  0.67677846  1
  S  S37  1  0.42630209  0.95435736  0.38115406  1
  S  S38  1  0.25120573  0.46403473  0.29952453  1
  S  S39  1  0.75914554  0.41157230  0.67819896  1
  S  S40  1  0.65816990  0.94205563  0.44626234  1
  S  S41  1  0.32956050  0.04530281  0.55860753  1
