# generated using pymatgen
data_Pr2Mn3(SbS3)4
_symmetry_space_group_name_H-M   'P 1'
_cell_length_a   20.02960800
_cell_length_b   3.90410600
_cell_length_c   14.95364829
_cell_angle_alpha   90.00000000
_cell_angle_beta   126.33350609
_cell_angle_gamma   90.00000000
_symmetry_Int_Tables_number   1
_chemical_formula_structural   Pr2Mn3(SbS3)4
_chemical_formula_sum   'Pr4 Mn6 Sb8 S24'
_cell_volume   942.00006694
_cell_formula_units_Z   2
loop_
 _symmetry_equiv_pos_site_id
 _symmetry_equiv_pos_as_xyz
  1  'x, y, z'
loop_
 _atom_site_type_symbol
 _atom_site_label
 _atom_site_symmetry_multiplicity
 _atom_site_fract_x
 _atom_site_fract_y
 _atom_site_fract_z
 _atom_site_occupancy
  Pr  Pr0  1  0.26532997  0.53102921  0.86586831  1
  Pr  Pr1  1  0.72680663  0.54950851  0.12748662  1
  Pr  Pr2  1  0.77018629  0.96692966  0.88946527  1
  Pr  Pr3  1  0.24442271  0.98003002  0.15007686  1
  Mn  Mn4  1  0.26933122  0.57760010  0.57843462  1
  Mn  Mn5  1  0.69406771  0.46821836  0.37720462  1
  Mn  Mn6  1  0.99745151  0.97832029  0.00752748  1
  Mn  Mn7  1  0.79460277  0.99545322  0.59946704  1
  Mn  Mn8  1  0.19842063  0.95546123  0.40909745  1
  Mn  Mn9  1  0.49784874  0.50928683  0.99844399  1
  Sb  Sb10  1  0.88823333  0.00762161  0.43990908  1
  Sb  Sb11  1  0.10707464  0.03277065  0.55596758  1
  Sb  Sb12  1  0.03312704  0.53004395  0.81047211  1
  Sb  Sb13  1  0.96275683  0.50471739  0.18808308  1
  Sb  Sb14  1  0.40065962  0.50281489  0.46772203  1
  Sb  Sb15  1  0.61274880  0.45499325  0.57184249  1
  Sb  Sb16  1  0.53289571  0.99417993  0.82219727  1
  Sb  Sb17  1  0.46885103  0.01701543  0.18874166  1
  S  S18  1  0.92412064  0.98611481  0.78676742  1
  S  S19  1  0.05805655  0.98080581  0.19005741  1
  S  S20  1  0.40607713  0.97579341  0.97866400  1
  S  S21  1  0.57419444  0.04215693  0.01523010  1
  S  S22  1  0.16789052  0.03330461  0.90232707  1
  S  S23  1  0.83288669  0.98639630  0.11772107  1
  S  S24  1  0.09613220  0.51771413  0.66161167  1
  S  S25  1  0.88522836  0.48916399  0.32990743  1
  S  S26  1  0.72644196  0.93976877  0.30410246  1
  S  S27  1  0.25988080  0.96315501  0.67545479  1
  S  S28  1  0.14875655  0.41688757  0.43059595  1
  S  S29  1  0.82318157  0.43419117  0.53458289  1
  S  S30  1  0.44353142  0.48713779  0.82299000  1
  S  S31  1  0.56865193  0.48287793  0.20207150  1
  S  S32  1  0.92055420  0.48881301  0.98610188  1
  S  S33  1  0.08541693  0.58300356  0.01184994  1
  S  S34  1  0.67579813  0.51505539  0.91122166  1
  S  S35  1  0.34032484  0.40574460  0.10458890  1
  S  S36  1  0.60505368  0.96809255  0.67712717  1
  S  S37  1  0.42638509  0.95480942  0.38127027  1
  S  S38  1  0.25100471  0.46447659  0.29905882  1
  S  S39  1  0.75912777  0.41121389  0.67818560  1
  S  S40  1  0.65800963  0.94074733  0.44620651  1
  S  S41  1  0.32968428  0.04528872  0.55874426  1
