# generated using pymatgen
data_Pr2Mn3(SbS3)4
_symmetry_space_group_name_H-M   'P 1'
_cell_length_a   20.02960800
_cell_length_b   3.90410600
_cell_length_c   14.95364829
_cell_angle_alpha   90.00000000
_cell_angle_beta   126.33350609
_cell_angle_gamma   90.00000000
_symmetry_Int_Tables_number   1
_chemical_formula_structural   Pr2Mn3(SbS3)4
_chemical_formula_sum   'Pr4 Mn6 Sb8 S24'
_cell_volume   942.00006694
_cell_formula_units_Z   2
loop_
 _symmetry_equiv_pos_site_id
 _symmetry_equiv_pos_as_xyz
  1  'x, y, z'
loop_
 _atom_site_type_symbol
 _atom_site_label
 _atom_site_symmetry_multiplicity
 _atom_site_fract_x
 _atom_site_fract_y
 _atom_site_fract_z
 _atom_site_occupancy
  Pr  Pr0  1  0.26511857  0.53071996  0.86569316  1
  Pr  Pr1  1  0.72666759  0.54948984  0.12736770  1
  Pr  Pr2  1  0.77023171  0.96682937  0.88959710  1
  Pr  Pr3  1  0.24451177  0.98004621  0.15027927  1
  Mn  Mn4  1  0.26948783  0.57722132  0.57832393  1
  Mn  Mn5  1  0.69388046  0.46826000  0.37728257  1
  Mn  Mn6  1  0.99782553  0.97888294  0.00806432  1
  Mn  Mn7  1  0.79483465  0.99565028  0.59957813  1
  Mn  Mn8  1  0.19869849  0.95636950  0.40939644  1
  Mn  Mn9  1  0.49777722  0.50971513  0.99845041  1
  Sb  Sb10  1  0.88833059  0.00783391  0.44002937  1
  Sb  Sb11  1  0.10734493  0.03237094  0.55606810  1
  Sb  Sb12  1  0.03297230  0.52970259  0.81038376  1
  Sb  Sb13  1  0.96265475  0.50486424  0.18800247  1
  Sb  Sb14  1  0.40066991  0.50410227  0.46767790  1
  Sb  Sb15  1  0.61279980  0.45532750  0.57206008  1
  Sb  Sb16  1  0.53284951  0.99396938  0.82203312  1
  Sb  Sb17  1  0.46872904  0.01759608  0.18855558  1
  S  S18  1  0.92400208  0.98521484  0.78668485  1
  S  S19  1  0.05817569  0.98074313  0.18991869  1
  S  S20  1  0.40658430  0.97538789  0.97907634  1
  S  S21  1  0.57416035  0.04249627  0.01517939  1
  S  S22  1  0.16815413  0.03453447  0.90279544  1
  S  S23  1  0.83285959  0.98593791  0.11773627  1
  S  S24  1  0.09601342  0.51719169  0.66155565  1
  S  S25  1  0.88512419  0.48964638  0.32985973  1
  S  S26  1  0.72668543  0.93992934  0.30400884  1
  S  S27  1  0.26008513  0.96331341  0.67575296  1
  S  S28  1  0.14851801  0.41552386  0.43016049  1
  S  S29  1  0.82334208  0.43205828  0.53510858  1
  S  S30  1  0.44340909  0.48735569  0.82277781  1
  S  S31  1  0.56863298  0.48316116  0.20238237  1
  S  S32  1  0.92041269  0.48998097  0.98619716  1
  S  S33  1  0.08544404  0.58282088  0.01176597  1
  S  S34  1  0.67601972  0.51650256  0.91119565  1
  S  S35  1  0.34031850  0.40606259  0.10441444  1
  S  S36  1  0.60500600  0.96845757  0.67752845  1
  S  S37  1  0.42654384  0.95476594  0.38143026  1
  S  S38  1  0.25088407  0.46490764  0.29868416  1
  S  S39  1  0.75900974  0.41116420  0.67815141  1
  S  S40  1  0.65800781  0.93905464  0.44622358  1
  S  S41  1  0.32979822  0.04530328  0.55879062  1
