# generated using pymatgen
data_Pr2Mn3(SbS3)4
_symmetry_space_group_name_H-M   'P 1'
_cell_length_a   20.02960800
_cell_length_b   3.90410600
_cell_length_c   14.95364829
_cell_angle_alpha   90.00000000
_cell_angle_beta   126.33350609
_cell_angle_gamma   90.00000000
_symmetry_Int_Tables_number   1
_chemical_formula_structural   Pr2Mn3(SbS3)4
_chemical_formula_sum   'Pr4 Mn6 Sb8 S24'
_cell_volume   942.00006694
_cell_formula_units_Z   2
loop_
 _symmetry_equiv_pos_site_id
 _symmetry_equiv_pos_as_xyz
  1  'x, y, z'
loop_
 _atom_site_type_symbol
 _atom_site_label
 _atom_site_symmetry_multiplicity
 _atom_site_fract_x
 _atom_site_fract_y
 _atom_site_fract_z
 _atom_site_occupancy
  Pr  Pr0  1  0.26931151  0.49825925  0.86636365  1
  Pr  Pr1  1  0.73381645  0.50888157  0.13375568  1
  Pr  Pr2  1  0.76327375  0.02171915  0.86114027  1
  Pr  Pr3  1  0.23399674  0.99704243  0.13205647  1
  Mn  Mn4  1  0.29236086  0.47404113  0.59516022  1
  Mn  Mn5  1  0.68560520  0.46564658  0.36508403  1
  Mn  Mn6  1  0.00702833  0.99348180  0.01406507  1
  Mn  Mn7  1  0.79996023  0.00836748  0.61927609  1
  Mn  Mn8  1  0.19820830  0.97484084  0.37176391  1
  Mn  Mn9  1  0.48864601  0.46632099  0.98809592  1
  Sb  Sb10  1  0.89031457  0.98439490  0.45198202  1
  Sb  Sb11  1  0.10966272  0.97775530  0.54393365  1
  Sb  Sb12  1  0.03516579  0.52062917  0.81863070  1
  Sb  Sb13  1  0.96482308  0.50023979  0.18909710  1
  Sb  Sb14  1  0.39334122  0.49775662  0.44936818  1
  Sb  Sb15  1  0.60584383  0.47015839  0.54837904  1
  Sb  Sb16  1  0.53348161  0.98664278  0.80831108  1
  Sb  Sb17  1  0.46519763  0.02254457  0.19131526  1
  S  S18  1  0.93783367  0.01673424  0.80796457  1
  S  S19  1  0.06371701  0.98134115  0.19789970  1
  S  S20  1  0.42141076  0.95966805  0.99262630  1
  S  S21  1  0.58286140  0.03310098  0.01249029  1
  S  S22  1  0.17255040  0.05573999  0.90116705  1
  S  S23  1  0.82888314  0.05438695  0.10365014  1
  S  S24  1  0.09147976  0.50175093  0.64781983  1
  S  S25  1  0.91499002  0.48461583  0.35845539  1
  S  S26  1  0.73547784  0.97332196  0.29784532  1
  S  S27  1  0.26085816  0.00138001  0.70985754  1
  S  S28  1  0.16397583  0.51801664  0.43050986  1
  S  S29  1  0.81892041  0.48111785  0.54682274  1
  S  S30  1  0.43116311  0.47788388  0.79560843  1
  S  S31  1  0.55373863  0.51897670  0.18059783  1
  S  S32  1  0.91571341  0.48911614  0.98907067  1
  S  S33  1  0.08883417  0.49840909  0.03202347  1
  S  S34  1  0.66418286  0.54718169  0.89170546  1
  S  S35  1  0.32682372  0.50375859  0.09317856  1
  S  S36  1  0.59730044  0.00378430  0.65679231  1
  S  S37  1  0.40049668  0.97994951  0.34356665  1
  S  S38  1  0.24265275  0.46999224  0.31584157  1
  S  S39  1  0.75984797  0.52272578  0.68799451  1
  S  S40  1  0.66505820  0.00549104  0.44965378  1
  S  S41  1  0.33098900  0.98555350  0.55519813  1
