# generated using pymatgen
data_Pr2Mn3(SbS3)4
_symmetry_space_group_name_H-M   'P 1'
_cell_length_a   20.02960800
_cell_length_b   3.90410600
_cell_length_c   14.95364829
_cell_angle_alpha   90.00000000
_cell_angle_beta   126.33350609
_cell_angle_gamma   90.00000000
_symmetry_Int_Tables_number   1
_chemical_formula_structural   Pr2Mn3(SbS3)4
_chemical_formula_sum   'Pr4 Mn6 Sb8 S24'
_cell_volume   942.00006694
_cell_formula_units_Z   2
loop_
 _symmetry_equiv_pos_site_id
 _symmetry_equiv_pos_as_xyz
  1  'x, y, z'
loop_
 _atom_site_type_symbol
 _atom_site_label
 _atom_site_symmetry_multiplicity
 _atom_site_fract_x
 _atom_site_fract_y
 _atom_site_fract_z
 _atom_site_occupancy
  Pr  Pr0  1  0.26493063  0.53064759  0.86555770  1
  Pr  Pr1  1  0.72657462  0.54916564  0.12740086  1
  Pr  Pr2  1  0.77026403  0.96677369  0.88975896  1
  Pr  Pr3  1  0.24459238  0.98000060  0.15045873  1
  Mn  Mn4  1  0.26963258  0.57679014  0.57815665  1
  Mn  Mn5  1  0.69375251  0.46872287  0.37747291  1
  Mn  Mn6  1  0.99823130  0.97898307  0.00865106  1
  Mn  Mn7  1  0.79502565  0.99609128  0.59968903  1
  Mn  Mn8  1  0.19897374  0.95706845  0.40957580  1
  Mn  Mn9  1  0.49786083  0.51025737  0.99863250  1
  Sb  Sb10  1  0.88842136  0.00814970  0.44016682  1
  Sb  Sb11  1  0.10765718  0.03237849  0.55623871  1
  Sb  Sb12  1  0.03288096  0.52926198  0.81028992  1
  Sb  Sb13  1  0.96258132  0.50489847  0.18792291  1
  Sb  Sb14  1  0.40070004  0.50523708  0.46764385  1
  Sb  Sb15  1  0.61274379  0.45520227  0.57219567  1
  Sb  Sb16  1  0.53282242  0.99372694  0.82188813  1
  Sb  Sb17  1  0.46865011  0.01812555  0.18834263  1
  S  S18  1  0.92396013  0.98505614  0.78661989  1
  S  S19  1  0.05842362  0.98117667  0.18997550  1
  S  S20  1  0.40708930  0.97503245  0.97965917  1
  S  S21  1  0.57423295  0.04266446  0.01508090  1
  S  S22  1  0.16833652  0.03575457  0.90327595  1
  S  S23  1  0.83282466  0.98565644  0.11765700  1
  S  S24  1  0.09586407  0.51676951  0.66138094  1
  S  S25  1  0.88510084  0.49050071  0.32993693  1
  S  S26  1  0.72685761  0.93984193  0.30390579  1
  S  S27  1  0.26037570  0.96285800  0.67624168  1
  S  S28  1  0.14848186  0.41330655  0.42979105  1
  S  S29  1  0.82371374  0.43010365  0.53582560  1
  S  S30  1  0.44340820  0.48673933  0.82274361  1
  S  S31  1  0.56867966  0.48337340  0.20253879  1
  S  S32  1  0.92044469  0.49130268  0.98650007  1
  S  S33  1  0.08568974  0.58234239  0.01180526  1
  S  S34  1  0.67636915  0.51806512  0.91129665  1
  S  S35  1  0.34013324  0.40610489  0.10412257  1
  S  S36  1  0.60489703  0.96920117  0.67766972  1
  S  S37  1  0.42673026  0.95557449  0.38166842  1
  S  S38  1  0.25057126  0.46523903  0.29837229  1
  S  S39  1  0.75896846  0.41077629  0.67821874  1
  S  S40  1  0.65806050  0.93753340  0.44621352  1
  S  S41  1  0.33003576  0.04547460  0.55882268  1
