# generated using pymatgen
data_Pr2Mn3(SbS3)4
_symmetry_space_group_name_H-M   'P 1'
_cell_length_a   20.02960800
_cell_length_b   3.90410600
_cell_length_c   14.95364829
_cell_angle_alpha   90.00000000
_cell_angle_beta   126.33350609
_cell_angle_gamma   90.00000000
_symmetry_Int_Tables_number   1
_chemical_formula_structural   Pr2Mn3(SbS3)4
_chemical_formula_sum   'Pr4 Mn6 Sb8 S24'
_cell_volume   942.00006694
_cell_formula_units_Z   2
loop_
 _symmetry_equiv_pos_site_id
 _symmetry_equiv_pos_as_xyz
  1  'x, y, z'
loop_
 _atom_site_type_symbol
 _atom_site_label
 _atom_site_symmetry_multiplicity
 _atom_site_fract_x
 _atom_site_fract_y
 _atom_site_fract_z
 _atom_site_occupancy
  Pr  Pr0  1  0.26476261  0.53043269  0.86548660  1
  Pr  Pr1  1  0.72650478  0.54892991  0.12739442  1
  Pr  Pr2  1  0.77024799  0.96658704  0.88992436  1
  Pr  Pr3  1  0.24470507  0.98031525  0.15067382  1
  Mn  Mn4  1  0.26982598  0.57627798  0.57807856  1
  Mn  Mn5  1  0.69357068  0.46884810  0.37765505  1
  Mn  Mn6  1  0.99856281  0.97925154  0.00910151  1
  Mn  Mn7  1  0.79509141  0.99663639  0.59989885  1
  Mn  Mn8  1  0.19935377  0.95803688  0.40978641  1
  Mn  Mn9  1  0.49796489  0.51053147  0.99899371  1
  Sb  Sb10  1  0.88858297  0.00805973  0.44029626  1
  Sb  Sb11  1  0.10784569  0.03231338  0.55630696  1
  Sb  Sb12  1  0.03284726  0.52880564  0.81026260  1
  Sb  Sb13  1  0.96247892  0.50498182  0.18783387  1
  Sb  Sb14  1  0.40077743  0.50615342  0.46760083  1
  Sb  Sb15  1  0.61267707  0.45505055  0.57230728  1
  Sb  Sb16  1  0.53278998  0.99320324  0.82176150  1
  Sb  Sb17  1  0.46854668  0.01855205  0.18806809  1
  S  S18  1  0.92391982  0.98514136  0.78663826  1
  S  S19  1  0.05857674  0.98154944  0.19012260  1
  S  S20  1  0.40724662  0.97520788  0.97995093  1
  S  S21  1  0.57445484  0.04278151  0.01523159  1
  S  S22  1  0.16848974  0.03671652  0.90369981  1
  S  S23  1  0.83270604  0.98634319  0.11754803  1
  S  S24  1  0.09558783  0.51662707  0.66118110  1
  S  S25  1  0.88510574  0.49093369  0.33002934  1
  S  S26  1  0.72719337  0.94080927  0.30392386  1
  S  S27  1  0.26065985  0.96295215  0.67681914  1
  S  S28  1  0.14837062  0.41156132  0.42933589  1
  S  S29  1  0.82414853  0.42830063  0.53644957  1
  S  S30  1  0.44337208  0.48639390  0.82272115  1
  S  S31  1  0.56859100  0.48305334  0.20264429  1
  S  S32  1  0.92064117  0.49245010  0.98690418  1
  S  S33  1  0.08591756  0.58204754  0.01177056  1
  S  S34  1  0.67676681  0.51899807  0.91137835  1
  S  S35  1  0.33996628  0.40650963  0.10386291  1
  S  S36  1  0.60471546  0.96934763  0.67756333  1
  S  S37  1  0.42681981  0.95672201  0.38183897  1
  S  S38  1  0.25017901  0.46561984  0.29802578  1
  S  S39  1  0.75908763  0.40972864  0.67861803  1
  S  S40  1  0.65800186  0.93616136  0.44620275  1
  S  S41  1  0.33040853  0.04548053  0.55902763  1
