# generated using pymatgen
data_Pr2Mn3(SbS3)4
_symmetry_space_group_name_H-M   'P 1'
_cell_length_a   20.02960800
_cell_length_b   3.90410600
_cell_length_c   14.95364829
_cell_angle_alpha   90.00000000
_cell_angle_beta   126.33350609
_cell_angle_gamma   90.00000000
_symmetry_Int_Tables_number   1
_chemical_formula_structural   Pr2Mn3(SbS3)4
_chemical_formula_sum   'Pr4 Mn6 Sb8 S24'
_cell_volume   942.00006694
_cell_formula_units_Z   2
loop_
 _symmetry_equiv_pos_site_id
 _symmetry_equiv_pos_as_xyz
  1  'x, y, z'
loop_
 _atom_site_type_symbol
 _atom_site_label
 _atom_site_symmetry_multiplicity
 _atom_site_fract_x
 _atom_site_fract_y
 _atom_site_fract_z
 _atom_site_occupancy
  Pr  Pr0  1  0.26455172  0.53019519  0.86539518  1
  Pr  Pr1  1  0.72648417  0.54892617  0.12740199  1
  Pr  Pr2  1  0.77020288  0.96631303  0.89004804  1
  Pr  Pr3  1  0.24477666  0.98052395  0.15085055  1
  Mn  Mn4  1  0.26983384  0.57548391  0.57793422  1
  Mn  Mn5  1  0.69346529  0.46843783  0.37796341  1
  Mn  Mn6  1  0.99886785  0.97966263  0.00945949  1
  Mn  Mn7  1  0.79526812  0.99728492  0.60011218  1
  Mn  Mn8  1  0.19957833  0.95903368  0.40978490  1
  Mn  Mn9  1  0.49817225  0.51060424  0.99954255  1
  Sb  Sb10  1  0.88878866  0.00826419  0.44051898  1
  Sb  Sb11  1  0.10808704  0.03218908  0.55632582  1
  Sb  Sb12  1  0.03281667  0.52841276  0.81021341  1
  Sb  Sb13  1  0.96236414  0.50549578  0.18778633  1
  Sb  Sb14  1  0.40089528  0.50703654  0.46755734  1
  Sb  Sb15  1  0.61269545  0.45473551  0.57245714  1
  Sb  Sb16  1  0.53270251  0.99304838  0.82165021  1
  Sb  Sb17  1  0.46837864  0.01896919  0.18774207  1
  S  S18  1  0.92398478  0.98523960  0.78676191  1
  S  S19  1  0.05861776  0.98231772  0.19011501  1
  S  S20  1  0.40740192  0.97539372  0.98021288  1
  S  S21  1  0.57472009  0.04282366  0.01551158  1
  S  S22  1  0.16869954  0.03782140  0.90405780  1
  S  S23  1  0.83255018  0.98723423  0.11741747  1
  S  S24  1  0.09507334  0.51597754  0.66072240  1
  S  S25  1  0.88507052  0.49102540  0.33001884  1
  S  S26  1  0.72730709  0.94204379  0.30366313  1
  S  S27  1  0.26096921  0.96314627  0.67720378  1
  S  S28  1  0.14830498  0.41013186  0.42909107  1
  S  S29  1  0.82455696  0.42670047  0.53707150  1
  S  S30  1  0.44334700  0.48571064  0.82274443  1
  S  S31  1  0.56859253  0.48308651  0.20263389  1
  S  S32  1  0.92073981  0.49325080  0.98741907  1
  S  S33  1  0.08627380  0.58190646  0.01181686  1
  S  S34  1  0.67713746  0.52025042  0.91147453  1
  S  S35  1  0.33967262  0.40710915  0.10337310  1
  S  S36  1  0.60464801  0.96953119  0.67757402  1
  S  S37  1  0.42688354  0.95732892  0.38180374  1
  S  S38  1  0.24994150  0.46599277  0.29766500  1
  S  S39  1  0.75930108  0.40911070  0.67886033  1
  S  S40  1  0.65787480  0.93512562  0.44623186  1
  S  S41  1  0.33078563  0.04551269  0.55933025  1
