# generated using pymatgen
data_Pr2Mn3(SbS3)4
_symmetry_space_group_name_H-M   'P 1'
_cell_length_a   20.02960800
_cell_length_b   3.90410600
_cell_length_c   14.95364829
_cell_angle_alpha   90.00000000
_cell_angle_beta   126.33350609
_cell_angle_gamma   90.00000000
_symmetry_Int_Tables_number   1
_chemical_formula_structural   Pr2Mn3(SbS3)4
_chemical_formula_sum   'Pr4 Mn6 Sb8 S24'
_cell_volume   942.00006694
_cell_formula_units_Z   2
loop_
 _symmetry_equiv_pos_site_id
 _symmetry_equiv_pos_as_xyz
  1  'x, y, z'
loop_
 _atom_site_type_symbol
 _atom_site_label
 _atom_site_symmetry_multiplicity
 _atom_site_fract_x
 _atom_site_fract_y
 _atom_site_fract_z
 _atom_site_occupancy
  Pr  Pr0  1  0.26439008  0.52998142  0.86521054  1
  Pr  Pr1  1  0.72652526  0.54895230  0.12745773  1
  Pr  Pr2  1  0.77016259  0.96618201  0.89016165  1
  Pr  Pr3  1  0.24480387  0.98068909  0.15102157  1
  Mn  Mn4  1  0.26994439  0.57507595  0.57789077  1
  Mn  Mn5  1  0.69334473  0.46782560  0.37827588  1
  Mn  Mn6  1  0.99920725  0.98036128  0.00976789  1
  Mn  Mn7  1  0.79559804  0.99803751  0.60039241  1
  Mn  Mn8  1  0.19976314  0.95908624  0.40974164  1
  Mn  Mn9  1  0.49838984  0.51112133  0.00001942  1
  Sb  Sb10  1  0.88894580  0.00840252  0.44077710  1
  Sb  Sb11  1  0.10826629  0.03175535  0.55630021  1
  Sb  Sb12  1  0.03276367  0.52822845  0.81012369  1
  Sb  Sb13  1  0.96233743  0.50583487  0.18783071  1
  Sb  Sb14  1  0.40096308  0.50762900  0.46746198  1
  Sb  Sb15  1  0.61273067  0.45444626  0.57261380  1
  Sb  Sb16  1  0.53257704  0.99280699  0.82154996  1
  Sb  Sb17  1  0.46826012  0.01959049  0.18749405  1
  S  S18  1  0.92410478  0.98533614  0.78695096  1
  S  S19  1  0.05857041  0.98234171  0.19003892  1
  S  S20  1  0.40760627  0.97535849  0.98043984  1
  S  S21  1  0.57498055  0.04311566  0.01568945  1
  S  S22  1  0.16890401  0.03859589  0.90448340  1
  S  S23  1  0.83240853  0.98825342  0.11733350  1
  S  S24  1  0.09452777  0.51553021  0.66014289  1
  S  S25  1  0.88516048  0.49074883  0.33006361  1
  S  S26  1  0.72758463  0.94337995  0.30341621  1
  S  S27  1  0.26137531  0.96372516  0.67751173  1
  S  S28  1  0.14825380  0.40815315  0.42889942  1
  S  S29  1  0.82502196  0.42547691  0.53772890  1
  S  S30  1  0.44325976  0.48541075  0.82250981  1
  S  S31  1  0.56867467  0.48335912  0.20270391  1
  S  S32  1  0.92067606  0.49361678  0.98781211  1
  S  S33  1  0.08668172  0.58146868  0.01193420  1
  S  S34  1  0.67753410  0.52164589  0.91160036  1
  S  S35  1  0.33929404  0.40821075  0.10296252  1
  S  S36  1  0.60463927  0.97025831  0.67753640  1
  S  S37  1  0.42691603  0.95801973  0.38181674  1
  S  S38  1  0.24976599  0.46607732  0.29721936  1
  S  S39  1  0.75955728  0.40783548  0.67920495  1
  S  S40  1  0.65784033  0.93458027  0.44619205  1
  S  S41  1  0.33104034  0.04619060  0.55958284  1
