# generated using pymatgen
data_Pr2Mn3(SbS3)4
_symmetry_space_group_name_H-M   'P 1'
_cell_length_a   20.02960800
_cell_length_b   3.90410600
_cell_length_c   14.95364829
_cell_angle_alpha   90.00000000
_cell_angle_beta   126.33350609
_cell_angle_gamma   90.00000000
_symmetry_Int_Tables_number   1
_chemical_formula_structural   Pr2Mn3(SbS3)4
_chemical_formula_sum   'Pr4 Mn6 Sb8 S24'
_cell_volume   942.00006694
_cell_formula_units_Z   2
loop_
 _symmetry_equiv_pos_site_id
 _symmetry_equiv_pos_as_xyz
  1  'x, y, z'
loop_
 _atom_site_type_symbol
 _atom_site_label
 _atom_site_symmetry_multiplicity
 _atom_site_fract_x
 _atom_site_fract_y
 _atom_site_fract_z
 _atom_site_occupancy
  Pr  Pr0  1  0.26426497  0.52962092  0.86511242  1
  Pr  Pr1  1  0.72653345  0.54917522  0.12746387  1
  Pr  Pr2  1  0.77013548  0.96607363  0.89030194  1
  Pr  Pr3  1  0.24487938  0.98081468  0.15120897  1
  Mn  Mn4  1  0.27008110  0.57445285  0.57789804  1
  Mn  Mn5  1  0.69324878  0.46776057  0.37843320  1
  Mn  Mn6  1  0.99936589  0.98060876  0.00986685  1
  Mn  Mn7  1  0.79604639  0.99875995  0.60069335  1
  Mn  Mn8  1  0.19988191  0.95923748  0.40970685  1
  Mn  Mn9  1  0.49859280  0.51146125  0.00039410  1
  Sb  Sb10  1  0.88911621  0.00852038  0.44106108  1
  Sb  Sb11  1  0.10843507  0.03156087  0.55637275  1
  Sb  Sb12  1  0.03271046  0.52828326  0.81002435  1
  Sb  Sb13  1  0.96236562  0.50620303  0.18789752  1
  Sb  Sb14  1  0.40100131  0.50834262  0.46737184  1
  Sb  Sb15  1  0.61273813  0.45395736  0.57262821  1
  Sb  Sb16  1  0.53255085  0.99264675  0.82155286  1
  Sb  Sb17  1  0.46814864  0.02049694  0.18727526  1
  S  S18  1  0.92422622  0.98563501  0.78705197  1
  S  S19  1  0.05850968  0.98238209  0.18986165  1
  S  S20  1  0.40784032  0.97518748  0.98076478  1
  S  S21  1  0.57528397  0.04308145  0.01597719  1
  S  S22  1  0.16908560  0.03950488  0.90484178  1
  S  S23  1  0.83239630  0.99003237  0.11725646  1
  S  S24  1  0.09392708  0.51411972  0.65936897  1
  S  S25  1  0.88515267  0.49079862  0.33009736  1
  S  S26  1  0.72797987  0.94458841  0.30339983  1
  S  S27  1  0.26176145  0.96418650  0.67795670  1
  S  S28  1  0.14821290  0.40566947  0.42863946  1
  S  S29  1  0.82563521  0.42471103  0.53845776  1
  S  S30  1  0.44320204  0.48571849  0.82227517  1
  S  S31  1  0.56862938  0.48319868  0.20266769  1
  S  S32  1  0.92057426  0.49449136  0.98805357  1
  S  S33  1  0.08720328  0.58057696  0.01211069  1
  S  S34  1  0.67782973  0.52346526  0.91142820  1
  S  S35  1  0.33898457  0.40981825  0.10258857  1
  S  S36  1  0.60461213  0.97033941  0.67754072  1
  S  S37  1  0.42683774  0.95917696  0.38151239  1
  S  S38  1  0.24958151  0.46614526  0.29690231  1
  S  S39  1  0.75975611  0.40684181  0.67949230  1
  S  S40  1  0.65786902  0.93446666  0.44609508  1
  S  S41  1  0.33119941  0.04670739  0.55981885  1
