# generated using pymatgen
data_Pr2Mn3(SbS3)4
_symmetry_space_group_name_H-M   'P 1'
_cell_length_a   20.02960800
_cell_length_b   3.90410600
_cell_length_c   14.95364829
_cell_angle_alpha   90.00000000
_cell_angle_beta   126.33350609
_cell_angle_gamma   90.00000000
_symmetry_Int_Tables_number   1
_chemical_formula_structural   Pr2Mn3(SbS3)4
_chemical_formula_sum   'Pr4 Mn6 Sb8 S24'
_cell_volume   942.00006694
_cell_formula_units_Z   2
loop_
 _symmetry_equiv_pos_site_id
 _symmetry_equiv_pos_as_xyz
  1  'x, y, z'
loop_
 _atom_site_type_symbol
 _atom_site_label
 _atom_site_symmetry_multiplicity
 _atom_site_fract_x
 _atom_site_fract_y
 _atom_site_fract_z
 _atom_site_occupancy
  Pr  Pr0  1  0.26408502  0.52937329  0.86499975  1
  Pr  Pr1  1  0.72654927  0.54946067  0.12746150  1
  Pr  Pr2  1  0.77003153  0.96590795  0.89038018  1
  Pr  Pr3  1  0.24500921  0.98123814  0.15141694  1
  Mn  Mn4  1  0.27019065  0.57381196  0.57789640  1
  Mn  Mn5  1  0.69324057  0.46759319  0.37878431  1
  Mn  Mn6  1  0.99950183  0.98095003  0.00999215  1
  Mn  Mn7  1  0.79636009  0.99902489  0.60088343  1
  Mn  Mn8  1  0.19997530  0.95939502  0.40960761  1
  Mn  Mn9  1  0.49869729  0.51229850  0.00054191  1
  Sb  Sb10  1  0.88918552  0.00862894  0.44125561  1
  Sb  Sb11  1  0.10867294  0.03139582  0.55652731  1
  Sb  Sb12  1  0.03267221  0.52827809  0.80991580  1
  Sb  Sb13  1  0.96236673  0.50641203  0.18796020  1
  Sb  Sb14  1  0.40103681  0.50892991  0.46719233  1
  Sb  Sb15  1  0.61274352  0.45327734  0.57263541  1
  Sb  Sb16  1  0.53255022  0.99267557  0.82158647  1
  Sb  Sb17  1  0.46793575  0.02138010  0.18697393  1
  S  S18  1  0.92437985  0.98549869  0.78714336  1
  S  S19  1  0.05859535  0.98205521  0.18978943  1
  S  S20  1  0.40819148  0.97463707  0.98120699  1
  S  S21  1  0.57551837  0.04312520  0.01619151  1
  S  S22  1  0.16943650  0.04036573  0.90538773  1
  S  S23  1  0.83227298  0.99197602  0.11702595  1
  S  S24  1  0.09325771  0.51270665  0.65855001  1
  S  S25  1  0.88511232  0.49138694  0.33026810  1
  S  S26  1  0.72834637  0.94564643  0.30344571  1
  S  S27  1  0.26197298  0.96483636  0.67823117  1
  S  S28  1  0.14823875  0.40315550  0.42843160  1
  S  S29  1  0.82604115  0.42468196  0.53902018  1
  S  S30  1  0.44320193  0.48681586  0.82199405  1
  S  S31  1  0.56850567  0.48242677  0.20256051  1
  S  S32  1  0.92046990  0.49548774  0.98817961  1
  S  S33  1  0.08777707  0.57995683  0.01240371  1
  S  S34  1  0.67810112  0.52488032  0.91119229  1
  S  S35  1  0.33880984  0.41168384  0.10245223  1
  S  S36  1  0.60473943  0.96987930  0.67760462  1
  S  S37  1  0.42672723  0.96000455  0.38139820  1
  S  S38  1  0.24940220  0.46645450  0.29671289  1
  S  S39  1  0.76011650  0.40590314  0.67988266  1
  S  S40  1  0.65790294  0.93412396  0.44604023  1
  S  S41  1  0.33144674  0.04693905  0.56008456  1
