# generated using pymatgen
data_Pr2Mn3(SbS3)4
_symmetry_space_group_name_H-M   'P 1'
_cell_length_a   20.02960800
_cell_length_b   3.90410600
_cell_length_c   14.95364829
_cell_angle_alpha   90.00000000
_cell_angle_beta   126.33350609
_cell_angle_gamma   90.00000000
_symmetry_Int_Tables_number   1
_chemical_formula_structural   Pr2Mn3(SbS3)4
_chemical_formula_sum   'Pr4 Mn6 Sb8 S24'
_cell_volume   942.00006694
_cell_formula_units_Z   2
loop_
 _symmetry_equiv_pos_site_id
 _symmetry_equiv_pos_as_xyz
  1  'x, y, z'
loop_
 _atom_site_type_symbol
 _atom_site_label
 _atom_site_symmetry_multiplicity
 _atom_site_fract_x
 _atom_site_fract_y
 _atom_site_fract_z
 _atom_site_occupancy
  Pr  Pr0  1  0.26398596  0.52924559  0.86495353  1
  Pr  Pr1  1  0.72665065  0.54990770  0.12756586  1
  Pr  Pr2  1  0.76998141  0.96593008  0.89043070  1
  Pr  Pr3  1  0.24512495  0.98163992  0.15158885  1
  Mn  Mn4  1  0.27022000  0.57302653  0.57784457  1
  Mn  Mn5  1  0.69332095  0.46727144  0.37911049  1
  Mn  Mn6  1  0.99958127  0.98117616  0.01002295  1
  Mn  Mn7  1  0.79673004  0.99962477  0.60113304  1
  Mn  Mn8  1  0.20015398  0.95901612  0.40956339  1
  Mn  Mn9  1  0.49869822  0.51375581  0.00068694  1
  Sb  Sb10  1  0.88919872  0.00902695  0.44134940  1
  Sb  Sb11  1  0.10881787  0.03113603  0.55662469  1
  Sb  Sb12  1  0.03254324  0.52846409  0.80976516  1
  Sb  Sb13  1  0.96236462  0.50678304  0.18800767  1
  Sb  Sb14  1  0.40110945  0.50932808  0.46717587  1
  Sb  Sb15  1  0.61276946  0.45283192  0.57265444  1
  Sb  Sb16  1  0.53259756  0.99279280  0.82162084  1
  Sb  Sb17  1  0.46776479  0.02219248  0.18666699  1
  S  S18  1  0.92476393  0.98606167  0.78750146  1
  S  S19  1  0.05861154  0.98094155  0.18971432  1
  S  S20  1  0.40860130  0.97403900  0.98165893  1
  S  S21  1  0.57565842  0.04353647  0.01639435  1
  S  S22  1  0.16993264  0.04114987  0.90601465  1
  S  S23  1  0.83226236  0.99353663  0.11696048  1
  S  S24  1  0.09258214  0.51120237  0.65789620  1
  S  S25  1  0.88520522  0.49200791  0.33051258  1
  S  S26  1  0.72870037  0.94660240  0.30342944  1
  S  S27  1  0.26213533  0.96513135  0.67846061  1
  S  S28  1  0.14818576  0.40123869  0.42815566  1
  S  S29  1  0.82633623  0.42429479  0.53945500  1
  S  S30  1  0.44323884  0.48733557  0.82181141  1
  S  S31  1  0.56839747  0.48185733  0.20257871  1
  S  S32  1  0.92033578  0.49647285  0.98840957  1
  S  S33  1  0.08839943  0.57929780  0.01272720  1
  S  S34  1  0.67831542  0.52566570  0.91087171  1
  S  S35  1  0.33864464  0.41294461  0.10238807  1
  S  S36  1  0.60486139  0.96918771  0.67756576  1
  S  S37  1  0.42687594  0.96059782  0.38152396  1
  S  S38  1  0.24928174  0.46681486  0.29661174  1
  S  S39  1  0.76046399  0.40507897  0.68021085  1
  S  S40  1  0.65783041  0.93433514  0.44586815  1
  S  S41  1  0.33170640  0.04665589  0.56036044  1
