# generated using pymatgen
data_Pr2Mn3(SbS3)4
_symmetry_space_group_name_H-M   'P 1'
_cell_length_a   20.02960800
_cell_length_b   3.90410600
_cell_length_c   14.95364829
_cell_angle_alpha   90.00000000
_cell_angle_beta   126.33350609
_cell_angle_gamma   90.00000000
_symmetry_Int_Tables_number   1
_chemical_formula_structural   Pr2Mn3(SbS3)4
_chemical_formula_sum   'Pr4 Mn6 Sb8 S24'
_cell_volume   942.00006694
_cell_formula_units_Z   2
loop_
 _symmetry_equiv_pos_site_id
 _symmetry_equiv_pos_as_xyz
  1  'x, y, z'
loop_
 _atom_site_type_symbol
 _atom_site_label
 _atom_site_symmetry_multiplicity
 _atom_site_fract_x
 _atom_site_fract_y
 _atom_site_fract_z
 _atom_site_occupancy
  Pr  Pr0  1  0.26397127  0.52894876  0.86503611  1
  Pr  Pr1  1  0.72670955  0.55047204  0.12770130  1
  Pr  Pr2  1  0.76987345  0.96635487  0.89036294  1
  Pr  Pr3  1  0.24529281  0.98240984  0.15178943  1
  Mn  Mn4  1  0.27018205  0.57251258  0.57764128  1
  Mn  Mn5  1  0.69329797  0.46675072  0.37929737  1
  Mn  Mn6  1  0.99963693  0.98141544  0.01005521  1
  Mn  Mn7  1  0.79694159  0.00010340  0.60131415  1
  Mn  Mn8  1  0.20022781  0.95837131  0.40952284  1
  Mn  Mn9  1  0.49880018  0.51523190  0.00086419  1
  Sb  Sb10  1  0.88913277  0.00939718  0.44144778  1
  Sb  Sb11  1  0.10895434  0.03108072  0.55661390  1
  Sb  Sb12  1  0.03248681  0.52836932  0.80964632  1
  Sb  Sb13  1  0.96234151  0.50698735  0.18802447  1
  Sb  Sb14  1  0.40122729  0.50968153  0.46731454  1
  Sb  Sb15  1  0.61275214  0.45214960  0.57266876  1
  Sb  Sb16  1  0.53272379  0.99288113  0.82178717  1
  Sb  Sb17  1  0.46749818  0.02310263  0.18627051  1
  S  S18  1  0.92509325  0.98670969  0.78783744  1
  S  S19  1  0.05870641  0.97993680  0.18965987  1
  S  S20  1  0.40915740  0.97398906  0.98243462  1
  S  S21  1  0.57600440  0.04412813  0.01672414  1
  S  S22  1  0.17024667  0.04148520  0.90639139  1
  S  S23  1  0.83220267  0.99498038  0.11694040  1
  S  S24  1  0.09200144  0.50979694  0.65735195  1
  S  S25  1  0.88533622  0.49200889  0.33064276  1
  S  S26  1  0.72898611  0.94721312  0.30335717  1
  S  S27  1  0.26212102  0.96541298  0.67849693  1
  S  S28  1  0.14811713  0.39944139  0.42777809  1
  S  S29  1  0.82659262  0.42356821  0.53976673  1
  S  S30  1  0.44334272  0.48756511  0.82154549  1
  S  S31  1  0.56841182  0.48157988  0.20253997  1
  S  S32  1  0.92033879  0.49729774  0.98874902  1
  S  S33  1  0.08888706  0.57808255  0.01310275  1
  S  S34  1  0.67871214  0.52683142  0.91065797  1
  S  S35  1  0.33846330  0.41383916  0.10217176  1
  S  S36  1  0.60507945  0.96848309  0.67756169  1
  S  S37  1  0.42702922  0.96156427  0.38173393  1
  S  S38  1  0.24902192  0.46715184  0.29641184  1
  S  S39  1  0.76064153  0.40420398  0.68037901  1
  S  S40  1  0.65784120  0.93475326  0.44575691  1
  S  S41  1  0.33215157  0.04601601  0.56094013  1
