# generated using pymatgen
data_Pr2Mn3(SbS3)4
_symmetry_space_group_name_H-M   'P 1'
_cell_length_a   20.02960800
_cell_length_b   3.90410600
_cell_length_c   14.95364829
_cell_angle_alpha   90.00000000
_cell_angle_beta   126.33350609
_cell_angle_gamma   90.00000000
_symmetry_Int_Tables_number   1
_chemical_formula_structural   Pr2Mn3(SbS3)4
_chemical_formula_sum   'Pr4 Mn6 Sb8 S24'
_cell_volume   942.00006694
_cell_formula_units_Z   2
loop_
 _symmetry_equiv_pos_site_id
 _symmetry_equiv_pos_as_xyz
  1  'x, y, z'
loop_
 _atom_site_type_symbol
 _atom_site_label
 _atom_site_symmetry_multiplicity
 _atom_site_fract_x
 _atom_site_fract_y
 _atom_site_fract_z
 _atom_site_occupancy
  Pr  Pr0  1  0.26394835  0.52903050  0.86506831  1
  Pr  Pr1  1  0.72677842  0.55104911  0.12777010  1
  Pr  Pr2  1  0.76977169  0.96688689  0.89026750  1
  Pr  Pr3  1  0.24545124  0.98319559  0.15189803  1
  Mn  Mn4  1  0.27016318  0.57253208  0.57748051  1
  Mn  Mn5  1  0.69328497  0.46665329  0.37945002  1
  Mn  Mn6  1  0.99968302  0.98136686  0.01008461  1
  Mn  Mn7  1  0.79721431  0.00059516  0.60151939  1
  Mn  Mn8  1  0.20031661  0.95756369  0.40945480  1
  Mn  Mn9  1  0.49875379  0.51632972  0.00088738  1
  Sb  Sb10  1  0.88900836  0.00953907  0.44151437  1
  Sb  Sb11  1  0.10907326  0.03110606  0.55656026  1
  Sb  Sb12  1  0.03242183  0.52834430  0.80959136  1
  Sb  Sb13  1  0.96234310  0.50706344  0.18802258  1
  Sb  Sb14  1  0.40140210  0.50987581  0.46751350  1
  Sb  Sb15  1  0.61270112  0.45142148  0.57269602  1
  Sb  Sb16  1  0.53276642  0.99303254  0.82196191  1
  Sb  Sb17  1  0.46730370  0.02400995  0.18595234  1
  S  S18  1  0.92533460  0.98638493  0.78810512  1
  S  S19  1  0.05871346  0.97983498  0.18964036  1
  S  S20  1  0.40977198  0.97438604  0.98322108  1
  S  S21  1  0.57610521  0.04376953  0.01682754  1
  S  S22  1  0.17048343  0.04135162  0.90669128  1
  S  S23  1  0.83206652  0.99649948  0.11691142  1
  S  S24  1  0.09143027  0.50811288  0.65680231  1
  S  S25  1  0.88536274  0.49215744  0.33066513  1
  S  S26  1  0.72907998  0.94767166  0.30318872  1
  S  S27  1  0.26211040  0.96573601  0.67850464  1
  S  S28  1  0.14803781  0.39849430  0.42747242  1
  S  S29  1  0.82683017  0.42291216  0.54000315  1
  S  S30  1  0.44330093  0.48743882  0.82106707  1
  S  S31  1  0.56841584  0.48172520  0.20258662  1
  S  S32  1  0.92029854  0.49821237  0.98899913  1
  S  S33  1  0.08929326  0.57731980  0.01335343  1
  S  S34  1  0.67913024  0.52777244  0.91040747  1
  S  S35  1  0.33828481  0.41431831  0.10195738  1
  S  S36  1  0.60524169  0.96756585  0.67757648  1
  S  S37  1  0.42713068  0.96208484  0.38177199  1
  S  S38  1  0.24866507  0.46743020  0.29607689  1
  S  S39  1  0.76080559  0.40388532  0.68072660  1
  S  S40  1  0.65780904  0.93523544  0.44573437  1
  S  S41  1  0.33269885  0.04618986  0.56144637  1
