# generated using pymatgen
data_Pr2Mn3(SbS3)4
_symmetry_space_group_name_H-M   'P 1'
_cell_length_a   20.02960800
_cell_length_b   3.90410600
_cell_length_c   14.95364829
_cell_angle_alpha   90.00000000
_cell_angle_beta   126.33350609
_cell_angle_gamma   90.00000000
_symmetry_Int_Tables_number   1
_chemical_formula_structural   Pr2Mn3(SbS3)4
_chemical_formula_sum   'Pr4 Mn6 Sb8 S24'
_cell_volume   942.00006694
_cell_formula_units_Z   2
loop_
 _symmetry_equiv_pos_site_id
 _symmetry_equiv_pos_as_xyz
  1  'x, y, z'
loop_
 _atom_site_type_symbol
 _atom_site_label
 _atom_site_symmetry_multiplicity
 _atom_site_fract_x
 _atom_site_fract_y
 _atom_site_fract_z
 _atom_site_occupancy
  Pr  Pr0  1  0.26393282  0.52878451  0.86512583  1
  Pr  Pr1  1  0.72683551  0.55165767  0.12784186  1
  Pr  Pr2  1  0.76973501  0.96723548  0.89022776  1
  Pr  Pr3  1  0.24549936  0.98392415  0.15193943  1
  Mn  Mn4  1  0.27025876  0.57256613  0.57736690  1
  Mn  Mn5  1  0.69332767  0.46651827  0.37953223  1
  Mn  Mn6  1  0.99969268  0.98180701  0.01002969  1
  Mn  Mn7  1  0.79742486  0.00102933  0.60166671  1
  Mn  Mn8  1  0.20041067  0.95691248  0.40949028  1
  Mn  Mn9  1  0.49870108  0.51738372  0.00084918  1
  Sb  Sb10  1  0.88883370  0.00947317  0.44152795  1
  Sb  Sb11  1  0.10919410  0.03129676  0.55651739  1
  Sb  Sb12  1  0.03233829  0.52848233  0.80947236  1
  Sb  Sb13  1  0.96235348  0.50738158  0.18809747  1
  Sb  Sb14  1  0.40154411  0.50988488  0.46758790  1
  Sb  Sb15  1  0.61262139  0.45105721  0.57256347  1
  Sb  Sb16  1  0.53283461  0.99302688  0.82215808  1
  Sb  Sb17  1  0.46720092  0.02460499  0.18569382  1
  S  S18  1  0.92562302  0.98637942  0.78819637  1
  S  S19  1  0.05871948  0.97982099  0.18958440  1
  S  S20  1  0.41041406  0.97482154  0.98392430  1
  S  S21  1  0.57623502  0.04314636  0.01685492  1
  S  S22  1  0.17093498  0.04088291  0.90696852  1
  S  S23  1  0.83185443  0.99812870  0.11690902  1
  S  S24  1  0.09087685  0.50657443  0.65626524  1
  S  S25  1  0.88546676  0.49218034  0.33086021  1
  S  S26  1  0.72922272  0.94860644  0.30298214  1
  S  S27  1  0.26189425  0.96530444  0.67822124  1
  S  S28  1  0.14801224  0.39819557  0.42715075  1
  S  S29  1  0.82707360  0.42309702  0.54036645  1
  S  S30  1  0.44315986  0.48704346  0.82057655  1
  S  S31  1  0.56845347  0.48140637  0.20271654  1
  S  S32  1  0.92018583  0.49981240  0.98907645  1
  S  S33  1  0.08978203  0.57682204  0.01360795  1
  S  S34  1  0.67974674  0.52882333  0.91030270  1
  S  S35  1  0.33818671  0.41461975  0.10205172  1
  S  S36  1  0.60531775  0.96674317  0.67744552  1
  S  S37  1  0.42734488  0.96244634  0.38181519  1
  S  S38  1  0.24840533  0.46738624  0.29590093  1
  S  S39  1  0.76087344  0.40429094  0.68107622  1
  S  S40  1  0.65768362  0.93623583  0.44567270  1
  S  S41  1  0.33302417  0.04618456  0.56172059  1
