# generated using pymatgen
data_Pr2Mn3(SbS3)4
_symmetry_space_group_name_H-M   'P 1'
_cell_length_a   20.02960800
_cell_length_b   3.90410600
_cell_length_c   14.95364829
_cell_angle_alpha   90.00000000
_cell_angle_beta   126.33350609
_cell_angle_gamma   90.00000000
_symmetry_Int_Tables_number   1
_chemical_formula_structural   Pr2Mn3(SbS3)4
_chemical_formula_sum   'Pr4 Mn6 Sb8 S24'
_cell_volume   942.00006694
_cell_formula_units_Z   2
loop_
 _symmetry_equiv_pos_site_id
 _symmetry_equiv_pos_as_xyz
  1  'x, y, z'
loop_
 _atom_site_type_symbol
 _atom_site_label
 _atom_site_symmetry_multiplicity
 _atom_site_fract_x
 _atom_site_fract_y
 _atom_site_fract_z
 _atom_site_occupancy
  Pr  Pr0  1  0.26941408  0.49790495  0.86639777  1
  Pr  Pr1  1  0.73373190  0.50876461  0.13366598  1
  Pr  Pr2  1  0.76317898  0.02248189  0.86115208  1
  Pr  Pr3  1  0.23399618  0.99676193  0.13200994  1
  Mn  Mn4  1  0.29258613  0.47445576  0.59546493  1
  Mn  Mn5  1  0.68578198  0.46508178  0.36509831  1
  Mn  Mn6  1  0.00680914  0.99293427  0.01367948  1
  Mn  Mn7  1  0.79965010  0.00755188  0.61916379  1
  Mn  Mn8  1  0.19808749  0.97479582  0.37150099  1
  Mn  Mn9  1  0.48850077  0.46612814  0.98777839  1
  Sb  Sb10  1  0.89008958  0.98468672  0.45190844  1
  Sb  Sb11  1  0.10958464  0.97765902  0.54408596  1
  Sb  Sb12  1  0.03510861  0.52078028  0.81859880  1
  Sb  Sb13  1  0.96488387  0.50023107  0.18915097  1
  Sb  Sb14  1  0.39321986  0.49780942  0.44911974  1
  Sb  Sb15  1  0.60579377  0.47066622  0.54835442  1
  Sb  Sb16  1  0.53360162  0.98641536  0.80849457  1
  Sb  Sb17  1  0.46518739  0.02241112  0.19121908  1
  S  S18  1  0.93775149  0.01802307  0.80804569  1
  S  S19  1  0.06380894  0.98234197  0.19818629  1
  S  S20  1  0.42134132  0.95920976  0.99265865  1
  S  S21  1  0.58305781  0.03239778  0.01262233  1
  S  S22  1  0.17220587  0.05565958  0.90099225  1
  S  S23  1  0.82873171  0.05385119  0.10351028  1
  S  S24  1  0.09132894  0.50263684  0.64765295  1
  S  S25  1  0.91523343  0.48421324  0.35873751  1
  S  S26  1  0.73566481  0.97401825  0.29813224  1
  S  S27  1  0.26089894  0.00156710  0.71004107  1
  S  S28  1  0.16411120  0.51727697  0.43052456  1
  S  S29  1  0.81864746  0.48104482  0.54670209  1
  S  S30  1  0.43127708  0.47725729  0.79572179  1
  S  S31  1  0.55386588  0.51926366  0.18076213  1
  S  S32  1  0.91606124  0.49005168  0.98932003  1
  S  S33  1  0.08912632  0.49733681  0.03216295  1
  S  S34  1  0.66415829  0.54774003  0.89199510  1
  S  S35  1  0.32669783  0.50236511  0.09309040  1
  S  S36  1  0.59698699  0.00380334  0.65623941  1
  S  S37  1  0.40057472  0.98012841  0.34385944  1
  S  S38  1  0.24276146  0.46973013  0.31582918  1
  S  S39  1  0.75992885  0.52307090  0.68803206  1
  S  S40  1  0.66501359  0.00406977  0.44961380  1
  S  S41  1  0.33088519  0.98552784  0.55503210  1
