# generated using pymatgen
data_Pr2Mn3(SbS3)4
_symmetry_space_group_name_H-M   'P 1'
_cell_length_a   20.02960800
_cell_length_b   3.90410600
_cell_length_c   14.95364829
_cell_angle_alpha   90.00000000
_cell_angle_beta   126.33350609
_cell_angle_gamma   90.00000000
_symmetry_Int_Tables_number   1
_chemical_formula_structural   Pr2Mn3(SbS3)4
_chemical_formula_sum   'Pr4 Mn6 Sb8 S24'
_cell_volume   942.00006694
_cell_formula_units_Z   2
loop_
 _symmetry_equiv_pos_site_id
 _symmetry_equiv_pos_as_xyz
  1  'x, y, z'
loop_
 _atom_site_type_symbol
 _atom_site_label
 _atom_site_symmetry_multiplicity
 _atom_site_fract_x
 _atom_site_fract_y
 _atom_site_fract_z
 _atom_site_occupancy
  Pr  Pr0  1  0.26391584  0.52860508  0.86523349  1
  Pr  Pr1  1  0.72686157  0.55226775  0.12791180  1
  Pr  Pr2  1  0.76976725  0.96759533  0.89022864  1
  Pr  Pr3  1  0.24555965  0.98468279  0.15190222  1
  Mn  Mn4  1  0.27043523  0.57204277  0.57739424  1
  Mn  Mn5  1  0.69333758  0.46590084  0.37952792  1
  Mn  Mn6  1  0.99973167  0.98258260  0.00991484  1
  Mn  Mn7  1  0.79757448  0.00047011  0.60173500  1
  Mn  Mn8  1  0.20049491  0.95659347  0.40949598  1
  Mn  Mn9  1  0.49862749  0.51791110  0.00083677  1
  Sb  Sb10  1  0.88880011  0.00980513  0.44167083  1
  Sb  Sb11  1  0.10923417  0.03161546  0.55648610  1
  Sb  Sb12  1  0.03232394  0.52836003  0.80933829  1
  Sb  Sb13  1  0.96241015  0.50762369  0.18829915  1
  Sb  Sb14  1  0.40164605  0.50994345  0.46760238  1
  Sb  Sb15  1  0.61257692  0.45066844  0.57243817  1
  Sb  Sb16  1  0.53298479  0.99289141  0.82239774  1
  Sb  Sb17  1  0.46707860  0.02520041  0.18549105  1
  S  S18  1  0.92605996  0.98579371  0.78820832  1
  S  S19  1  0.05884767  0.98007661  0.18951973  1
  S  S20  1  0.41084180  0.97582044  0.98426428  1
  S  S21  1  0.57644799  0.04272772  0.01713778  1
  S  S22  1  0.17120885  0.04065167  0.90716524  1
  S  S23  1  0.83173859  0.00000932  0.11680444  1
  S  S24  1  0.09044028  0.50535214  0.65580898  1
  S  S25  1  0.88560688  0.49228823  0.33106119  1
  S  S26  1  0.72946705  0.94865532  0.30303032  1
  S  S27  1  0.26176803  0.96469215  0.67794693  1
  S  S28  1  0.14799830  0.39711243  0.42679159  1
  S  S29  1  0.82742431  0.42312806  0.54059432  1
  S  S30  1  0.44306367  0.48740605  0.82009357  1
  S  S31  1  0.56836105  0.48116704  0.20275217  1
  S  S32  1  0.92009505  0.50111286  0.98917219  1
  S  S33  1  0.09010522  0.57668678  0.01372550  1
  S  S34  1  0.68038487  0.52932632  0.91018604  1
  S  S35  1  0.33812490  0.41520857  0.10210404  1
  S  S36  1  0.60536775  0.96551739  0.67731784  1
  S  S37  1  0.42742868  0.96238857  0.38190284  1
  S  S38  1  0.24812700  0.46719539  0.29562814  1
  S  S39  1  0.76114038  0.40451003  0.68149737  1
  S  S40  1  0.65745122  0.93673734  0.44540998  1
  S  S41  1  0.33325860  0.04559775  0.56194752  1
