# generated using pymatgen
data_Pr2Mn3(SbS3)4
_symmetry_space_group_name_H-M   'P 1'
_cell_length_a   20.02960800
_cell_length_b   3.90410600
_cell_length_c   14.95364829
_cell_angle_alpha   90.00000000
_cell_angle_beta   126.33350609
_cell_angle_gamma   90.00000000
_symmetry_Int_Tables_number   1
_chemical_formula_structural   Pr2Mn3(SbS3)4
_chemical_formula_sum   'Pr4 Mn6 Sb8 S24'
_cell_volume   942.00006694
_cell_formula_units_Z   2
loop_
 _symmetry_equiv_pos_site_id
 _symmetry_equiv_pos_as_xyz
  1  'x, y, z'
loop_
 _atom_site_type_symbol
 _atom_site_label
 _atom_site_symmetry_multiplicity
 _atom_site_fract_x
 _atom_site_fract_y
 _atom_site_fract_z
 _atom_site_occupancy
  Pr  Pr0  1  0.26386140  0.52826651  0.86536659  1
  Pr  Pr1  1  0.72686803  0.55273071  0.12793603  1
  Pr  Pr2  1  0.76972012  0.96830190  0.89019285  1
  Pr  Pr3  1  0.24559038  0.98507365  0.15179804  1
  Mn  Mn4  1  0.27054630  0.57169966  0.57753109  1
  Mn  Mn5  1  0.69327998  0.46529065  0.37947235  1
  Mn  Mn6  1  0.99981269  0.98309686  0.00971124  1
  Mn  Mn7  1  0.79768843  0.00013602  0.60171647  1
  Mn  Mn8  1  0.20052507  0.95590927  0.40955182  1
  Mn  Mn9  1  0.49848286  0.51811563  0.00077853  1
  Sb  Sb10  1  0.88879356  0.00996992  0.44176923  1
  Sb  Sb11  1  0.10934401  0.03205320  0.55639658  1
  Sb  Sb12  1  0.03227919  0.52802214  0.80913661  1
  Sb  Sb13  1  0.96245815  0.50783801  0.18841528  1
  Sb  Sb14  1  0.40169944  0.51025936  0.46762866  1
  Sb  Sb15  1  0.61246391  0.45022894  0.57215819  1
  Sb  Sb16  1  0.53304535  0.99303716  0.82249213  1
  Sb  Sb17  1  0.46705176  0.02581725  0.18531214  1
  S  S18  1  0.92642319  0.98520221  0.78813634  1
  S  S19  1  0.05904477  0.98065022  0.18956971  1
  S  S20  1  0.41131417  0.97700327  0.98475074  1
  S  S21  1  0.57664643  0.04224587  0.01738403  1
  S  S22  1  0.17147009  0.04052989  0.90704715  1
  S  S23  1  0.83167153  0.00217103  0.11653113  1
  S  S24  1  0.09002390  0.50442673  0.65531000  1
  S  S25  1  0.88576884  0.49304574  0.33122201  1
  S  S26  1  0.72944717  0.94912885  0.30280930  1
  S  S27  1  0.26173991  0.96446341  0.67775227  1
  S  S28  1  0.14797660  0.39590125  0.42656498  1
  S  S29  1  0.82754239  0.42402988  0.54057278  1
  S  S30  1  0.44302495  0.48798738  0.81970026  1
  S  S31  1  0.56831540  0.48067882  0.20297123  1
  S  S32  1  0.91996148  0.50269942  0.98925987  1
  S  S33  1  0.09048479  0.57615853  0.01387879  1
  S  S34  1  0.68113310  0.52968946  0.91022069  1
  S  S35  1  0.33792392  0.41578463  0.10199941  1
  S  S36  1  0.60527471  0.96440956  0.67715925  1
  S  S37  1  0.42728203  0.96248428  0.38189877  1
  S  S38  1  0.24781961  0.46718613  0.29533187  1
  S  S39  1  0.76140981  0.40479280  0.68187699  1
  S  S40  1  0.65723948  0.93728005  0.44509582  1
  S  S41  1  0.33346601  0.04549153  0.56206966  1
