# generated using pymatgen
data_Pr2Mn3(SbS3)4
_symmetry_space_group_name_H-M   'P 1'
_cell_length_a   20.02960800
_cell_length_b   3.90410600
_cell_length_c   14.95364829
_cell_angle_alpha   90.00000000
_cell_angle_beta   126.33350609
_cell_angle_gamma   90.00000000
_symmetry_Int_Tables_number   1
_chemical_formula_structural   Pr2Mn3(SbS3)4
_chemical_formula_sum   'Pr4 Mn6 Sb8 S24'
_cell_volume   942.00006694
_cell_formula_units_Z   2
loop_
 _symmetry_equiv_pos_site_id
 _symmetry_equiv_pos_as_xyz
  1  'x, y, z'
loop_
 _atom_site_type_symbol
 _atom_site_label
 _atom_site_symmetry_multiplicity
 _atom_site_fract_x
 _atom_site_fract_y
 _atom_site_fract_z
 _atom_site_occupancy
  Pr  Pr0  1  0.26380361  0.52794487  0.86546970  1
  Pr  Pr1  1  0.72688534  0.55313755  0.12794534  1
  Pr  Pr2  1  0.76973229  0.96921794  0.89026861  1
  Pr  Pr3  1  0.24563217  0.98496141  0.15166347  1
  Mn  Mn4  1  0.27058942  0.57086847  0.57773575  1
  Mn  Mn5  1  0.69331221  0.46476826  0.37948279  1
  Mn  Mn6  1  0.99999313  0.98307556  0.00962337  1
  Mn  Mn7  1  0.79768427  0.99962091  0.60154926  1
  Mn  Mn8  1  0.20050506  0.95526753  0.40963177  1
  Mn  Mn9  1  0.49844101  0.51845655  0.00081317  1
  Sb  Sb10  1  0.88883391  0.01026152  0.44193332  1
  Sb  Sb11  1  0.10959416  0.03215281  0.55645522  1
  Sb  Sb12  1  0.03224198  0.52772914  0.80907682  1
  Sb  Sb13  1  0.96263838  0.50823866  0.18863208  1
  Sb  Sb14  1  0.40173902  0.51113864  0.46763382  1
  Sb  Sb15  1  0.61236940  0.45003796  0.57190601  1
  Sb  Sb16  1  0.53313166  0.99342259  0.82262363  1
  Sb  Sb17  1  0.46703306  0.02613414  0.18516573  1
  S  S18  1  0.92673886  0.98469698  0.78819241  1
  S  S19  1  0.05917993  0.98099825  0.18958534  1
  S  S20  1  0.41166452  0.97761438  0.98520969  1
  S  S21  1  0.57675217  0.04179100  0.01728756  1
  S  S22  1  0.17179894  0.04063352  0.90696521  1
  S  S23  1  0.83159780  0.00455773  0.11615100  1
  S  S24  1  0.08972181  0.50363357  0.65497730  1
  S  S25  1  0.88584744  0.49399532  0.33125473  1
  S  S26  1  0.72946887  0.95015969  0.30277872  1
  S  S27  1  0.26160073  0.96414945  0.67746783  1
  S  S28  1  0.14823123  0.39464609  0.42667570  1
  S  S29  1  0.82767317  0.42514380  0.54054332  1
  S  S30  1  0.44310266  0.48817508  0.81952886  1
  S  S31  1  0.56822895  0.48006473  0.20315662  1
  S  S32  1  0.91978950  0.50340980  0.98917507  1
  S  S33  1  0.09095132  0.57605352  0.01410490  1
  S  S34  1  0.68179077  0.52977908  0.91034367  1
  S  S35  1  0.33784821  0.41716152  0.10204370  1
  S  S36  1  0.60525817  0.96342446  0.67707393  1
  S  S37  1  0.42708683  0.96277196  0.38159596  1
  S  S38  1  0.24761656  0.46668814  0.29524572  1
  S  S39  1  0.76192016  0.40524854  0.68242879  1
  S  S40  1  0.65714348  0.93742168  0.44474540  1
  S  S41  1  0.33364629  0.04568268  0.56216863  1
