# generated using pymatgen
data_Pr2Mn3(SbS3)4
_symmetry_space_group_name_H-M   'P 1'
_cell_length_a   20.02960800
_cell_length_b   3.90410600
_cell_length_c   14.95364829
_cell_angle_alpha   90.00000000
_cell_angle_beta   126.33350609
_cell_angle_gamma   90.00000000
_symmetry_Int_Tables_number   1
_chemical_formula_structural   Pr2Mn3(SbS3)4
_chemical_formula_sum   'Pr4 Mn6 Sb8 S24'
_cell_volume   942.00006694
_cell_formula_units_Z   2
loop_
 _symmetry_equiv_pos_site_id
 _symmetry_equiv_pos_as_xyz
  1  'x, y, z'
loop_
 _atom_site_type_symbol
 _atom_site_label
 _atom_site_symmetry_multiplicity
 _atom_site_fract_x
 _atom_site_fract_y
 _atom_site_fract_z
 _atom_site_occupancy
  Pr  Pr0  1  0.26380855  0.52752565  0.86566364  1
  Pr  Pr1  1  0.72689140  0.55353993  0.12801907  1
  Pr  Pr2  1  0.76975896  0.97026376  0.89037877  1
  Pr  Pr3  1  0.24560089  0.98472011  0.15143791  1
  Mn  Mn4  1  0.27066032  0.57036371  0.57798114  1
  Mn  Mn5  1  0.69333198  0.46450631  0.37949885  1
  Mn  Mn6  1  0.00011735  0.98321586  0.00954764  1
  Mn  Mn7  1  0.79768627  0.99904408  0.60151996  1
  Mn  Mn8  1  0.20052836  0.95436291  0.40982374  1
  Mn  Mn9  1  0.49848725  0.51887283  0.00087054  1
  Sb  Sb10  1  0.88891203  0.01041880  0.44210946  1
  Sb  Sb11  1  0.10986863  0.03205511  0.55660544  1
  Sb  Sb12  1  0.03227903  0.52760498  0.80912029  1
  Sb  Sb13  1  0.96282325  0.50857606  0.18887796  1
  Sb  Sb14  1  0.40180210  0.51154024  0.46773615  1
  Sb  Sb15  1  0.61227675  0.44986826  0.57158984  1
  Sb  Sb16  1  0.53314736  0.99356699  0.82265125  1
  Sb  Sb17  1  0.46700797  0.02630166  0.18502875  1
  S  S18  1  0.92713573  0.98401252  0.78818002  1
  S  S19  1  0.05921046  0.98112685  0.18940028  1
  S  S20  1  0.41220928  0.97857443  0.98577688  1
  S  S21  1  0.57682786  0.04174139  0.01713793  1
  S  S22  1  0.17219702  0.04066630  0.90686757  1
  S  S23  1  0.83164964  0.00650735  0.11603791  1
  S  S24  1  0.08939999  0.50295415  0.65469495  1
  S  S25  1  0.88600709  0.49430104  0.33125716  1
  S  S26  1  0.72947160  0.95082180  0.30274437  1
  S  S27  1  0.26166351  0.96366573  0.67740705  1
  S  S28  1  0.14841927  0.39394253  0.42678005  1
  S  S29  1  0.82772800  0.42677010  0.54061149  1
  S  S30  1  0.44324452  0.48810201  0.81950739  1
  S  S31  1  0.56797351  0.47961585  0.20309277  1
  S  S32  1  0.91952482  0.50323202  0.98895215  1
  S  S33  1  0.09142699  0.57590051  0.01442958  1
  S  S34  1  0.68229957  0.52991678  0.91041670  1
  S  S35  1  0.33778622  0.41829026  0.10217098  1
  S  S36  1  0.60527089  0.96277959  0.67688232  1
  S  S37  1  0.42688350  0.96325009  0.38131330  1
  S  S38  1  0.24740583  0.46534820  0.29529897  1
  S  S39  1  0.76226525  0.40529583  0.68278435  1
  S  S40  1  0.65690703  0.93703575  0.44422290  1
  S  S41  1  0.33385020  0.04579028  0.56220201  1
