# generated using pymatgen
data_Pr2Mn3(SbS3)4
_symmetry_space_group_name_H-M   'P 1'
_cell_length_a   20.02960800
_cell_length_b   3.90410600
_cell_length_c   14.95364829
_cell_angle_alpha   90.00000000
_cell_angle_beta   126.33350609
_cell_angle_gamma   90.00000000
_symmetry_Int_Tables_number   1
_chemical_formula_structural   Pr2Mn3(SbS3)4
_chemical_formula_sum   'Pr4 Mn6 Sb8 S24'
_cell_volume   942.00006694
_cell_formula_units_Z   2
loop_
 _symmetry_equiv_pos_site_id
 _symmetry_equiv_pos_as_xyz
  1  'x, y, z'
loop_
 _atom_site_type_symbol
 _atom_site_label
 _atom_site_symmetry_multiplicity
 _atom_site_fract_x
 _atom_site_fract_y
 _atom_site_fract_z
 _atom_site_occupancy
  Pr  Pr0  1  0.26371166  0.52678555  0.86580760  1
  Pr  Pr1  1  0.72685042  0.55389523  0.12807338  1
  Pr  Pr2  1  0.76989060  0.97129650  0.89063155  1
  Pr  Pr3  1  0.24556417  0.98436775  0.15130492  1
  Mn  Mn4  1  0.27070994  0.57011987  0.57837923  1
  Mn  Mn5  1  0.69350590  0.46449984  0.37978303  1
  Mn  Mn6  1  0.00025150  0.98343997  0.00950553  1
  Mn  Mn7  1  0.79768084  0.99833729  0.60152113  1
  Mn  Mn8  1  0.20055081  0.95376899  0.41009521  1
  Mn  Mn9  1  0.49861664  0.51888865  0.00102062  1
  Sb  Sb10  1  0.88899455  0.01050743  0.44234461  1
  Sb  Sb11  1  0.11011693  0.03182728  0.55672796  1
  Sb  Sb12  1  0.03231696  0.52756442  0.80922067  1
  Sb  Sb13  1  0.96297613  0.50871330  0.18906598  1
  Sb  Sb14  1  0.40178885  0.51152958  0.46785254  1
  Sb  Sb15  1  0.61219151  0.44982696  0.57125008  1
  Sb  Sb16  1  0.53319677  0.99366695  0.82270431  1
  Sb  Sb17  1  0.46688876  0.02649166  0.18487153  1
  S  S18  1  0.92762198  0.98324082  0.78824085  1
  S  S19  1  0.05924075  0.98092204  0.18920267  1
  S  S20  1  0.41278878  0.97895902  0.98648439  1
  S  S21  1  0.57685490  0.04139670  0.01690782  1
  S  S22  1  0.17253921  0.04087709  0.90667236  1
  S  S23  1  0.83176470  0.00873233  0.11597193  1
  S  S24  1  0.08905931  0.50236086  0.65421225  1
  S  S25  1  0.88604234  0.49465089  0.33099483  1
  S  S26  1  0.72944976  0.95140129  0.30259997  1
  S  S27  1  0.26156313  0.96269376  0.67723695  1
  S  S28  1  0.14858268  0.39349532  0.42683801  1
  S  S29  1  0.82774689  0.42801528  0.54070123  1
  S  S30  1  0.44328159  0.48846341  0.81940988  1
  S  S31  1  0.56774530  0.47922812  0.20288979  1
  S  S32  1  0.91932927  0.50343763  0.98889583  1
  S  S33  1  0.09182501  0.57617212  0.01471742  1
  S  S34  1  0.68270280  0.52999363  0.91057424  1
  S  S35  1  0.33755948  0.41918200  0.10214490  1
  S  S36  1  0.60513736  0.96219519  0.67647402  1
  S  S37  1  0.42680322  0.96328490  0.38107086  1
  S  S38  1  0.24733936  0.46449034  0.29547465  1
  S  S39  1  0.76268833  0.40586192  0.68325914  1
  S  S40  1  0.65673090  0.93619327  0.44385648  1
  S  S41  1  0.33430699  0.04558023  0.56233847  1
