# generated using pymatgen
data_Pr2Mn3(SbS3)4
_symmetry_space_group_name_H-M   'P 1'
_cell_length_a   20.02960800
_cell_length_b   3.90410600
_cell_length_c   14.95364829
_cell_angle_alpha   90.00000000
_cell_angle_beta   126.33350609
_cell_angle_gamma   90.00000000
_symmetry_Int_Tables_number   1
_chemical_formula_structural   Pr2Mn3(SbS3)4
_chemical_formula_sum   'Pr4 Mn6 Sb8 S24'
_cell_volume   942.00006694
_cell_formula_units_Z   2
loop_
 _symmetry_equiv_pos_site_id
 _symmetry_equiv_pos_as_xyz
  1  'x, y, z'
loop_
 _atom_site_type_symbol
 _atom_site_label
 _atom_site_symmetry_multiplicity
 _atom_site_fract_x
 _atom_site_fract_y
 _atom_site_fract_z
 _atom_site_occupancy
  Pr  Pr0  1  0.26367639  0.52586414  0.86594202  1
  Pr  Pr1  1  0.72680230  0.55416748  0.12811170  1
  Pr  Pr2  1  0.77008583  0.97232995  0.89093061  1
  Pr  Pr3  1  0.24550415  0.98427792  0.15117497  1
  Mn  Mn4  1  0.27074542  0.57007273  0.57867185  1
  Mn  Mn5  1  0.69361982  0.46458416  0.37992483  1
  Mn  Mn6  1  0.00037599  0.98403054  0.00946556  1
  Mn  Mn7  1  0.79756801  0.99764804  0.60136562  1
  Mn  Mn8  1  0.20061014  0.95296289  0.41036374  1
  Mn  Mn9  1  0.49857181  0.51852256  0.00101590  1
  Sb  Sb10  1  0.88908108  0.01052781  0.44254216  1
  Sb  Sb11  1  0.11026240  0.03172674  0.55672455  1
  Sb  Sb12  1  0.03238751  0.52795121  0.80938006  1
  Sb  Sb13  1  0.96313859  0.50863544  0.18926232  1
  Sb  Sb14  1  0.40180110  0.51139798  0.46807801  1
  Sb  Sb15  1  0.61220064  0.45003304  0.57103296  1
  Sb  Sb16  1  0.53322592  0.99421424  0.82274582  1
  Sb  Sb17  1  0.46679010  0.02693785  0.18479627  1
  S  S18  1  0.92807351  0.98294696  0.78852113  1
  S  S19  1  0.05924764  0.98052938  0.18909717  1
  S  S20  1  0.41325795  0.97886905  0.98709166  1
  S  S21  1  0.57699919  0.04128697  0.01683095  1
  S  S22  1  0.17298814  0.04097380  0.90675577  1
  S  S23  1  0.83187203  0.01059132  0.11616299  1
  S  S24  1  0.08866842  0.50186429  0.65381303  1
  S  S25  1  0.88621140  0.49545734  0.33076341  1
  S  S26  1  0.72953129  0.95233945  0.30270830  1
  S  S27  1  0.26149715  0.96120558  0.67721358  1
  S  S28  1  0.14871134  0.39243894  0.42673304  1
  S  S29  1  0.82785551  0.42966674  0.54095011  1
  S  S30  1  0.44342015  0.48900510  0.81933035  1
  S  S31  1  0.56766802  0.47890103  0.20277916  1
  S  S32  1  0.91922307  0.50353180  0.98894178  1
  S  S33  1  0.09210207  0.57615206  0.01500430  1
  S  S34  1  0.68300787  0.53057226  0.91085448  1
  S  S35  1  0.33743470  0.42026647  0.10215374  1
  S  S36  1  0.60505039  0.96113259  0.67625912  1
  S  S37  1  0.42674628  0.96348723  0.38073469  1
  S  S38  1  0.24740437  0.46347799  0.29567935  1
  S  S39  1  0.76295706  0.40658556  0.68365809  1
  S  S40  1  0.65661711  0.93526854  0.44367400  1
  S  S41  1  0.33466631  0.04531468  0.56251176  1
