# generated using pymatgen
data_Pr2Mn3(SbS3)4
_symmetry_space_group_name_H-M   'P 1'
_cell_length_a   20.02960800
_cell_length_b   3.90410600
_cell_length_c   14.95364829
_cell_angle_alpha   90.00000000
_cell_angle_beta   126.33350609
_cell_angle_gamma   90.00000000
_symmetry_Int_Tables_number   1
_chemical_formula_structural   Pr2Mn3(SbS3)4
_chemical_formula_sum   'Pr4 Mn6 Sb8 S24'
_cell_volume   942.00006694
_cell_formula_units_Z   2
loop_
 _symmetry_equiv_pos_site_id
 _symmetry_equiv_pos_as_xyz
  1  'x, y, z'
loop_
 _atom_site_type_symbol
 _atom_site_label
 _atom_site_symmetry_multiplicity
 _atom_site_fract_x
 _atom_site_fract_y
 _atom_site_fract_z
 _atom_site_occupancy
  Pr  Pr0  1  0.26365965  0.52481317  0.86600559  1
  Pr  Pr1  1  0.72669587  0.55437226  0.12804255  1
  Pr  Pr2  1  0.77031890  0.97343093  0.89124164  1
  Pr  Pr3  1  0.24543475  0.98423242  0.15105079  1
  Mn  Mn4  1  0.27071488  0.57020235  0.57898918  1
  Mn  Mn5  1  0.69373744  0.46490527  0.38001900  1
  Mn  Mn6  1  0.00037233  0.98419327  0.00937814  1
  Mn  Mn7  1  0.79751221  0.99706566  0.60119853  1
  Mn  Mn8  1  0.20067636  0.95177084  0.41076966  1
  Mn  Mn9  1  0.49858521  0.51754166  0.00120239  1
  Sb  Sb10  1  0.88916039  0.01008840  0.44273056  1
  Sb  Sb11  1  0.11041993  0.03196858  0.55681335  1
  Sb  Sb12  1  0.03245567  0.52825507  0.80948241  1
  Sb  Sb13  1  0.96330459  0.50843171  0.18941637  1
  Sb  Sb14  1  0.40184128  0.51097678  0.46834738  1
  Sb  Sb15  1  0.61219812  0.45021894  0.57083803  1
  Sb  Sb16  1  0.53330795  0.99472798  0.82280137  1
  Sb  Sb17  1  0.46665067  0.02718215  0.18473286  1
  S  S18  1  0.92845690  0.98355423  0.78879002  1
  S  S19  1  0.05927955  0.98044602  0.18911831  1
  S  S20  1  0.41370903  0.97875805  0.98774212  1
  S  S21  1  0.57711988  0.04121376  0.01674769  1
  S  S22  1  0.17336125  0.04132475  0.90668517  1
  S  S23  1  0.83203186  0.01233915  0.11656527  1
  S  S24  1  0.08837596  0.50145265  0.65358567  1
  S  S25  1  0.88649086  0.49654049  0.33060086  1
  S  S26  1  0.72959354  0.95330972  0.30262950  1
  S  S27  1  0.26149136  0.96011353  0.67744633  1
  S  S28  1  0.14880352  0.39061368  0.42669593  1
  S  S29  1  0.82801781  0.43079144  0.54118299  1
  S  S30  1  0.44343949  0.48951183  0.81898658  1
  S  S31  1  0.56739249  0.47891482  0.20251945  1
  S  S32  1  0.91921252  0.50349549  0.98916206  1
  S  S33  1  0.09234600  0.57651649  0.01519904  1
  S  S34  1  0.68313763  0.53142440  0.91078625  1
  S  S35  1  0.33729729  0.42132220  0.10210267  1
  S  S36  1  0.60497113  0.96002350  0.67590359  1
  S  S37  1  0.42662674  0.96375659  0.38043837  1
  S  S38  1  0.24750129  0.46311479  0.29585575  1
  S  S39  1  0.76304132  0.40675199  0.68401703  1
  S  S40  1  0.65651285  0.93398835  0.44355296  1
  S  S41  1  0.33499047  0.04490403  0.56245007  1
