# generated using pymatgen
data_Pr2Mn3(SbS3)4
_symmetry_space_group_name_H-M   'P 1'
_cell_length_a   20.02960800
_cell_length_b   3.90410600
_cell_length_c   14.95364829
_cell_angle_alpha   90.00000000
_cell_angle_beta   126.33350609
_cell_angle_gamma   90.00000000
_symmetry_Int_Tables_number   1
_chemical_formula_structural   Pr2Mn3(SbS3)4
_chemical_formula_sum   'Pr4 Mn6 Sb8 S24'
_cell_volume   942.00006694
_cell_formula_units_Z   2
loop_
 _symmetry_equiv_pos_site_id
 _symmetry_equiv_pos_as_xyz
  1  'x, y, z'
loop_
 _atom_site_type_symbol
 _atom_site_label
 _atom_site_symmetry_multiplicity
 _atom_site_fract_x
 _atom_site_fract_y
 _atom_site_fract_z
 _atom_site_occupancy
  Pr  Pr0  1  0.26370069  0.52387879  0.86608791  1
  Pr  Pr1  1  0.72662109  0.55469303  0.12801017  1
  Pr  Pr2  1  0.77051941  0.97446329  0.89149421  1
  Pr  Pr3  1  0.24533496  0.98429519  0.15095888  1
  Mn  Mn4  1  0.27066370  0.57004057  0.57922401  1
  Mn  Mn5  1  0.69387348  0.46505558  0.38024169  1
  Mn  Mn6  1  0.00033359  0.98432849  0.00934614  1
  Mn  Mn7  1  0.79750815  0.99672455  0.60115949  1
  Mn  Mn8  1  0.20078199  0.95087650  0.41107746  1
  Mn  Mn9  1  0.49858639  0.51616843  0.00131712  1
  Sb  Sb10  1  0.88931167  0.00921840  0.44296889  1
  Sb  Sb11  1  0.11059324  0.03229992  0.55692995  1
  Sb  Sb12  1  0.03242514  0.52836505  0.80942128  1
  Sb  Sb13  1  0.96344440  0.50797601  0.18950335  1
  Sb  Sb14  1  0.40194381  0.51037232  0.46856689  1
  Sb  Sb15  1  0.61223981  0.45052037  0.57069355  1
  Sb  Sb16  1  0.53340204  0.99541880  0.82284581  1
  Sb  Sb17  1  0.46653253  0.02751666  0.18470519  1
  S  S18  1  0.92868257  0.98351213  0.78888666  1
  S  S19  1  0.05929952  0.98023519  0.18902029  1
  S  S20  1  0.41419165  0.97906004  0.98834477  1
  S  S21  1  0.57706560  0.04165384  0.01649949  1
  S  S22  1  0.17356114  0.04060103  0.90647539  1
  S  S23  1  0.83226084  0.01323548  0.11690230  1
  S  S24  1  0.08808799  0.50134768  0.65334097  1
  S  S25  1  0.88661513  0.49733691  0.33039609  1
  S  S26  1  0.72962637  0.95397539  0.30260863  1
  S  S27  1  0.26134320  0.95899615  0.67758875  1
  S  S28  1  0.14889675  0.38913744  0.42686911  1
  S  S29  1  0.82798831  0.43178753  0.54121869  1
  S  S30  1  0.44342329  0.49006813  0.81879976  1
  S  S31  1  0.56718327  0.47844885  0.20219185  1
  S  S32  1  0.91909829  0.50403575  0.98942377  1
  S  S33  1  0.09260814  0.57691329  0.01534684  1
  S  S34  1  0.68314165  0.53222831  0.91057535  1
  S  S35  1  0.33709833  0.42318316  0.10209260  1
  S  S36  1  0.60500698  0.95899517  0.67565648  1
  S  S37  1  0.42650449  0.96397673  0.38019978  1
  S  S38  1  0.24772208  0.46269549  0.29613117  1
  S  S39  1  0.76312127  0.40749837  0.68443241  1
  S  S40  1  0.65644041  0.93235744  0.44354171  1
  S  S41  1  0.33523139  0.04376462  0.56217572  1
