# generated using pymatgen
data_Pr2Mn3(SbS3)4
_symmetry_space_group_name_H-M   'P 1'
_cell_length_a   20.02960800
_cell_length_b   3.90410600
_cell_length_c   14.95364829
_cell_angle_alpha   90.00000000
_cell_angle_beta   126.33350609
_cell_angle_gamma   90.00000000
_symmetry_Int_Tables_number   1
_chemical_formula_structural   Pr2Mn3(SbS3)4
_chemical_formula_sum   'Pr4 Mn6 Sb8 S24'
_cell_volume   942.00006694
_cell_formula_units_Z   2
loop_
 _symmetry_equiv_pos_site_id
 _symmetry_equiv_pos_as_xyz
  1  'x, y, z'
loop_
 _atom_site_type_symbol
 _atom_site_label
 _atom_site_symmetry_multiplicity
 _atom_site_fract_x
 _atom_site_fract_y
 _atom_site_fract_z
 _atom_site_occupancy
  Pr  Pr0  1  0.26373468  0.52310264  0.86610311  1
  Pr  Pr1  1  0.72654107  0.55508006  0.12803020  1
  Pr  Pr2  1  0.77068897  0.97539996  0.89166483  1
  Pr  Pr3  1  0.24524496  0.98439759  0.15093520  1
  Mn  Mn4  1  0.27070261  0.57011333  0.57962197  1
  Mn  Mn5  1  0.69393031  0.46504174  0.38035891  1
  Mn  Mn6  1  0.00040878  0.98474685  0.00961889  1
  Mn  Mn7  1  0.79742530  0.99627951  0.60101573  1
  Mn  Mn8  1  0.20089264  0.94983622  0.41131017  1
  Mn  Mn9  1  0.49851594  0.51533488  0.00141653  1
  Sb  Sb10  1  0.88946189  0.00832382  0.44315022  1
  Sb  Sb11  1  0.11071410  0.03253652  0.55697153  1
  Sb  Sb12  1  0.03242783  0.52838314  0.80936730  1
  Sb  Sb13  1  0.96356929  0.50761094  0.18962251  1
  Sb  Sb14  1  0.40202697  0.50968289  0.46873566  1
  Sb  Sb15  1  0.61227382  0.45094181  0.57060058  1
  Sb  Sb16  1  0.53342739  0.99571114  0.82283233  1
  Sb  Sb17  1  0.46647064  0.02790618  0.18467618  1
  S  S18  1  0.92903754  0.98338981  0.78928682  1
  S  S19  1  0.05916001  0.97989146  0.18872794  1
  S  S20  1  0.41451970  0.97876860  0.98881154  1
  S  S21  1  0.57717271  0.04163096  0.01628859  1
  S  S22  1  0.17379118  0.03962167  0.90611404  1
  S  S23  1  0.83245396  0.01475117  0.11731044  1
  S  S24  1  0.08778370  0.50069146  0.65317946  1
  S  S25  1  0.88675115  0.49895990  0.33041057  1
  S  S26  1  0.72972382  0.95478213  0.30275784  1
  S  S27  1  0.26130798  0.95768983  0.67785749  1
  S  S28  1  0.14898907  0.38819209  0.42706703  1
  S  S29  1  0.82786229  0.43272609  0.54128336  1
  S  S30  1  0.44332108  0.49111921  0.81841291  1
  S  S31  1  0.56674034  0.47802661  0.20167739  1
  S  S32  1  0.91912977  0.50507878  0.98968173  1
  S  S33  1  0.09282570  0.57689069  0.01542668  1
  S  S34  1  0.68307659  0.53261480  0.91036009  1
  S  S35  1  0.33694732  0.42517544  0.10225734  1
  S  S36  1  0.60517936  0.95790968  0.67560279  1
  S  S37  1  0.42637674  0.96410944  0.37996607  1
  S  S38  1  0.24794057  0.46220301  0.29645738  1
  S  S39  1  0.76315340  0.40800120  0.68470494  1
  S  S40  1  0.65627294  0.93054800  0.44345984  1
  S  S41  1  0.33543720  0.04225811  0.56196019  1
