# generated using pymatgen
data_Pr2Mn3(SbS3)4
_symmetry_space_group_name_H-M   'P 1'
_cell_length_a   20.02960800
_cell_length_b   3.90410600
_cell_length_c   14.95364829
_cell_angle_alpha   90.00000000
_cell_angle_beta   126.33350609
_cell_angle_gamma   90.00000000
_symmetry_Int_Tables_number   1
_chemical_formula_structural   Pr2Mn3(SbS3)4
_chemical_formula_sum   'Pr4 Mn6 Sb8 S24'
_cell_volume   942.00006694
_cell_formula_units_Z   2
loop_
 _symmetry_equiv_pos_site_id
 _symmetry_equiv_pos_as_xyz
  1  'x, y, z'
loop_
 _atom_site_type_symbol
 _atom_site_label
 _atom_site_symmetry_multiplicity
 _atom_site_fract_x
 _atom_site_fract_y
 _atom_site_fract_z
 _atom_site_occupancy
  Pr  Pr0  1  0.26376622  0.52235463  0.86616388  1
  Pr  Pr1  1  0.72646301  0.55532550  0.12797095  1
  Pr  Pr2  1  0.77083082  0.97630262  0.89183589  1
  Pr  Pr3  1  0.24517398  0.98459522  0.15089378  1
  Mn  Mn4  1  0.27081832  0.57033421  0.58008517  1
  Mn  Mn5  1  0.69409835  0.46537133  0.38065531  1
  Mn  Mn6  1  0.00041815  0.98516884  0.00978793  1
  Mn  Mn7  1  0.79746447  0.99624127  0.60105155  1
  Mn  Mn8  1  0.20090400  0.94879942  0.41142437  1
  Mn  Mn9  1  0.49836314  0.51509916  0.00142362  1
  Sb  Sb10  1  0.88958124  0.00738062  0.44328559  1
  Sb  Sb11  1  0.11076815  0.03303221  0.55694972  1
  Sb  Sb12  1  0.03249371  0.52860895  0.80935672  1
  Sb  Sb13  1  0.96363708  0.50717045  0.18969805  1
  Sb  Sb14  1  0.40206928  0.50920365  0.46893441  1
  Sb  Sb15  1  0.61233850  0.45142988  0.57045873  1
  Sb  Sb16  1  0.53352715  0.99590137  0.82292560  1
  Sb  Sb17  1  0.46648011  0.02843661  0.18457368  1
  S  S18  1  0.92951600  0.98295068  0.78973110  1
  S  S19  1  0.05906109  0.97934649  0.18854748  1
  S  S20  1  0.41489376  0.97785728  0.98929107  1
  S  S21  1  0.57741689  0.04144577  0.01621998  1
  S  S22  1  0.17399408  0.03876798  0.90583331  1
  S  S23  1  0.83262994  0.01643444  0.11761569  1
  S  S24  1  0.08757090  0.50065901  0.65302468  1
  S  S25  1  0.88653622  0.50016193  0.33011487  1
  S  S26  1  0.72986742  0.95550815  0.30283867  1
  S  S27  1  0.26145106  0.95584350  0.67831189  1
  S  S28  1  0.14906506  0.38678470  0.42724358  1
  S  S29  1  0.82776441  0.43404697  0.54149429  1
  S  S30  1  0.44315771  0.49252103  0.81797223  1
  S  S31  1  0.56622387  0.47785201  0.20124057  1
  S  S32  1  0.91916142  0.50500634  0.98997895  1
  S  S33  1  0.09310242  0.57683024  0.01556263  1
  S  S34  1  0.68300795  0.53234363  0.91010601  1
  S  S35  1  0.33669287  0.42662805  0.10245948  1
  S  S36  1  0.60516740  0.95688777  0.67534261  1
  S  S37  1  0.42631361  0.96476604  0.37974424  1
  S  S38  1  0.24812861  0.46232837  0.29684400  1
  S  S39  1  0.76329796  0.40785605  0.68514329  1
  S  S40  1  0.65617507  0.92899089  0.44339477  1
  S  S41  1  0.33581195  0.04160615  0.56191081  1
