# generated using pymatgen
data_Pr2Mn3(SbS3)4
_symmetry_space_group_name_H-M   'P 1'
_cell_length_a   20.02960800
_cell_length_b   3.90410600
_cell_length_c   14.95364829
_cell_angle_alpha   90.00000000
_cell_angle_beta   126.33350609
_cell_angle_gamma   90.00000000
_symmetry_Int_Tables_number   1
_chemical_formula_structural   Pr2Mn3(SbS3)4
_chemical_formula_sum   'Pr4 Mn6 Sb8 S24'
_cell_volume   942.00006694
_cell_formula_units_Z   2
loop_
 _symmetry_equiv_pos_site_id
 _symmetry_equiv_pos_as_xyz
  1  'x, y, z'
loop_
 _atom_site_type_symbol
 _atom_site_label
 _atom_site_symmetry_multiplicity
 _atom_site_fract_x
 _atom_site_fract_y
 _atom_site_fract_z
 _atom_site_occupancy
  Pr  Pr0  1  0.26956431  0.49762990  0.86647381  1
  Pr  Pr1  1  0.73368524  0.50882424  0.13358279  1
  Pr  Pr2  1  0.76308123  0.02322664  0.86117238  1
  Pr  Pr3  1  0.23398526  0.99658167  0.13192203  1
  Mn  Mn4  1  0.29276704  0.47494647  0.59582413  1
  Mn  Mn5  1  0.68599020  0.46482919  0.36507927  1
  Mn  Mn6  1  0.00668051  0.99236560  0.01339752  1
  Mn  Mn7  1  0.79943390  0.00666432  0.61911489  1
  Mn  Mn8  1  0.19800733  0.97513290  0.37124414  1
  Mn  Mn9  1  0.48828602  0.46611450  0.98740375  1
  Sb  Sb10  1  0.88987011  0.98516176  0.45186593  1
  Sb  Sb11  1  0.10951742  0.97771753  0.54417383  1
  Sb  Sb12  1  0.03505976  0.52108347  0.81855591  1
  Sb  Sb13  1  0.96494963  0.49992755  0.18923201  1
  Sb  Sb14  1  0.39310837  0.49798079  0.44883177  1
  Sb  Sb15  1  0.60574118  0.47113942  0.54832642  1
  Sb  Sb16  1  0.53367394  0.98606932  0.80859901  1
  Sb  Sb17  1  0.46517881  0.02226942  0.19110164  1
  S  S18  1  0.93759813  0.01940978  0.80807610  1
  S  S19  1  0.06396405  0.98370015  0.19845686  1
  S  S20  1  0.42134845  0.95867547  0.99263887  1
  S  S21  1  0.58333264  0.03171561  0.01272542  1
  S  S22  1  0.17179381  0.05586636  0.90076885  1
  S  S23  1  0.82853092  0.05296943  0.10327048  1
  S  S24  1  0.09119065  0.50407897  0.64750898  1
  S  S25  1  0.91534624  0.48414542  0.35887590  1
  S  S26  1  0.73581687  0.97482746  0.29847317  1
  S  S27  1  0.26089904  0.00168593  0.71010051  1
  S  S28  1  0.16433722  0.51665293  0.43058909  1
  S  S29  1  0.81852652  0.48105602  0.54669371  1
  S  S30  1  0.43129119  0.47683445  0.79583818  1
  S  S31  1  0.55405656  0.51941446  0.18092887  1
  S  S32  1  0.91633893  0.49029266  0.98955977  1
  S  S33  1  0.08941844  0.49649695  0.03226963  1
  S  S34  1  0.66422356  0.54839665  0.89242270  1
  S  S35  1  0.32651457  0.50127920  0.09302892  1
  S  S36  1  0.59665218  0.00372705  0.65560481  1
  S  S37  1  0.40062814  0.98058950  0.34405351  1
  S  S38  1  0.24283618  0.46961239  0.31578701  1
  S  S39  1  0.75999517  0.52320125  0.68810980  1
  S  S40  1  0.66505248  0.00325390  0.44968534  1
  S  S41  1  0.33088272  0.98520038  0.55504156  1
