# generated using pymatgen
data_Pr2Mn3(SbS3)4
_symmetry_space_group_name_H-M   'P 1'
_cell_length_a   20.02960800
_cell_length_b   3.90410600
_cell_length_c   14.95364829
_cell_angle_alpha   90.00000000
_cell_angle_beta   126.33350609
_cell_angle_gamma   90.00000000
_symmetry_Int_Tables_number   1
_chemical_formula_structural   Pr2Mn3(SbS3)4
_chemical_formula_sum   'Pr4 Mn6 Sb8 S24'
_cell_volume   942.00006694
_cell_formula_units_Z   2
loop_
 _symmetry_equiv_pos_site_id
 _symmetry_equiv_pos_as_xyz
  1  'x, y, z'
loop_
 _atom_site_type_symbol
 _atom_site_label
 _atom_site_symmetry_multiplicity
 _atom_site_fract_x
 _atom_site_fract_y
 _atom_site_fract_z
 _atom_site_occupancy
  Pr  Pr0  1  0.26381488  0.52211463  0.86617485  1
  Pr  Pr1  1  0.72637985  0.55524566  0.12784423  1
  Pr  Pr2  1  0.77099853  0.97710357  0.89208233  1
  Pr  Pr3  1  0.24507696  0.98459682  0.15086795  1
  Mn  Mn4  1  0.27092514  0.57045787  0.58049632  1
  Mn  Mn5  1  0.69423803  0.46546137  0.38083360  1
  Mn  Mn6  1  0.00046350  0.98577199  0.00989085  1
  Mn  Mn7  1  0.79736693  0.99577131  0.60098711  1
  Mn  Mn8  1  0.20105067  0.94807181  0.41158828  1
  Mn  Mn9  1  0.49809576  0.51464868  0.00134201  1
  Sb  Sb10  1  0.88969486  0.00672135  0.44338561  1
  Sb  Sb11  1  0.11080968  0.03346410  0.55686276  1
  Sb  Sb12  1  0.03262162  0.52871290  0.80940676  1
  Sb  Sb13  1  0.96361265  0.50669949  0.18971152  1
  Sb  Sb14  1  0.40212254  0.50868947  0.46909500  1
  Sb  Sb15  1  0.61245527  0.45196744  0.57042857  1
  Sb  Sb16  1  0.53369229  0.99585293  0.82311468  1
  Sb  Sb17  1  0.46645643  0.02904466  0.18444926  1
  S  S18  1  0.92999532  0.98251229  0.79020315  1
  S  S19  1  0.05902709  0.97870192  0.18840758  1
  S  S20  1  0.41512008  0.97712564  0.98949629  1
  S  S21  1  0.57754705  0.04060947  0.01611886  1
  S  S22  1  0.17418095  0.03743607  0.90548979  1
  S  S23  1  0.83284009  0.01789097  0.11793810  1
  S  S24  1  0.08732559  0.50042267  0.65287373  1
  S  S25  1  0.88656461  0.50181685  0.33008047  1
  S  S26  1  0.72994480  0.95600871  0.30278674  1
  S  S27  1  0.26170581  0.95377338  0.67875565  1
  S  S28  1  0.14913658  0.38522189  0.42754420  1
  S  S29  1  0.82767028  0.43564186  0.54150076  1
  S  S30  1  0.44297212  0.49413049  0.81755052  1
  S  S31  1  0.56573514  0.47895842  0.20087331  1
  S  S32  1  0.91919141  0.50487415  0.99011537  1
  S  S33  1  0.09328472  0.57651598  0.01551836  1
  S  S34  1  0.68279100  0.53156253  0.90967895  1
  S  S35  1  0.33658519  0.42812298  0.10269259  1
  S  S36  1  0.60506870  0.95614018  0.67496591  1
  S  S37  1  0.42624388  0.96553861  0.37948841  1
  S  S38  1  0.24832416  0.46179150  0.29718587  1
  S  S39  1  0.76342399  0.40830268  0.68552104  1
  S  S40  1  0.65610815  0.92743027  0.44334138  1
  S  S41  1  0.33593591  0.04149012  0.56175919  1
