# generated using pymatgen
data_Pr2Mn3(SbS3)4
_symmetry_space_group_name_H-M   'P 1'
_cell_length_a   20.02960800
_cell_length_b   3.90410600
_cell_length_c   14.95364829
_cell_angle_alpha   90.00000000
_cell_angle_beta   126.33350609
_cell_angle_gamma   90.00000000
_symmetry_Int_Tables_number   1
_chemical_formula_structural   Pr2Mn3(SbS3)4
_chemical_formula_sum   'Pr4 Mn6 Sb8 S24'
_cell_volume   942.00006694
_cell_formula_units_Z   2
loop_
 _symmetry_equiv_pos_site_id
 _symmetry_equiv_pos_as_xyz
  1  'x, y, z'
loop_
 _atom_site_type_symbol
 _atom_site_label
 _atom_site_symmetry_multiplicity
 _atom_site_fract_x
 _atom_site_fract_y
 _atom_site_fract_z
 _atom_site_occupancy
  Pr  Pr0  1  0.26382439  0.52161785  0.86623191  1
  Pr  Pr1  1  0.72628477  0.55513814  0.12770489  1
  Pr  Pr2  1  0.77113411  0.97782140  0.89220596  1
  Pr  Pr3  1  0.24502503  0.98476186  0.15091608  1
  Mn  Mn4  1  0.27113695  0.57037180  0.58083940  1
  Mn  Mn5  1  0.69436900  0.46555380  0.38098413  1
  Mn  Mn6  1  0.00060391  0.98618999  0.01000649  1
  Mn  Mn7  1  0.79719197  0.99557587  0.60095577  1
  Mn  Mn8  1  0.20120258  0.94771895  0.41168230  1
  Mn  Mn9  1  0.49779861  0.51426899  0.00119434  1
  Sb  Sb10  1  0.88974631  0.00597694  0.44347400  1
  Sb  Sb11  1  0.11087729  0.03368437  0.55679773  1
  Sb  Sb12  1  0.03267598  0.52877242  0.80938061  1
  Sb  Sb13  1  0.96357120  0.50636692  0.18972789  1
  Sb  Sb14  1  0.40219206  0.50803423  0.46931805  1
  Sb  Sb15  1  0.61251776  0.45228854  0.57036785  1
  Sb  Sb16  1  0.53381212  0.99576107  0.82331744  1
  Sb  Sb17  1  0.46642402  0.02976863  0.18428460  1
  S  S18  1  0.93044617  0.98138663  0.79055792  1
  S  S19  1  0.05901525  0.97843421  0.18844066  1
  S  S20  1  0.41522743  0.97590755  0.98959853  1
  S  S21  1  0.57763650  0.04022546  0.01610701  1
  S  S22  1  0.17429379  0.03585810  0.90495767  1
  S  S23  1  0.83295833  0.01941605  0.11822802  1
  S  S24  1  0.08706505  0.49975895  0.65247171  1
  S  S25  1  0.88656981  0.50332536  0.32997129  1
  S  S26  1  0.73005318  0.95641968  0.30278964  1
  S  S27  1  0.26210669  0.95219437  0.67909904  1
  S  S28  1  0.14920736  0.38426003  0.42785133  1
  S  S29  1  0.82776234  0.43753759  0.54182502  1
  S  S30  1  0.44277526  0.49508334  0.81721760  1
  S  S31  1  0.56540205  0.47930436  0.20042801  1
  S  S32  1  0.91925840  0.50473390  0.99022382  1
  S  S33  1  0.09336272  0.57599894  0.01533359  1
  S  S34  1  0.68243966  0.53014064  0.90917933  1
  S  S35  1  0.33639596  0.42974753  0.10296585  1
  S  S36  1  0.60476819  0.95571517  0.67444310  1
  S  S37  1  0.42614169  0.96647295  0.37912669  1
  S  S38  1  0.24835960  0.46149410  0.29731743  1
  S  S39  1  0.76346111  0.40864249  0.68587465  1
  S  S40  1  0.65588535  0.92626256  0.44316991  1
  S  S41  1  0.33607877  0.04128137  0.56150661  1
