# generated using pymatgen
data_Pr2Mn3(SbS3)4
_symmetry_space_group_name_H-M   'P 1'
_cell_length_a   20.02960800
_cell_length_b   3.90410600
_cell_length_c   14.95364829
_cell_angle_alpha   90.00000000
_cell_angle_beta   126.33350609
_cell_angle_gamma   90.00000000
_symmetry_Int_Tables_number   1
_chemical_formula_structural   Pr2Mn3(SbS3)4
_chemical_formula_sum   'Pr4 Mn6 Sb8 S24'
_cell_volume   942.00006694
_cell_formula_units_Z   2
loop_
 _symmetry_equiv_pos_site_id
 _symmetry_equiv_pos_as_xyz
  1  'x, y, z'
loop_
 _atom_site_type_symbol
 _atom_site_label
 _atom_site_symmetry_multiplicity
 _atom_site_fract_x
 _atom_site_fract_y
 _atom_site_fract_z
 _atom_site_occupancy
  Pr  Pr0  1  0.26380309  0.52109968  0.86629374  1
  Pr  Pr1  1  0.72624654  0.55526329  0.12763118  1
  Pr  Pr2  1  0.77117338  0.97853991  0.89228522  1
  Pr  Pr3  1  0.24496219  0.98497388  0.15100705  1
  Mn  Mn4  1  0.27135178  0.57036398  0.58118211  1
  Mn  Mn5  1  0.69456400  0.46636474  0.38116727  1
  Mn  Mn6  1  0.00072356  0.98682764  0.01007738  1
  Mn  Mn7  1  0.79704307  0.99561364  0.60100183  1
  Mn  Mn8  1  0.20135923  0.94682615  0.41179754  1
  Mn  Mn9  1  0.49747179  0.51412511  0.00083999  1
  Sb  Sb10  1  0.88986013  0.00537730  0.44369418  1
  Sb  Sb11  1  0.11098817  0.03414718  0.55681244  1
  Sb  Sb12  1  0.03267580  0.52884427  0.80936265  1
  Sb  Sb13  1  0.96356324  0.50641597  0.18966642  1
  Sb  Sb14  1  0.40221176  0.50733443  0.46950603  1
  Sb  Sb15  1  0.61250125  0.45264741  0.57018201  1
  Sb  Sb16  1  0.53393049  0.99547068  0.82350406  1
  Sb  Sb17  1  0.46633153  0.03035185  0.18404508  1
  S  S18  1  0.93085065  0.98072249  0.79086658  1
  S  S19  1  0.05900681  0.97854116  0.18841801  1
  S  S20  1  0.41538374  0.97515133  0.98960203  1
  S  S21  1  0.57772202  0.03883825  0.01630302  1
  S  S22  1  0.17446231  0.03379391  0.90442390  1
  S  S23  1  0.83306377  0.02119085  0.11850530  1
  S  S24  1  0.08691736  0.49893921  0.65211617  1
  S  S25  1  0.88657108  0.50473911  0.32991409  1
  S  S26  1  0.73005660  0.95671349  0.30278794  1
  S  S27  1  0.26265013  0.95021153  0.67951103  1
  S  S28  1  0.14928191  0.38370164  0.42817000  1
  S  S29  1  0.82784212  0.43909109  0.54200597  1
  S  S30  1  0.44255128  0.49610598  0.81689117  1
  S  S31  1  0.56508457  0.47970020  0.19994715  1
  S  S32  1  0.91930149  0.50451277  0.99040665  1
  S  S33  1  0.09336248  0.57503586  0.01530875  1
  S  S34  1  0.68220276  0.52892271  0.90868599  1
  S  S35  1  0.33631567  0.43128960  0.10323059  1
  S  S36  1  0.60435650  0.95559145  0.67373346  1
  S  S37  1  0.42598583  0.96774072  0.37873105  1
  S  S38  1  0.24836069  0.46135809  0.29744348  1
  S  S39  1  0.76360466  0.40878098  0.68628786  1
  S  S40  1  0.65567532  0.92620829  0.44310740  1
  S  S41  1  0.33618320  0.04109176  0.56150200  1
