# generated using pymatgen
data_Pr2Mn3(SbS3)4
_symmetry_space_group_name_H-M   'P 1'
_cell_length_a   20.02960800
_cell_length_b   3.90410600
_cell_length_c   14.95364829
_cell_angle_alpha   90.00000000
_cell_angle_beta   126.33350609
_cell_angle_gamma   90.00000000
_symmetry_Int_Tables_number   1
_chemical_formula_structural   Pr2Mn3(SbS3)4
_chemical_formula_sum   'Pr4 Mn6 Sb8 S24'
_cell_volume   942.00006694
_cell_formula_units_Z   2
loop_
 _symmetry_equiv_pos_site_id
 _symmetry_equiv_pos_as_xyz
  1  'x, y, z'
loop_
 _atom_site_type_symbol
 _atom_site_label
 _atom_site_symmetry_multiplicity
 _atom_site_fract_x
 _atom_site_fract_y
 _atom_site_fract_z
 _atom_site_occupancy
  Pr  Pr0  1  0.26376056  0.52021260  0.86629655  1
  Pr  Pr1  1  0.72623535  0.55558229  0.12754599  1
  Pr  Pr2  1  0.77125510  0.97928240  0.89248202  1
  Pr  Pr3  1  0.24479854  0.98534797  0.15109145  1
  Mn  Mn4  1  0.27144129  0.57010468  0.58148734  1
  Mn  Mn5  1  0.69471903  0.46702397  0.38144056  1
  Mn  Mn6  1  0.00078054  0.98710622  0.00996024  1
  Mn  Mn7  1  0.79679258  0.99509363  0.60106066  1
  Mn  Mn8  1  0.20142942  0.94609386  0.41181775  1
  Mn  Mn9  1  0.49721074  0.51377491  0.00055027  1
  Sb  Sb10  1  0.88994626  0.00489656  0.44386519  1
  Sb  Sb11  1  0.11108144  0.03470940  0.55687193  1
  Sb  Sb12  1  0.03257370  0.52909333  0.80919092  1
  Sb  Sb13  1  0.96346499  0.50667171  0.18949295  1
  Sb  Sb14  1  0.40221058  0.50675120  0.46957118  1
  Sb  Sb15  1  0.61250699  0.45322302  0.57004690  1
  Sb  Sb16  1  0.53403934  0.99526928  0.82368987  1
  Sb  Sb17  1  0.46625925  0.03071180  0.18384261  1
  S  S18  1  0.93128379  0.98056717  0.79117416  1
  S  S19  1  0.05903848  0.97875716  0.18832136  1
  S  S20  1  0.41554648  0.97453393  0.98970577  1
  S  S21  1  0.57776140  0.03656960  0.01646699  1
  S  S22  1  0.17468478  0.03188727  0.90392276  1
  S  S23  1  0.83323257  0.02260985  0.11868463  1
  S  S24  1  0.08671276  0.49776246  0.65154256  1
  S  S25  1  0.88665423  0.50663222  0.32984344  1
  S  S26  1  0.72988902  0.95726063  0.30258027  1
  S  S27  1  0.26320822  0.94915843  0.67992928  1
  S  S28  1  0.14925739  0.38280226  0.42831133  1
  S  S29  1  0.82790227  0.44029025  0.54219065  1
  S  S30  1  0.44237464  0.49687283  0.81645878  1
  S  S31  1  0.56476443  0.48056754  0.19963214  1
  S  S32  1  0.91930902  0.50482428  0.99051776  1
  S  S33  1  0.09328734  0.57389554  0.01526405  1
  S  S34  1  0.68211080  0.52799578  0.90831944  1
  S  S35  1  0.33634392  0.43285370  0.10361469  1
  S  S36  1  0.60404483  0.95541445  0.67304088  1
  S  S37  1  0.42592398  0.96838967  0.37840754  1
  S  S38  1  0.24830039  0.46176931  0.29755920  1
  S  S39  1  0.76364686  0.40855566  0.68676556  1
  S  S40  1  0.65548860  0.92695103  0.44310482  1
  S  S41  1  0.33634510  0.04073382  0.56149855  1
