# generated using pymatgen
data_Pr2Mn3(SbS3)4
_symmetry_space_group_name_H-M   'P 1'
_cell_length_a   20.02960800
_cell_length_b   3.90410600
_cell_length_c   14.95364829
_cell_angle_alpha   90.00000000
_cell_angle_beta   126.33350609
_cell_angle_gamma   90.00000000
_symmetry_Int_Tables_number   1
_chemical_formula_structural   Pr2Mn3(SbS3)4
_chemical_formula_sum   'Pr4 Mn6 Sb8 S24'
_cell_volume   942.00006694
_cell_formula_units_Z   2
loop_
 _symmetry_equiv_pos_site_id
 _symmetry_equiv_pos_as_xyz
  1  'x, y, z'
loop_
 _atom_site_type_symbol
 _atom_site_label
 _atom_site_symmetry_multiplicity
 _atom_site_fract_x
 _atom_site_fract_y
 _atom_site_fract_z
 _atom_site_occupancy
  Pr  Pr0  1  0.26373115  0.51916878  0.86638265  1
  Pr  Pr1  1  0.72621187  0.55586117  0.12751635  1
  Pr  Pr2  1  0.77128843  0.98028962  0.89273619  1
  Pr  Pr3  1  0.24460287  0.98560422  0.15109184  1
  Mn  Mn4  1  0.27141602  0.56988822  0.58162076  1
  Mn  Mn5  1  0.69491704  0.46775837  0.38171725  1
  Mn  Mn6  1  0.00081110  0.98704267  0.00991726  1
  Mn  Mn7  1  0.79664690  0.99457259  0.60118575  1
  Mn  Mn8  1  0.20154960  0.94558055  0.41193248  1
  Mn  Mn9  1  0.49707137  0.51390867  0.00049222  1
  Sb  Sb10  1  0.89013329  0.00425481  0.44405975  1
  Sb  Sb11  1  0.11108446  0.03528614  0.55683395  1
  Sb  Sb12  1  0.03245078  0.52934841  0.80898597  1
  Sb  Sb13  1  0.96345677  0.50685116  0.18945821  1
  Sb  Sb14  1  0.40222283  0.50638247  0.46959390  1
  Sb  Sb15  1  0.61250316  0.45367958  0.56999918  1
  Sb  Sb16  1  0.53410677  0.99521612  0.82393553  1
  Sb  Sb17  1  0.46618653  0.03104519  0.18362049  1
  S  S18  1  0.93171347  0.98069373  0.79140337  1
  S  S19  1  0.05919548  0.97919717  0.18839681  1
  S  S20  1  0.41582037  0.97439662  0.98984282  1
  S  S21  1  0.57797618  0.03436881  0.01679301  1
  S  S22  1  0.17478262  0.03033396  0.90343376  1
  S  S23  1  0.83333659  0.02463279  0.11899255  1
  S  S24  1  0.08647644  0.49653729  0.65097226  1
  S  S25  1  0.88659990  0.50787729  0.32978333  1
  S  S26  1  0.72968872  0.95811186  0.30259480  1
  S  S27  1  0.26370307  0.94728142  0.68035770  1
  S  S28  1  0.14922879  0.38203213  0.42836042  1
  S  S29  1  0.82781395  0.44194991  0.54228030  1
  S  S30  1  0.44221898  0.49773421  0.81601948  1
  S  S31  1  0.56455290  0.48097523  0.19966561  1
  S  S32  1  0.91943520  0.50543512  0.99063431  1
  S  S33  1  0.09324036  0.57312425  0.01521478  1
  S  S34  1  0.68202765  0.52735992  0.90801968  1
  S  S35  1  0.33648033  0.43510661  0.10395721  1
  S  S36  1  0.60369769  0.95513716  0.67233340  1
  S  S37  1  0.42588805  0.96845545  0.37809158  1
  S  S38  1  0.24822413  0.46224143  0.29754868  1
  S  S39  1  0.76373640  0.40808953  0.68731284  1
  S  S40  1  0.65533379  0.92742505  0.44302875  1
  S  S41  1  0.33652857  0.04027937  0.56146083  1
