# generated using pymatgen
data_Pr2Mn3(SbS3)4
_symmetry_space_group_name_H-M   'P 1'
_cell_length_a   20.02960800
_cell_length_b   3.90410600
_cell_length_c   14.95364829
_cell_angle_alpha   90.00000000
_cell_angle_beta   126.33350609
_cell_angle_gamma   90.00000000
_symmetry_Int_Tables_number   1
_chemical_formula_structural   Pr2Mn3(SbS3)4
_chemical_formula_sum   'Pr4 Mn6 Sb8 S24'
_cell_volume   942.00006694
_cell_formula_units_Z   2
loop_
 _symmetry_equiv_pos_site_id
 _symmetry_equiv_pos_as_xyz
  1  'x, y, z'
loop_
 _atom_site_type_symbol
 _atom_site_label
 _atom_site_symmetry_multiplicity
 _atom_site_fract_x
 _atom_site_fract_y
 _atom_site_fract_z
 _atom_site_occupancy
  Pr  Pr0  1  0.26362110  0.51826951  0.86636227  1
  Pr  Pr1  1  0.72628835  0.55628590  0.12757571  1
  Pr  Pr2  1  0.77135407  0.98115545  0.89295669  1
  Pr  Pr3  1  0.24439130  0.98589310  0.15103421  1
  Mn  Mn4  1  0.27134348  0.57000569  0.58157572  1
  Mn  Mn5  1  0.69517338  0.46855549  0.38220045  1
  Mn  Mn6  1  0.00079696  0.98705438  0.00979917  1
  Mn  Mn7  1  0.79652524  0.99442193  0.60128968  1
  Mn  Mn8  1  0.20166255  0.94514637  0.41187754  1
  Mn  Mn9  1  0.49705657  0.51396407  0.00060204  1
  Sb  Sb10  1  0.89023600  0.00370607  0.44420377  1
  Sb  Sb11  1  0.11101821  0.03586956  0.55659938  1
  Sb  Sb12  1  0.03235174  0.52990614  0.80876046  1
  Sb  Sb13  1  0.96352232  0.50715289  0.18941492  1
  Sb  Sb14  1  0.40218425  0.50587407  0.46957588  1
  Sb  Sb15  1  0.61251498  0.45409691  0.56989328  1
  Sb  Sb16  1  0.53417092  0.99536410  0.82416542  1
  Sb  Sb17  1  0.46613288  0.03099930  0.18341602  1
  S  S18  1  0.93206629  0.98053618  0.79146373  1
  S  S19  1  0.05958920  0.97925292  0.18885858  1
  S  S20  1  0.41615652  0.97437286  0.99008341  1
  S  S21  1  0.57824240  0.03187216  0.01715332  1
  S  S22  1  0.17482233  0.02856086  0.90288696  1
  S  S23  1  0.83348954  0.02696589  0.11928782  1
  S  S24  1  0.08618286  0.49554311  0.65013827  1
  S  S25  1  0.88643183  0.50881055  0.32961715  1
  S  S26  1  0.72958317  0.95944203  0.30261734  1
  S  S27  1  0.26417514  0.94529234  0.68094777  1
  S  S28  1  0.14923748  0.38171432  0.42863205  1
  S  S29  1  0.82775585  0.44321264  0.54225593  1
  S  S30  1  0.44199025  0.49853973  0.81552586  1
  S  S31  1  0.56419067  0.48206722  0.19946866  1
  S  S32  1  0.91962214  0.50551743  0.99106505  1
  S  S33  1  0.09304129  0.57247163  0.01514119  1
  S  S34  1  0.68184788  0.52713540  0.90782094  1
  S  S35  1  0.33669949  0.43746143  0.10428597  1
  S  S36  1  0.60326323  0.95506772  0.67148680  1
  S  S37  1  0.42572801  0.96906278  0.37790815  1
  S  S38  1  0.24809195  0.46309494  0.29753361  1
  S  S39  1  0.76375157  0.40741990  0.68788333  1
  S  S40  1  0.65502145  0.92788484  0.44297014  1
  S  S41  1  0.33668102  0.03979315  0.56150157  1
