# generated using pymatgen
data_Pr2Mn3(SbS3)4
_symmetry_space_group_name_H-M   'P 1'
_cell_length_a   20.02960800
_cell_length_b   3.90410600
_cell_length_c   14.95364829
_cell_angle_alpha   90.00000000
_cell_angle_beta   126.33350609
_cell_angle_gamma   90.00000000
_symmetry_Int_Tables_number   1
_chemical_formula_structural   Pr2Mn3(SbS3)4
_chemical_formula_sum   'Pr4 Mn6 Sb8 S24'
_cell_volume   942.00006694
_cell_formula_units_Z   2
loop_
 _symmetry_equiv_pos_site_id
 _symmetry_equiv_pos_as_xyz
  1  'x, y, z'
loop_
 _atom_site_type_symbol
 _atom_site_label
 _atom_site_symmetry_multiplicity
 _atom_site_fract_x
 _atom_site_fract_y
 _atom_site_fract_z
 _atom_site_occupancy
  Pr  Pr0  1  0.26355082  0.51750750  0.86631895  1
  Pr  Pr1  1  0.72636929  0.55633956  0.12769598  1
  Pr  Pr2  1  0.77142551  0.98212998  0.89315351  1
  Pr  Pr3  1  0.24414775  0.98637946  0.15082326  1
  Mn  Mn4  1  0.27132590  0.57007588  0.58154431  1
  Mn  Mn5  1  0.69538364  0.46949275  0.38265665  1
  Mn  Mn6  1  0.00077946  0.98704097  0.00968158  1
  Mn  Mn7  1  0.79644789  0.99446238  0.60152121  1
  Mn  Mn8  1  0.20185644  0.94450286  0.41210484  1
  Mn  Mn9  1  0.49709717  0.51389132  0.00079089  1
  Sb  Sb10  1  0.89028363  0.00311867  0.44440291  1
  Sb  Sb11  1  0.11092985  0.03636376  0.55638310  1
  Sb  Sb12  1  0.03219219  0.53025552  0.80854603  1
  Sb  Sb13  1  0.96364109  0.50743076  0.18948606  1
  Sb  Sb14  1  0.40217851  0.50539630  0.46960725  1
  Sb  Sb15  1  0.61252866  0.45413664  0.56978387  1
  Sb  Sb16  1  0.53426006  0.99551607  0.82436933  1
  Sb  Sb17  1  0.46609708  0.03082399  0.18322115  1
  S  S18  1  0.93241917  0.97944946  0.79153460  1
  S  S19  1  0.06002261  0.98006065  0.18932454  1
  S  S20  1  0.41647705  0.97465145  0.99026905  1
  S  S21  1  0.57845706  0.02951092  0.01761016  1
  S  S22  1  0.17484195  0.02673995  0.90239238  1
  S  S23  1  0.83354808  0.02897511  0.11945787  1
  S  S24  1  0.08598774  0.49433651  0.64932357  1
  S  S25  1  0.88628201  0.50934644  0.32947124  1
  S  S26  1  0.72949285  0.95956934  0.30269783  1
  S  S27  1  0.26450664  0.94348766  0.68137872  1
  S  S28  1  0.14939621  0.38198056  0.42911676  1
  S  S29  1  0.82766108  0.44364628  0.54239487  1
  S  S30  1  0.44189581  0.49958647  0.81522918  1
  S  S31  1  0.56387159  0.48324446  0.19937559  1
  S  S32  1  0.91986693  0.50527679  0.99149410  1
  S  S33  1  0.09302587  0.57222619  0.01517635  1
  S  S34  1  0.68191022  0.52706151  0.90787796  1
  S  S35  1  0.33677776  0.43948785  0.10441332  1
  S  S36  1  0.60298747  0.95534082  0.67071055  1
  S  S37  1  0.42571994  0.96949014  0.37772972  1
  S  S38  1  0.24806945  0.46416719  0.29747802  1
  S  S39  1  0.76376031  0.40782020  0.68850156  1
  S  S40  1  0.65480141  0.92898199  0.44276781  1
  S  S41  1  0.33685578  0.03892302  0.56155901  1
