# generated using pymatgen
data_Pr2Mn3(SbS3)4
_symmetry_space_group_name_H-M   'P 1'
_cell_length_a   20.02960800
_cell_length_b   3.90410600
_cell_length_c   14.95364829
_cell_angle_alpha   90.00000000
_cell_angle_beta   126.33350609
_cell_angle_gamma   90.00000000
_symmetry_Int_Tables_number   1
_chemical_formula_structural   Pr2Mn3(SbS3)4
_chemical_formula_sum   'Pr4 Mn6 Sb8 S24'
_cell_volume   942.00006694
_cell_formula_units_Z   2
loop_
 _symmetry_equiv_pos_site_id
 _symmetry_equiv_pos_as_xyz
  1  'x, y, z'
loop_
 _atom_site_type_symbol
 _atom_site_label
 _atom_site_symmetry_multiplicity
 _atom_site_fract_x
 _atom_site_fract_y
 _atom_site_fract_z
 _atom_site_occupancy
  Pr  Pr0  1  0.26350117  0.51691848  0.86630922  1
  Pr  Pr1  1  0.72634691  0.55665437  0.12768421  1
  Pr  Pr2  1  0.77156396  0.98300284  0.89334376  1
  Pr  Pr3  1  0.24403154  0.98666335  0.15072157  1
  Mn  Mn4  1  0.27127802  0.57050176  0.58145156  1
  Mn  Mn5  1  0.69551195  0.47011821  0.38305235  1
  Mn  Mn6  1  0.00078024  0.98692172  0.00958494  1
  Mn  Mn7  1  0.79631683  0.99435541  0.60169755  1
  Mn  Mn8  1  0.20204302  0.94368191  0.41237493  1
  Mn  Mn9  1  0.49714416  0.51393024  0.00101752  1
  Sb  Sb10  1  0.89033066  0.00226416  0.44449385  1
  Sb  Sb11  1  0.11076820  0.03694996  0.55616069  1
  Sb  Sb12  1  0.03205635  0.53074554  0.80832442  1
  Sb  Sb13  1  0.96369812  0.50774495  0.18947694  1
  Sb  Sb14  1  0.40214260  0.50491509  0.46957130  1
  Sb  Sb15  1  0.61255033  0.45413016  0.56970599  1
  Sb  Sb16  1  0.53442664  0.99547537  0.82458164  1
  Sb  Sb17  1  0.46610882  0.03076370  0.18308303  1
  S  S18  1  0.93278290  0.97897220  0.79147186  1
  S  S19  1  0.06046082  0.98046216  0.18996081  1
  S  S20  1  0.41673174  0.97571550  0.99039378  1
  S  S21  1  0.57862870  0.02743537  0.01805696  1
  S  S22  1  0.17483482  0.02525999  0.90190531  1
  S  S23  1  0.83341528  0.03069107  0.11956131  1
  S  S24  1  0.08588856  0.49311772  0.64864420  1
  S  S25  1  0.88616730  0.50980099  0.32924181  1
  S  S26  1  0.72937389  0.95942030  0.30270994  1
  S  S27  1  0.26470427  0.94196349  0.68161793  1
  S  S28  1  0.14957833  0.38246104  0.42952693  1
  S  S29  1  0.82761752  0.44431321  0.54251025  1
  S  S30  1  0.44198401  0.50057169  0.81504271  1
  S  S31  1  0.56345307  0.48482451  0.19927763  1
  S  S32  1  0.92009007  0.50490378  0.99196977  1
  S  S33  1  0.09316957  0.57169700  0.01517220  1
  S  S34  1  0.68199510  0.52676490  0.90809041  1
  S  S35  1  0.33690036  0.44103778  0.10464361  1
  S  S36  1  0.60275824  0.95515923  0.66991748  1
  S  S37  1  0.42575889  0.97042225  0.37770000  1
  S  S38  1  0.24803730  0.46522571  0.29747872  1
  S  S39  1  0.76383058  0.40840567  0.68918178  1
  S  S40  1  0.65479246  0.92924407  0.44282705  1
  S  S41  1  0.33699320  0.03834029  0.56150711  1
