# generated using pymatgen
data_Pr2Mn3(SbS3)4
_symmetry_space_group_name_H-M   'P 1'
_cell_length_a   20.02960800
_cell_length_b   3.90410600
_cell_length_c   14.95364829
_cell_angle_alpha   90.00000000
_cell_angle_beta   126.33350609
_cell_angle_gamma   90.00000000
_symmetry_Int_Tables_number   1
_chemical_formula_structural   Pr2Mn3(SbS3)4
_chemical_formula_sum   'Pr4 Mn6 Sb8 S24'
_cell_volume   942.00006694
_cell_formula_units_Z   2
loop_
 _symmetry_equiv_pos_site_id
 _symmetry_equiv_pos_as_xyz
  1  'x, y, z'
loop_
 _atom_site_type_symbol
 _atom_site_label
 _atom_site_symmetry_multiplicity
 _atom_site_fract_x
 _atom_site_fract_y
 _atom_site_fract_z
 _atom_site_occupancy
  Pr  Pr0  1  0.26344080  0.51643747  0.86631267  1
  Pr  Pr1  1  0.72638720  0.55689462  0.12774493  1
  Pr  Pr2  1  0.77165375  0.98347478  0.89344698  1
  Pr  Pr3  1  0.24399494  0.98730516  0.15063215  1
  Mn  Mn4  1  0.27133858  0.57073733  0.58140111  1
  Mn  Mn5  1  0.69568090  0.47036195  0.38335432  1
  Mn  Mn6  1  0.00079523  0.98689167  0.00941106  1
  Mn  Mn7  1  0.79605097  0.99451388  0.60175367  1
  Mn  Mn8  1  0.20235681  0.94285384  0.41257338  1
  Mn  Mn9  1  0.49727672  0.51460341  0.00129776  1
  Sb  Sb10  1  0.89046126  0.00198088  0.44460626  1
  Sb  Sb11  1  0.11054736  0.03724122  0.55595240  1
  Sb  Sb12  1  0.03183410  0.53113466  0.80816849  1
  Sb  Sb13  1  0.96379424  0.50856472  0.18956314  1
  Sb  Sb14  1  0.40210287  0.50483200  0.46953426  1
  Sb  Sb15  1  0.61257358  0.45371774  0.56961352  1
  Sb  Sb16  1  0.53449807  0.99503720  0.82460173  1
  Sb  Sb17  1  0.46608562  0.03044304  0.18299933  1
  S  S18  1  0.93319628  0.97862991  0.79141794  1
  S  S19  1  0.06077984  0.98158429  0.19042133  1
  S  S20  1  0.41692868  0.97696068  0.99058168  1
  S  S21  1  0.57879283  0.02575665  0.01868947  1
  S  S22  1  0.17498449  0.02412777  0.90157765  1
  S  S23  1  0.83324380  0.03230534  0.11953701  1
  S  S24  1  0.08585439  0.49242001  0.64818642  1
  S  S25  1  0.88612394  0.50955752  0.32908069  1
  S  S26  1  0.72921905  0.95859707  0.30279209  1
  S  S27  1  0.26499123  0.94077743  0.68194931  1
  S  S28  1  0.14981608  0.38261708  0.43003798  1
  S  S29  1  0.82763147  0.44515823  0.54256363  1
  S  S30  1  0.44213701  0.50047160  0.81499942  1
  S  S31  1  0.56305848  0.48655505  0.19908412  1
  S  S32  1  0.92029774  0.50398119  0.99247411  1
  S  S33  1  0.09323577  0.57111492  0.01497941  1
  S  S34  1  0.68208354  0.52630375  0.90839872  1
  S  S35  1  0.33697611  0.44249218  0.10475677  1
  S  S36  1  0.60250531  0.95488036  0.66929676  1
  S  S37  1  0.42574894  0.97104001  0.37769509  1
  S  S38  1  0.24796168  0.46612185  0.29738369  1
  S  S39  1  0.76383869  0.40964946  0.68978631  1
  S  S40  1  0.65475300  0.92907809  0.44299022  1
  S  S41  1  0.33720421  0.03726203  0.56147419  1
