# generated using pymatgen
data_Pr2Mn3(SbS3)4
_symmetry_space_group_name_H-M   'P 1'
_cell_length_a   20.02960800
_cell_length_b   3.90410600
_cell_length_c   14.95364829
_cell_angle_alpha   90.00000000
_cell_angle_beta   126.33350609
_cell_angle_gamma   90.00000000
_symmetry_Int_Tables_number   1
_chemical_formula_structural   Pr2Mn3(SbS3)4
_chemical_formula_sum   'Pr4 Mn6 Sb8 S24'
_cell_volume   942.00006694
_cell_formula_units_Z   2
loop_
 _symmetry_equiv_pos_site_id
 _symmetry_equiv_pos_as_xyz
  1  'x, y, z'
loop_
 _atom_site_type_symbol
 _atom_site_label
 _atom_site_symmetry_multiplicity
 _atom_site_fract_x
 _atom_site_fract_y
 _atom_site_fract_z
 _atom_site_occupancy
  Pr  Pr0  1  0.26333131  0.51591714  0.86618866  1
  Pr  Pr1  1  0.72645652  0.55678868  0.12780180  1
  Pr  Pr2  1  0.77170358  0.98417927  0.89353243  1
  Pr  Pr3  1  0.24402511  0.98787063  0.15054324  1
  Mn  Mn4  1  0.27138475  0.57094279  0.58132069  1
  Mn  Mn5  1  0.69589132  0.47050572  0.38371840  1
  Mn  Mn6  1  0.00079366  0.98656761  0.00930003  1
  Mn  Mn7  1  0.79586968  0.99439169  0.60196243  1
  Mn  Mn8  1  0.20264652  0.94202552  0.41282689  1
  Mn  Mn9  1  0.49743502  0.51570045  0.00169448  1
  Sb  Sb10  1  0.89065495  0.00176752  0.44479508  1
  Sb  Sb11  1  0.11034965  0.03720324  0.55575120  1
  Sb  Sb12  1  0.03160304  0.53180432  0.80804104  1
  Sb  Sb13  1  0.96384937  0.50908294  0.18964064  1
  Sb  Sb14  1  0.40221956  0.50490547  0.46955194  1
  Sb  Sb15  1  0.61264293  0.45343307  0.56958686  1
  Sb  Sb16  1  0.53456142  0.99456760  0.82458455  1
  Sb  Sb17  1  0.46605556  0.03045419  0.18293222  1
  S  S18  1  0.93345721  0.97780041  0.79132305  1
  S  S19  1  0.06105454  0.98248779  0.19090015  1
  S  S20  1  0.41709038  0.97776056  0.99056106  1
  S  S21  1  0.57904805  0.02429819  0.01936519  1
  S  S22  1  0.17519851  0.02361023  0.90133633  1
  S  S23  1  0.83313753  0.03446594  0.11934305  1
  S  S24  1  0.08579435  0.49169939  0.64772684  1
  S  S25  1  0.88613524  0.50924960  0.32881450  1
  S  S26  1  0.72912049  0.95814837  0.30301043  1
  S  S27  1  0.26531382  0.93970476  0.68222677  1
  S  S28  1  0.15004178  0.38241865  0.43031951  1
  S  S29  1  0.82736194  0.44594837  0.54242501  1
  S  S30  1  0.44234347  0.50015902  0.81498440  1
  S  S31  1  0.56279711  0.48760055  0.19891541  1
  S  S32  1  0.92056339  0.50265837  0.99299003  1
  S  S33  1  0.09337003  0.57044170  0.01494017  1
  S  S34  1  0.68208883  0.52579826  0.90839636  1
  S  S35  1  0.33696007  0.44344203  0.10494115  1
  S  S36  1  0.60236420  0.95432865  0.66877579  1
  S  S37  1  0.42556001  0.97137926  0.37763262  1
  S  S38  1  0.24790821  0.46721718  0.29741224  1
  S  S39  1  0.76381072  0.41100996  0.69037495  1
  S  S40  1  0.65478454  0.92908324  0.44324939  1
  S  S41  1  0.33721907  0.03631137  0.56135143  1
