# generated using pymatgen
data_Pr2Mn3(SbS3)4
_symmetry_space_group_name_H-M   'P 1'
_cell_length_a   20.02960800
_cell_length_b   3.90410600
_cell_length_c   14.95364829
_cell_angle_alpha   90.00000000
_cell_angle_beta   126.33350609
_cell_angle_gamma   90.00000000
_symmetry_Int_Tables_number   1
_chemical_formula_structural   Pr2Mn3(SbS3)4
_chemical_formula_sum   'Pr4 Mn6 Sb8 S24'
_cell_volume   942.00006694
_cell_formula_units_Z   2
loop_
 _symmetry_equiv_pos_site_id
 _symmetry_equiv_pos_as_xyz
  1  'x, y, z'
loop_
 _atom_site_type_symbol
 _atom_site_label
 _atom_site_symmetry_multiplicity
 _atom_site_fract_x
 _atom_site_fract_y
 _atom_site_fract_z
 _atom_site_occupancy
  Pr  Pr0  1  0.25979047  0.49950921  0.86298940  1
  Pr  Pr1  1  0.74050057  0.49947973  0.13723189  1
  Pr  Pr2  1  0.75979524  0.00134358  0.86273067  1
  Pr  Pr3  1  0.24032657  0.99899331  0.13727486  1
  Mn  Mn4  1  0.30082993  0.50137316  0.62092174  1
  Mn  Mn5  1  0.69906290  0.50001978  0.37939625  1
  Mn  Mn6  1  0.99973249  0.99986585  0.99994147  1
  Mn  Mn7  1  0.80088570  0.00027215  0.62029276  1
  Mn  Mn8  1  0.19930955  0.99864446  0.37970940  1
  Mn  Mn9  1  0.49993645  0.49829865  0.00033995  1
  Sb  Sb10  1  0.89377573  0.99965461  0.45233328  1
  Sb  Sb11  1  0.10655746  0.99998354  0.54812260  1
  Sb  Sb12  1  0.03850944  0.49876077  0.81463847  1
  Sb  Sb13  1  0.96179759  0.49883809  0.18564015  1
  Sb  Sb14  1  0.39377252  0.49962654  0.45268624  1
  Sb  Sb15  1  0.60612658  0.49940422  0.54746874  1
  Sb  Sb16  1  0.53873609  0.99946404  0.81486824  1
  Sb  Sb17  1  0.46176325  0.99938905  0.18553936  1
  S  S18  1  0.94165692  0.99904655  0.80162931  1
  S  S19  1  0.05824564  0.99935214  0.19766725  1
  S  S20  1  0.40069261  0.99821796  0.97945589  1
  S  S21  1  0.59969667  0.00009746  0.02096180  1
  S  S22  1  0.16759237  0.99850632  0.89527488  1
  S  S23  1  0.83172792  0.99999095  0.10415453  1
  S  S24  1  0.08912779  0.50018992  0.65047099  1
  S  S25  1  0.91119550  0.49918426  0.35019003  1
  S  S26  1  0.74272962  0.99802162  0.29338491  1
  S  S27  1  0.25736889  0.00114679  0.70672238  1
  S  S28  1  0.15717170  0.49852269  0.45222118  1
  S  S29  1  0.84320465  0.50031405  0.54799127  1
  S  S30  1  0.44209748  0.49930565  0.80186983  1
  S  S31  1  0.55841790  0.50046348  0.19812533  1
  S  S32  1  0.90076482  0.49874050  0.97915752  1
  S  S33  1  0.09974747  0.49795734  0.02139958  1
  S  S34  1  0.66731605  0.50102137  0.89498738  1
  S  S35  1  0.33318022  0.49965848  0.10575006  1
  S  S36  1  0.58855310  0.00068750  0.64940175  1
  S  S37  1  0.41144956  0.99871341  0.35026537  1
  S  S38  1  0.24308372  0.49806275  0.29327209  1
  S  S39  1  0.75768446  0.49939100  0.70750918  1
  S  S40  1  0.65689929  0.99935441  0.45239717  1
  S  S41  1  0.34293652  0.99913449  0.54736451  1
