# generated using pymatgen
data_Pr2Mn3(SbS3)4
_symmetry_space_group_name_H-M   'P 1'
_cell_length_a   20.02960800
_cell_length_b   3.90410600
_cell_length_c   14.95364829
_cell_angle_alpha   90.00000000
_cell_angle_beta   126.33350609
_cell_angle_gamma   90.00000000
_symmetry_Int_Tables_number   1
_chemical_formula_structural   Pr2Mn3(SbS3)4
_chemical_formula_sum   'Pr4 Mn6 Sb8 S24'
_cell_volume   942.00006694
_cell_formula_units_Z   2
loop_
 _symmetry_equiv_pos_site_id
 _symmetry_equiv_pos_as_xyz
  1  'x, y, z'
loop_
 _atom_site_type_symbol
 _atom_site_label
 _atom_site_symmetry_multiplicity
 _atom_site_fract_x
 _atom_site_fract_y
 _atom_site_fract_z
 _atom_site_occupancy
  Pr  Pr0  1  0.26160996  0.49554177  0.86576442  1
  Pr  Pr1  1  0.74000850  0.50253447  0.13726959  1
  Pr  Pr2  1  0.76042924  0.00685838  0.86179533  1
  Pr  Pr3  1  0.23998459  0.99259629  0.13835559  1
  Mn  Mn4  1  0.29945743  0.50535497  0.62034745  1
  Mn  Mn5  1  0.69730768  0.49766852  0.37956256  1
  Mn  Mn6  1  0.00114865  0.99938937  0.00152246  1
  Mn  Mn7  1  0.80284192  0.99414662  0.61916034  1
  Mn  Mn8  1  0.19919850  0.99134474  0.37908872  1
  Mn  Mn9  1  0.49996834  0.48550420  0.00099076  1
  Sb  Sb10  1  0.89499219  0.00673386  0.45422922  1
  Sb  Sb11  1  0.10664177  0.99222284  0.54980450  1
  Sb  Sb12  1  0.03782470  0.49166401  0.81403578  1
  Sb  Sb13  1  0.96256340  0.49893080  0.18806411  1
  Sb  Sb14  1  0.39446929  0.49057609  0.45543904  1
  Sb  Sb15  1  0.60595671  0.49679847  0.54819372  1
  Sb  Sb16  1  0.53808866  0.99947660  0.81418607  1
  Sb  Sb17  1  0.46298095  0.99905228  0.18490152  1
  S  S18  1  0.93888424  0.99237448  0.79743723  1
  S  S19  1  0.05752311  0.99184686  0.19374984  1
  S  S20  1  0.40282084  0.97989609  0.98008381  1
  S  S21  1  0.59772578  0.99497405  0.01816560  1
  S  S22  1  0.16882106  0.98733219  0.90008769  1
  S  S23  1  0.82815358  0.00348914  0.10440697  1
  S  S24  1  0.08849997  0.49132244  0.64796258  1
  S  S25  1  0.91027802  0.48401269  0.35018891  1
  S  S26  1  0.74417231  0.97823337  0.29619574  1
  S  S27  1  0.25570047  0.00944160  0.70045086  1
  S  S28  1  0.15907268  0.49382512  0.44820676  1
  S  S29  1  0.83565569  0.49675251  0.54671385  1
  S  S30  1  0.43911858  0.49602456  0.79820166  1
  S  S31  1  0.56118588  0.49112934  0.19924560  1
  S  S32  1  0.90246193  0.48225197  0.97837856  1
  S  S33  1  0.09405809  0.48835517  0.01922232  1
  S  S34  1  0.66541696  0.51360888  0.89562699  1
  S  S35  1  0.33414402  0.50379146  0.10715220  1
  S  S36  1  0.58984567  0.01658826  0.64795847  1
  S  S37  1  0.41362578  0.99092817  0.35722372  1
  S  S38  1  0.24308400  0.47995409  0.29210824  1
  S  S39  1  0.76301514  0.50109172  0.70629063  1
  S  S40  1  0.65980907  0.00046984  0.45711419  1
  S  S41  1  0.34015187  0.99066201  0.54456510  1
