# generated using pymatgen
data_Pr2Mn3(SbS3)4
_symmetry_space_group_name_H-M   'P 1'
_cell_length_a   20.02960800
_cell_length_b   3.90410600
_cell_length_c   14.95364829
_cell_angle_alpha   90.00000000
_cell_angle_beta   126.33350609
_cell_angle_gamma   90.00000000
_symmetry_Int_Tables_number   1
_chemical_formula_structural   Pr2Mn3(SbS3)4
_chemical_formula_sum   'Pr4 Mn6 Sb8 S24'
_cell_volume   942.00006694
_cell_formula_units_Z   2
loop_
 _symmetry_equiv_pos_site_id
 _symmetry_equiv_pos_as_xyz
  1  'x, y, z'
loop_
 _atom_site_type_symbol
 _atom_site_label
 _atom_site_symmetry_multiplicity
 _atom_site_fract_x
 _atom_site_fract_y
 _atom_site_fract_z
 _atom_site_occupancy
  Pr  Pr0  1  0.26971217  0.49756496  0.86651781  1
  Pr  Pr1  1  0.73366324  0.50899524  0.13353044  1
  Pr  Pr2  1  0.76305184  0.02376262  0.86120903  1
  Pr  Pr3  1  0.23393005  0.99625296  0.13181996  1
  Mn  Mn4  1  0.29302123  0.47556404  0.59613636  1
  Mn  Mn5  1  0.68621186  0.46436486  0.36515004  1
  Mn  Mn6  1  0.00655135  0.99181786  0.01308305  1
  Mn  Mn7  1  0.79923282  0.00543393  0.61903841  1
  Mn  Mn8  1  0.19787461  0.97567267  0.37105473  1
  Mn  Mn9  1  0.48808147  0.46651612  0.98712601  1
  Sb  Sb10  1  0.88969444  0.98553701  0.45182184  1
  Sb  Sb11  1  0.10947798  0.97774934  0.54430143  1
  Sb  Sb12  1  0.03503672  0.52119023  0.81854933  1
  Sb  Sb13  1  0.96499012  0.49942942  0.18925732  1
  Sb  Sb14  1  0.39297313  0.49826868  0.44855102  1
  Sb  Sb15  1  0.60574562  0.47148808  0.54831628  1
  Sb  Sb16  1  0.53374330  0.98571494  0.80863201  1
  Sb  Sb17  1  0.46521462  0.02207936  0.19109997  1
  S  S18  1  0.93749737  0.02090815  0.80811831  1
  S  S19  1  0.06401829  0.98487979  0.19857731  1
  S  S20  1  0.42129203  0.95774840  0.99260722  1
  S  S21  1  0.58362802  0.03120712  0.01279156  1
  S  S22  1  0.17137886  0.05621307  0.90060615  1
  S  S23  1  0.82830912  0.05161447  0.10301368  1
  S  S24  1  0.09107175  0.50487395  0.64739671  1
  S  S25  1  0.91547660  0.48400397  0.35897360  1
  S  S26  1  0.73597339  0.97544197  0.29895937  1
  S  S27  1  0.26097961  0.00154069  0.71040179  1
  S  S28  1  0.16443446  0.51634967  0.43067314  1
  S  S29  1  0.81833822  0.48101144  0.54670107  1
  S  S30  1  0.43144456  0.47675235  0.79609853  1
  S  S31  1  0.55429651  0.51963793  0.18104655  1
  S  S32  1  0.91652991  0.49082249  0.98960183  1
  S  S33  1  0.08981053  0.49551761  0.03238444  1
  S  S34  1  0.66429070  0.54910084  0.89286831  1
  S  S35  1  0.32644101  0.50035416  0.09300796  1
  S  S36  1  0.59631104  0.00341307  0.65501860  1
  S  S37  1  0.40060814  0.98072155  0.34425009  1
  S  S38  1  0.24285695  0.46903909  0.31579503  1
  S  S39  1  0.76012834  0.52327252  0.68829393  1
  S  S40  1  0.66516763  0.00250578  0.44984218  1
  S  S41  1  0.33088321  0.98421266  0.55508665  1
