# generated using pymatgen
data_Pr2Mn3(SbS3)4
_symmetry_space_group_name_H-M   'P 1'
_cell_length_a   20.02960800
_cell_length_b   3.90410600
_cell_length_c   14.95364829
_cell_angle_alpha   90.00000000
_cell_angle_beta   126.33350609
_cell_angle_gamma   90.00000000
_symmetry_Int_Tables_number   1
_chemical_formula_structural   Pr2Mn3(SbS3)4
_chemical_formula_sum   'Pr4 Mn6 Sb8 S24'
_cell_volume   942.00006694
_cell_formula_units_Z   2
loop_
 _symmetry_equiv_pos_site_id
 _symmetry_equiv_pos_as_xyz
  1  'x, y, z'
loop_
 _atom_site_type_symbol
 _atom_site_label
 _atom_site_symmetry_multiplicity
 _atom_site_fract_x
 _atom_site_fract_y
 _atom_site_fract_z
 _atom_site_occupancy
  Pr  Pr0  1  0.26316708  0.51557778  0.86601418  1
  Pr  Pr1  1  0.72645956  0.55679617  0.12784696  1
  Pr  Pr2  1  0.77171314  0.98467681  0.89352099  1
  Pr  Pr3  1  0.24401916  0.98858349  0.15043768  1
  Mn  Mn4  1  0.27141130  0.57132919  0.58122197  1
  Mn  Mn5  1  0.69605831  0.47075043  0.38387036  1
  Mn  Mn6  1  0.00062473  0.98631299  0.00911670  1
  Mn  Mn7  1  0.79561552  0.99437929  0.60200620  1
  Mn  Mn8  1  0.20283388  0.94131148  0.41303546  1
  Mn  Mn9  1  0.49752393  0.51681999  0.00200514  1
  Sb  Sb10  1  0.89073686  0.00165001  0.44483351  1
  Sb  Sb11  1  0.11018743  0.03723331  0.55566197  1
  Sb  Sb12  1  0.03144515  0.53201562  0.80801414  1
  Sb  Sb13  1  0.96392745  0.50961436  0.18964789  1
  Sb  Sb14  1  0.40231124  0.50509202  0.46956850  1
  Sb  Sb15  1  0.61273231  0.45342386  0.56957008  1
  Sb  Sb16  1  0.53461730  0.99437921  0.82455422  1
  Sb  Sb17  1  0.46608219  0.03021558  0.18294362  1
  S  S18  1  0.93364645  0.97675952  0.79116900  1
  S  S19  1  0.06129453  0.98371853  0.19125400  1
  S  S20  1  0.41720673  0.97830448  0.99050904  1
  S  S21  1  0.57930390  0.02327216  0.01997717  1
  S  S22  1  0.17530251  0.02257726  0.90099012  1
  S  S23  1  0.83306861  0.03656199  0.11903853  1
  S  S24  1  0.08573276  0.49054021  0.64723386  1
  S  S25  1  0.88616561  0.50889467  0.32856907  1
  S  S26  1  0.72884876  0.95757283  0.30304305  1
  S  S27  1  0.26566771  0.93935521  0.68248843  1
  S  S28  1  0.15023330  0.38264080  0.43066929  1
  S  S29  1  0.82704914  0.44687578  0.54214730  1
  S  S30  1  0.44248614  0.50019683  0.81496955  1
  S  S31  1  0.56261572  0.48891724  0.19879094  1
  S  S32  1  0.92080718  0.50212365  0.99341054  1
  S  S33  1  0.09354527  0.57002342  0.01489228  1
  S  S34  1  0.68224048  0.52559671  0.90847365  1
  S  S35  1  0.33694846  0.44367597  0.10501167  1
  S  S36  1  0.60224769  0.95403762  0.66847340  1
  S  S37  1  0.42537126  0.97123354  0.37758372  1
  S  S38  1  0.24782879  0.46736716  0.29725222  1
  S  S39  1  0.76382634  0.41202637  0.69097595  1
  S  S40  1  0.65496925  0.92892412  0.44356620  1
  S  S41  1  0.33718081  0.03536372  0.56119472  1
