# generated using pymatgen
data_Pr2Mn3(SbS3)4
_symmetry_space_group_name_H-M   'P 1'
_cell_length_a   20.02960800
_cell_length_b   3.90410600
_cell_length_c   14.95364829
_cell_angle_alpha   90.00000000
_cell_angle_beta   126.33350609
_cell_angle_gamma   90.00000000
_symmetry_Int_Tables_number   1
_chemical_formula_structural   Pr2Mn3(SbS3)4
_chemical_formula_sum   'Pr4 Mn6 Sb8 S24'
_cell_volume   942.00006694
_cell_formula_units_Z   2
loop_
 _symmetry_equiv_pos_site_id
 _symmetry_equiv_pos_as_xyz
  1  'x, y, z'
loop_
 _atom_site_type_symbol
 _atom_site_label
 _atom_site_symmetry_multiplicity
 _atom_site_fract_x
 _atom_site_fract_y
 _atom_site_fract_z
 _atom_site_occupancy
  Pr  Pr0  1  0.26297220  0.51532371  0.86584758  1
  Pr  Pr1  1  0.72647423  0.55680465  0.12786688  1
  Pr  Pr2  1  0.77174073  0.98506466  0.89349754  1
  Pr  Pr3  1  0.24403783  0.98912435  0.15031980  1
  Mn  Mn4  1  0.27148379  0.57168382  0.58126771  1
  Mn  Mn5  1  0.69618906  0.47097015  0.38394619  1
  Mn  Mn6  1  0.00045569  0.98640076  0.00898730  1
  Mn  Mn7  1  0.79545410  0.99426841  0.60204036  1
  Mn  Mn8  1  0.20300943  0.94069564  0.41312031  1
  Mn  Mn9  1  0.49763742  0.51775185  0.00232418  1
  Sb  Sb10  1  0.89081536  0.00171866  0.44487694  1
  Sb  Sb11  1  0.11002450  0.03716581  0.55563839  1
  Sb  Sb12  1  0.03129475  0.53191318  0.80796312  1
  Sb  Sb13  1  0.96400528  0.50997699  0.18968980  1
  Sb  Sb14  1  0.40241849  0.50508695  0.46959584  1
  Sb  Sb15  1  0.61284926  0.45342325  0.56961724  1
  Sb  Sb16  1  0.53467070  0.99422238  0.82451118  1
  Sb  Sb17  1  0.46604177  0.03008160  0.18293575  1
  S  S18  1  0.93376129  0.97604578  0.79095761  1
  S  S19  1  0.06141804  0.98491860  0.19146285  1
  S  S20  1  0.41721201  0.97850321  0.99027920  1
  S  S21  1  0.57963333  0.02219192  0.02057902  1
  S  S22  1  0.17541734  0.02201273  0.90061718  1
  S  S23  1  0.83280143  0.03938592  0.11856555  1
  S  S24  1  0.08574134  0.48928013  0.64700029  1
  S  S25  1  0.88629916  0.50885383  0.32836152  1
  S  S26  1  0.72865726  0.95724294  0.30311259  1
  S  S27  1  0.26596568  0.93868347  0.68275924  1
  S  S28  1  0.15058618  0.38278838  0.43102366  1
  S  S29  1  0.82673583  0.44729191  0.54192764  1
  S  S30  1  0.44241152  0.49988297  0.81463265  1
  S  S31  1  0.56248573  0.48987726  0.19853155  1
  S  S32  1  0.92098838  0.50135396  0.99375024  1
  S  S33  1  0.09365263  0.56968735  0.01465771  1
  S  S34  1  0.68238974  0.52525022  0.90850371  1
  S  S35  1  0.33690839  0.44458644  0.10501490  1
  S  S36  1  0.60202800  0.95350475  0.66789347  1
  S  S37  1  0.42522832  0.97059542  0.37745796  1
  S  S38  1  0.24786695  0.46726758  0.29713861  1
  S  S39  1  0.76382284  0.41338977  0.69158353  1
  S  S40  1  0.65495139  0.92931331  0.44359307  1
  S  S41  1  0.33717226  0.03466890  0.56120831  1
