# generated using pymatgen
data_Pr2Mn3(SbS3)4
_symmetry_space_group_name_H-M   'P 1'
_cell_length_a   20.02960800
_cell_length_b   3.90410600
_cell_length_c   14.95364829
_cell_angle_alpha   90.00000000
_cell_angle_beta   126.33350609
_cell_angle_gamma   90.00000000
_symmetry_Int_Tables_number   1
_chemical_formula_structural   Pr2Mn3(SbS3)4
_chemical_formula_sum   'Pr4 Mn6 Sb8 S24'
_cell_volume   942.00006694
_cell_formula_units_Z   2
loop_
 _symmetry_equiv_pos_site_id
 _symmetry_equiv_pos_as_xyz
  1  'x, y, z'
loop_
 _atom_site_type_symbol
 _atom_site_label
 _atom_site_symmetry_multiplicity
 _atom_site_fract_x
 _atom_site_fract_y
 _atom_site_fract_z
 _atom_site_occupancy
  Pr  Pr0  1  0.26275329  0.51524569  0.86562139  1
  Pr  Pr1  1  0.72642469  0.55685330  0.12792941  1
  Pr  Pr2  1  0.77174971  0.98572680  0.89342239  1
  Pr  Pr3  1  0.24405880  0.98938431  0.15023238  1
  Mn  Mn4  1  0.27152180  0.57179087  0.58126860  1
  Mn  Mn5  1  0.69621899  0.47077118  0.38391709  1
  Mn  Mn6  1  0.00029006  0.98694089  0.00888982  1
  Mn  Mn7  1  0.79517600  0.99397991  0.60191733  1
  Mn  Mn8  1  0.20315295  0.94017306  0.41312371  1
  Mn  Mn9  1  0.49769454  0.51859346  0.00249088  1
  Sb  Sb10  1  0.89095669  0.00177121  0.44503598  1
  Sb  Sb11  1  0.10988530  0.03684513  0.55557594  1
  Sb  Sb12  1  0.03114218  0.53153662  0.80791634  1
  Sb  Sb13  1  0.96402725  0.51039223  0.18963359  1
  Sb  Sb14  1  0.40251768  0.50506617  0.46957523  1
  Sb  Sb15  1  0.61289683  0.45345792  0.56962575  1
  Sb  Sb16  1  0.53482083  0.99406420  0.82459842  1
  Sb  Sb17  1  0.46598197  0.03006917  0.18293002  1
  S  S18  1  0.93380071  0.97581052  0.79069462  1
  S  S19  1  0.06152997  0.98587074  0.19155250  1
  S  S20  1  0.41735927  0.97867243  0.99012595  1
  S  S21  1  0.57993781  0.02159272  0.02113768  1
  S  S22  1  0.17553604  0.02069906  0.90028376  1
  S  S23  1  0.83253356  0.04222827  0.11820805  1
  S  S24  1  0.08586167  0.48865801  0.64685882  1
  S  S25  1  0.88642865  0.50925683  0.32823059  1
  S  S26  1  0.72844646  0.95651784  0.30312204  1
  S  S27  1  0.26615786  0.93867427  0.68299627  1
  S  S28  1  0.15108088  0.38302433  0.43144765  1
  S  S29  1  0.82648364  0.44681771  0.54161086  1
  S  S30  1  0.44245368  0.49943170  0.81440855  1
  S  S31  1  0.56234511  0.48997358  0.19832881  1
  S  S32  1  0.92127876  0.50142110  0.99399406  1
  S  S33  1  0.09367250  0.56924812  0.01433622  1
  S  S34  1  0.68258728  0.52493484  0.90860015  1
  S  S35  1  0.33689647  0.44525914  0.10494177  1
  S  S36  1  0.60188649  0.95326039  0.66740904  1
  S  S37  1  0.42516039  0.97004772  0.37726653  1
  S  S38  1  0.24796198  0.46702163  0.29711382  1
  S  S39  1  0.76383477  0.41507240  0.69224259  1
  S  S40  1  0.65495260  0.93065197  0.44340159  1
  S  S41  1  0.33706617  0.03379505  0.56107738  1
