# generated using pymatgen
data_Pr2Mn3(SbS3)4
_symmetry_space_group_name_H-M   'P 1'
_cell_length_a   20.02960800
_cell_length_b   3.90410600
_cell_length_c   14.95364829
_cell_angle_alpha   90.00000000
_cell_angle_beta   126.33350609
_cell_angle_gamma   90.00000000
_symmetry_Int_Tables_number   1
_chemical_formula_structural   Pr2Mn3(SbS3)4
_chemical_formula_sum   'Pr4 Mn6 Sb8 S24'
_cell_volume   942.00006694
_cell_formula_units_Z   2
loop_
 _symmetry_equiv_pos_site_id
 _symmetry_equiv_pos_as_xyz
  1  'x, y, z'
loop_
 _atom_site_type_symbol
 _atom_site_label
 _atom_site_symmetry_multiplicity
 _atom_site_fract_x
 _atom_site_fract_y
 _atom_site_fract_z
 _atom_site_occupancy
  Pr  Pr0  1  0.26258291  0.51494049  0.86542279  1
  Pr  Pr1  1  0.72646553  0.55653082  0.12800261  1
  Pr  Pr2  1  0.77170864  0.98626161  0.89330495  1
  Pr  Pr3  1  0.24404946  0.98972418  0.15015660  1
  Mn  Mn4  1  0.27149409  0.57193190  0.58106627  1
  Mn  Mn5  1  0.69625396  0.47026497  0.38381931  1
  Mn  Mn6  1  0.00021538  0.98756516  0.00871668  1
  Mn  Mn7  1  0.79495259  0.99378829  0.60178472  1
  Mn  Mn8  1  0.20327560  0.93965654  0.41316612  1
  Mn  Mn9  1  0.49775700  0.51889618  0.00259840  1
  Sb  Sb10  1  0.89108096  0.00199463  0.44517013  1
  Sb  Sb11  1  0.10973322  0.03637209  0.55546409  1
  Sb  Sb12  1  0.03100734  0.53095097  0.80790976  1
  Sb  Sb13  1  0.96406619  0.51087908  0.18955268  1
  Sb  Sb14  1  0.40264481  0.50509360  0.46959078  1
  Sb  Sb15  1  0.61294056  0.45347141  0.56956057  1
  Sb  Sb16  1  0.53494378  0.99402116  0.82467208  1
  Sb  Sb17  1  0.46591946  0.02981724  0.18288009  1
  S  S18  1  0.93390809  0.97535331  0.79038298  1
  S  S19  1  0.06159126  0.98740172  0.19154960  1
  S  S20  1  0.41753397  0.97891125  0.99001081  1
  S  S21  1  0.58013079  0.02124927  0.02152619  1
  S  S22  1  0.17569647  0.01990261  0.90015825  1
  S  S23  1  0.83237105  0.04526813  0.11804148  1
  S  S24  1  0.08609294  0.48807459  0.64691466  1
  S  S25  1  0.88649097  0.50982714  0.32801515  1
  S  S26  1  0.72818327  0.95593132  0.30304928  1
  S  S27  1  0.26631251  0.93854399  0.68329508  1
  S  S28  1  0.15159328  0.38346858  0.43208409  1
  S  S29  1  0.82627141  0.44634252  0.54125191  1
  S  S30  1  0.44258711  0.49914704  0.81420312  1
  S  S31  1  0.56219856  0.48996728  0.19801401  1
  S  S32  1  0.92149700  0.50127175  0.99430195  1
  S  S33  1  0.09372894  0.56881546  0.01413030  1
  S  S34  1  0.68282937  0.52480837  0.90887744  1
  S  S35  1  0.33698086  0.44670635  0.10489688  1
  S  S36  1  0.60171613  0.95296481  0.66685707  1
  S  S37  1  0.42500857  0.96979485  0.37673263  1
  S  S38  1  0.24803117  0.46707989  0.29705086  1
  S  S39  1  0.76400154  0.41697400  0.69304735  1
  S  S40  1  0.65495948  0.93211507  0.44307392  1
  S  S41  1  0.33684925  0.03264172  0.56084793  1
