# generated using pymatgen
data_Pr2Mn3(SbS3)4
_symmetry_space_group_name_H-M   'P 1'
_cell_length_a   20.02960800
_cell_length_b   3.90410600
_cell_length_c   14.95364829
_cell_angle_alpha   90.00000000
_cell_angle_beta   126.33350609
_cell_angle_gamma   90.00000000
_symmetry_Int_Tables_number   1
_chemical_formula_structural   Pr2Mn3(SbS3)4
_chemical_formula_sum   'Pr4 Mn6 Sb8 S24'
_cell_volume   942.00006694
_cell_formula_units_Z   2
loop_
 _symmetry_equiv_pos_site_id
 _symmetry_equiv_pos_as_xyz
  1  'x, y, z'
loop_
 _atom_site_type_symbol
 _atom_site_label
 _atom_site_symmetry_multiplicity
 _atom_site_fract_x
 _atom_site_fract_y
 _atom_site_fract_z
 _atom_site_occupancy
  Pr  Pr0  1  0.26244200  0.51447192  0.86523877  1
  Pr  Pr1  1  0.72652844  0.55635068  0.12801707  1
  Pr  Pr2  1  0.77162405  0.98678685  0.89319193  1
  Pr  Pr3  1  0.24406643  0.99005581  0.15014857  1
  Mn  Mn4  1  0.27153563  0.57255206  0.58091536  1
  Mn  Mn5  1  0.69627879  0.46995009  0.38358111  1
  Mn  Mn6  1  0.00011747  0.98846766  0.00845073  1
  Mn  Mn7  1  0.79467204  0.99326400  0.60152603  1
  Mn  Mn8  1  0.20346071  0.93921651  0.41332857  1
  Mn  Mn9  1  0.49782507  0.51885424  0.00267558  1
  Sb  Sb10  1  0.89114814  0.00177199  0.44525361  1
  Sb  Sb11  1  0.10965762  0.03598268  0.55538556  1
  Sb  Sb12  1  0.03093336  0.53011398  0.80797333  1
  Sb  Sb13  1  0.96409379  0.51131931  0.18948876  1
  Sb  Sb14  1  0.40275700  0.50480278  0.46970858  1
  Sb  Sb15  1  0.61299008  0.45329854  0.56946222  1
  Sb  Sb16  1  0.53513386  0.99412412  0.82480257  1
  Sb  Sb17  1  0.46582278  0.02910940  0.18287430  1
  S  S18  1  0.93399114  0.97501624  0.79016546  1
  S  S19  1  0.06158583  0.98932264  0.19139694  1
  S  S20  1  0.41776289  0.97927644  0.99024318  1
  S  S21  1  0.58019868  0.02095546  0.02178241  1
  S  S22  1  0.17586513  0.01980039  0.89998153  1
  S  S23  1  0.83227304  0.04787805  0.11799536  1
  S  S24  1  0.08624215  0.48780450  0.64711541  1
  S  S25  1  0.88677463  0.51044586  0.32793597  1
  S  S26  1  0.72806406  0.95562111  0.30291813  1
  S  S27  1  0.26657827  0.93900162  0.68358413  1
  S  S28  1  0.15218566  0.38401818  0.43270036  1
  S  S29  1  0.82600751  0.44546248  0.54099310  1
  S  S30  1  0.44264342  0.49876241  0.81393192  1
  S  S31  1  0.56205437  0.49040089  0.19749510  1
  S  S32  1  0.92163926  0.50176378  0.99443628  1
  S  S33  1  0.09371807  0.56807072  0.01387024  1
  S  S34  1  0.68303775  0.52497833  0.90896316  1
  S  S35  1  0.33695395  0.44775404  0.10475837  1
  S  S36  1  0.60167845  0.95292778  0.66658810  1
  S  S37  1  0.42489333  0.96942067  0.37655537  1
  S  S38  1  0.24808171  0.46671752  0.29698607  1
  S  S39  1  0.76438317  0.41844940  0.69388048  1
  S  S40  1  0.65495761  0.93359800  0.44282767  1
  S  S41  1  0.33655502  0.03113743  0.56059152  1
