# generated using pymatgen
data_Pr2Mn3(SbS3)4
_symmetry_space_group_name_H-M   'P 1'
_cell_length_a   20.02960800
_cell_length_b   3.90410600
_cell_length_c   14.95364829
_cell_angle_alpha   90.00000000
_cell_angle_beta   126.33350609
_cell_angle_gamma   90.00000000
_symmetry_Int_Tables_number   1
_chemical_formula_structural   Pr2Mn3(SbS3)4
_chemical_formula_sum   'Pr4 Mn6 Sb8 S24'
_cell_volume   942.00006694
_cell_formula_units_Z   2
loop_
 _symmetry_equiv_pos_site_id
 _symmetry_equiv_pos_as_xyz
  1  'x, y, z'
loop_
 _atom_site_type_symbol
 _atom_site_label
 _atom_site_symmetry_multiplicity
 _atom_site_fract_x
 _atom_site_fract_y
 _atom_site_fract_z
 _atom_site_occupancy
  Pr  Pr0  1  0.26235901  0.51412741  0.86513635  1
  Pr  Pr1  1  0.72656346  0.55632505  0.12802700  1
  Pr  Pr2  1  0.77147977  0.98721241  0.89305051  1
  Pr  Pr3  1  0.24404639  0.99061377  0.15002758  1
  Mn  Mn4  1  0.27150588  0.57280444  0.58066309  1
  Mn  Mn5  1  0.69626804  0.46940645  0.38329701  1
  Mn  Mn6  1  0.99998892  0.98982341  0.00818900  1
  Mn  Mn7  1  0.79429674  0.99262307  0.60127710  1
  Mn  Mn8  1  0.20368930  0.93888405  0.41360770  1
  Mn  Mn9  1  0.49791411  0.51919284  0.00264837  1
  Sb  Sb10  1  0.89114558  0.00133241  0.44533707  1
  Sb  Sb11  1  0.10951350  0.03607498  0.55515935  1
  Sb  Sb12  1  0.03089464  0.52961172  0.80800759  1
  Sb  Sb13  1  0.96415050  0.51168626  0.18944736  1
  Sb  Sb14  1  0.40291685  0.50442326  0.46996994  1
  Sb  Sb15  1  0.61307755  0.45308421  0.56934771  1
  Sb  Sb16  1  0.53523004  0.99448104  0.82489378  1
  Sb  Sb17  1  0.46584755  0.02856914  0.18302979  1
  S  S18  1  0.93399034  0.97472024  0.78990740  1
  S  S19  1  0.06153772  0.99104104  0.19141682  1
  S  S20  1  0.41780764  0.97896327  0.99007214  1
  S  S21  1  0.58029996  0.02033299  0.02174210  1
  S  S22  1  0.17614607  0.01943986  0.89976594  1
  S  S23  1  0.83214258  0.04979952  0.11791850  1
  S  S24  1  0.08647480  0.48754533  0.64726889  1
  S  S25  1  0.88721152  0.51158047  0.32792661  1
  S  S26  1  0.72800907  0.95524435  0.30307096  1
  S  S27  1  0.26677181  0.93949147  0.68383212  1
  S  S28  1  0.15289870  0.38350136  0.43340937  1
  S  S29  1  0.82597366  0.44527935  0.54076506  1
  S  S30  1  0.44269282  0.49861248  0.81368560  1
  S  S31  1  0.56181494  0.49015222  0.19687877  1
  S  S32  1  0.92152549  0.50270835  0.99430736  1
  S  S33  1  0.09372341  0.56758563  0.01365523  1
  S  S34  1  0.68316786  0.52476521  0.90904149  1
  S  S35  1  0.33711960  0.44833911  0.10487756  1
  S  S36  1  0.60159592  0.95318390  0.66619320  1
  S  S37  1  0.42482960  0.96809069  0.37631800  1
  S  S38  1  0.24827468  0.46636507  0.29694897  1
  S  S39  1  0.76474894  0.41977425  0.69468392  1
  S  S40  1  0.65507563  0.93546911  0.44273284  1
  S  S41  1  0.33637441  0.02886138  0.56040241  1
