# generated using pymatgen
data_Pr2Mn3(SbS3)4
_symmetry_space_group_name_H-M   'P 1'
_cell_length_a   20.02960800
_cell_length_b   3.90410600
_cell_length_c   14.95364829
_cell_angle_alpha   90.00000000
_cell_angle_beta   126.33350609
_cell_angle_gamma   90.00000000
_symmetry_Int_Tables_number   1
_chemical_formula_structural   Pr2Mn3(SbS3)4
_chemical_formula_sum   'Pr4 Mn6 Sb8 S24'
_cell_volume   942.00006694
_cell_formula_units_Z   2
loop_
 _symmetry_equiv_pos_site_id
 _symmetry_equiv_pos_as_xyz
  1  'x, y, z'
loop_
 _atom_site_type_symbol
 _atom_site_label
 _atom_site_symmetry_multiplicity
 _atom_site_fract_x
 _atom_site_fract_y
 _atom_site_fract_z
 _atom_site_occupancy
  Pr  Pr0  1  0.26221114  0.51387377  0.86499828  1
  Pr  Pr1  1  0.72661940  0.55656774  0.12803364  1
  Pr  Pr2  1  0.77139263  0.98765698  0.89301480  1
  Pr  Pr3  1  0.24406083  0.99094517  0.14995387  1
  Mn  Mn4  1  0.27149766  0.57390147  0.58050270  1
  Mn  Mn5  1  0.69622715  0.46836678  0.38310945  1
  Mn  Mn6  1  0.99973980  0.99087921  0.00783458  1
  Mn  Mn7  1  0.79383742  0.99184436  0.60099533  1
  Mn  Mn8  1  0.20395691  0.93849198  0.41394274  1
  Mn  Mn9  1  0.49800740  0.51953527  0.00267651  1
  Sb  Sb10  1  0.89115973  0.00058586  0.44541069  1
  Sb  Sb11  1  0.10932022  0.03624294  0.55489402  1
  Sb  Sb12  1  0.03087046  0.52911716  0.80804617  1
  Sb  Sb13  1  0.96417456  0.51227959  0.18933448  1
  Sb  Sb14  1  0.40303201  0.50361374  0.47006855  1
  Sb  Sb15  1  0.61317495  0.45267283  0.56924435  1
  Sb  Sb16  1  0.53531471  0.99446755  0.82492008  1
  Sb  Sb17  1  0.46588727  0.02800788  0.18311593  1
  S  S18  1  0.93390865  0.97464364  0.78943746  1
  S  S19  1  0.06154351  0.99278119  0.19136665  1
  S  S20  1  0.41774850  0.97884267  0.98977384  1
  S  S21  1  0.58043766  0.02045630  0.02179071  1
  S  S22  1  0.17638396  0.01960855  0.89939382  1
  S  S23  1  0.83199160  0.05158639  0.11795920  1
  S  S24  1  0.08673565  0.48685642  0.64756208  1
  S  S25  1  0.88755132  0.51271039  0.32786386  1
  S  S26  1  0.72790677  0.95520394  0.30335171  1
  S  S27  1  0.26685296  0.94039414  0.68403655  1
  S  S28  1  0.15365900  0.38293999  0.43418167  1
  S  S29  1  0.82591045  0.44458380  0.54050733  1
  S  S30  1  0.44274215  0.49817339  0.81352152  1
  S  S31  1  0.56163000  0.48975151  0.19632401  1
  S  S32  1  0.92135107  0.50372843  0.99399462  1
  S  S33  1  0.09384492  0.56800163  0.01348367  1
  S  S34  1  0.68316195  0.52441679  0.90896881  1
  S  S35  1  0.33727236  0.44895754  0.10516714  1
  S  S36  1  0.60147303  0.95348509  0.66576380  1
  S  S37  1  0.42466266  0.96678637  0.37607177  1
  S  S38  1  0.24859262  0.46537357  0.29692163  1
  S  S39  1  0.76515386  0.42065994  0.69543323  1
  S  S40  1  0.65525645  0.93770281  0.44257986  1
  S  S41  1  0.33618238  0.02720510  0.56018185  1
