# generated using pymatgen
data_Pr2Mn3(SbS3)4
_symmetry_space_group_name_H-M   'P 1'
_cell_length_a   20.02960800
_cell_length_b   3.90410600
_cell_length_c   14.95364829
_cell_angle_alpha   90.00000000
_cell_angle_beta   126.33350609
_cell_angle_gamma   90.00000000
_symmetry_Int_Tables_number   1
_chemical_formula_structural   Pr2Mn3(SbS3)4
_chemical_formula_sum   'Pr4 Mn6 Sb8 S24'
_cell_volume   942.00006694
_cell_formula_units_Z   2
loop_
 _symmetry_equiv_pos_site_id
 _symmetry_equiv_pos_as_xyz
  1  'x, y, z'
loop_
 _atom_site_type_symbol
 _atom_site_label
 _atom_site_symmetry_multiplicity
 _atom_site_fract_x
 _atom_site_fract_y
 _atom_site_fract_z
 _atom_site_occupancy
  Pr  Pr0  1  0.26200930  0.51387467  0.86483926  1
  Pr  Pr1  1  0.72662574  0.55650087  0.12799634  1
  Pr  Pr2  1  0.77134947  0.98820451  0.89294561  1
  Pr  Pr3  1  0.24407468  0.99097146  0.14990897  1
  Mn  Mn4  1  0.27148740  0.57469870  0.58043155  1
  Mn  Mn5  1  0.69616528  0.46774417  0.38290865  1
  Mn  Mn6  1  0.99942837  0.99159096  0.00745421  1
  Mn  Mn7  1  0.79348835  0.99104608  0.60079529  1
  Mn  Mn8  1  0.20403234  0.93781225  0.41415100  1
  Mn  Mn9  1  0.49815059  0.51989094  0.00279649  1
  Sb  Sb10  1  0.89114889  0.99997128  0.44540697  1
  Sb  Sb11  1  0.10920823  0.03638462  0.55471495  1
  Sb  Sb12  1  0.03082150  0.52872600  0.80807822  1
  Sb  Sb13  1  0.96415760  0.51272999  0.18925073  1
  Sb  Sb14  1  0.40309045  0.50298559  0.47016753  1
  Sb  Sb15  1  0.61326034  0.45214041  0.56917003  1
  Sb  Sb16  1  0.53537907  0.99435310  0.82494210  1
  Sb  Sb17  1  0.46592720  0.02736764  0.18307322  1
  S  S18  1  0.93385214  0.97498437  0.78909416  1
  S  S19  1  0.06156152  0.99514137  0.19123764  1
  S  S20  1  0.41784933  0.97761707  0.98954308  1
  S  S21  1  0.58057930  0.02106270  0.02182859  1
  S  S22  1  0.17661611  0.02008649  0.89905976  1
  S  S23  1  0.83204402  0.05312526  0.11811316  1
  S  S24  1  0.08701229  0.48631617  0.64781058  1
  S  S25  1  0.88783197  0.51373777  0.32774500  1
  S  S26  1  0.72779211  0.95495270  0.30369184  1
  S  S27  1  0.26697437  0.94089736  0.68434552  1
  S  S28  1  0.15436664  0.38261583  0.43490858  1
  S  S29  1  0.82581515  0.44439610  0.54021953  1
  S  S30  1  0.44282415  0.49656463  0.81336899  1
  S  S31  1  0.56141414  0.48900867  0.19582867  1
  S  S32  1  0.92119188  0.50438935  0.99374686  1
  S  S33  1  0.09389553  0.56838223  0.01327210  1
  S  S34  1  0.68309014  0.52309727  0.90876462  1
  S  S35  1  0.33736949  0.44945868  0.10537178  1
  S  S36  1  0.60131228  0.95387346  0.66550491  1
  S  S37  1  0.42467384  0.96566658  0.37605795  1
  S  S38  1  0.24896271  0.46384439  0.29715186  1
  S  S39  1  0.76569436  0.42150432  0.69638042  1
  S  S40  1  0.65566219  0.94014134  0.44274451  1
  S  S41  1  0.33606295  0.02581444  0.56005352  1
