# generated using pymatgen
data_Pr2Mn3(SbS3)4
_symmetry_space_group_name_H-M   'P 1'
_cell_length_a   20.02960800
_cell_length_b   3.90410600
_cell_length_c   14.95364829
_cell_angle_alpha   90.00000000
_cell_angle_beta   126.33350609
_cell_angle_gamma   90.00000000
_symmetry_Int_Tables_number   1
_chemical_formula_structural   Pr2Mn3(SbS3)4
_chemical_formula_sum   'Pr4 Mn6 Sb8 S24'
_cell_volume   942.00006694
_cell_formula_units_Z   2
loop_
 _symmetry_equiv_pos_site_id
 _symmetry_equiv_pos_as_xyz
  1  'x, y, z'
loop_
 _atom_site_type_symbol
 _atom_site_label
 _atom_site_symmetry_multiplicity
 _atom_site_fract_x
 _atom_site_fract_y
 _atom_site_fract_z
 _atom_site_occupancy
  Pr  Pr0  1  0.26186359  0.51406833  0.86470212  1
  Pr  Pr1  1  0.72669786  0.55590264  0.12792911  1
  Pr  Pr2  1  0.77134916  0.98895013  0.89300327  1
  Pr  Pr3  1  0.24406861  0.99095761  0.14986138  1
  Mn  Mn4  1  0.27148135  0.57548787  0.58045541  1
  Mn  Mn5  1  0.69613001  0.46716025  0.38264102  1
  Mn  Mn6  1  0.99915392  0.99213908  0.00705611  1
  Mn  Mn7  1  0.79313935  0.99005004  0.60065177  1
  Mn  Mn8  1  0.20406845  0.93755618  0.41440921  1
  Mn  Mn9  1  0.49844580  0.52078477  0.00309208  1
  Sb  Sb10  1  0.89116736  0.99932820  0.44543204  1
  Sb  Sb11  1  0.10911429  0.03639645  0.55463430  1
  Sb  Sb12  1  0.03080000  0.52839902  0.80815719  1
  Sb  Sb13  1  0.96410980  0.51344277  0.18921523  1
  Sb  Sb14  1  0.40314266  0.50237812  0.47025334  1
  Sb  Sb15  1  0.61332993  0.45164555  0.56906289  1
  Sb  Sb16  1  0.53546121  0.99403713  0.82497344  1
  Sb  Sb17  1  0.46600536  0.02665630  0.18308011  1
  S  S18  1  0.93370040  0.97618493  0.78869596  1
  S  S19  1  0.06165766  0.99684988  0.19121887  1
  S  S20  1  0.41792210  0.97642407  0.98926340  1
  S  S21  1  0.58088742  0.02165138  0.02198310  1
  S  S22  1  0.17682550  0.02030776  0.89891490  1
  S  S23  1  0.83190064  0.05455331  0.11797712  1
  S  S24  1  0.08730491  0.48574272  0.64806543  1
  S  S25  1  0.88804145  0.51528557  0.32782093  1
  S  S26  1  0.72766111  0.95483968  0.30409040  1
  S  S27  1  0.26700622  0.94139838  0.68471254  1
  S  S28  1  0.15495626  0.38224347  0.43558577  1
  S  S29  1  0.82577436  0.44422087  0.54007914  1
  S  S30  1  0.44283513  0.49491019  0.81315486  1
  S  S31  1  0.56126134  0.48787119  0.19550273  1
  S  S32  1  0.92114753  0.50512493  0.99346822  1
  S  S33  1  0.09389633  0.56834527  0.01307006  1
  S  S34  1  0.68300434  0.52175115  0.90847170  1
  S  S35  1  0.33741753  0.45043862  0.10567731  1
  S  S36  1  0.60111687  0.95489239  0.66536093  1
  S  S37  1  0.42472064  0.96499199  0.37608166  1
  S  S38  1  0.24928974  0.46335141  0.29733380  1
  S  S39  1  0.76609185  0.42212668  0.69730235  1
  S  S40  1  0.65607793  0.94270577  0.44280440  1
  S  S41  1  0.33576402  0.02513594  0.55986935  1
