# generated using pymatgen
data_Pr2Mn3(SbS3)4
_symmetry_space_group_name_H-M   'P 1'
_cell_length_a   20.02960800
_cell_length_b   3.90410600
_cell_length_c   14.95364829
_cell_angle_alpha   90.00000000
_cell_angle_beta   126.33350609
_cell_angle_gamma   90.00000000
_symmetry_Int_Tables_number   1
_chemical_formula_structural   Pr2Mn3(SbS3)4
_chemical_formula_sum   'Pr4 Mn6 Sb8 S24'
_cell_volume   942.00006694
_cell_formula_units_Z   2
loop_
 _symmetry_equiv_pos_site_id
 _symmetry_equiv_pos_as_xyz
  1  'x, y, z'
loop_
 _atom_site_type_symbol
 _atom_site_label
 _atom_site_symmetry_multiplicity
 _atom_site_fract_x
 _atom_site_fract_y
 _atom_site_fract_z
 _atom_site_occupancy
  Pr  Pr0  1  0.26175311  0.51426262  0.86453870  1
  Pr  Pr1  1  0.72672584  0.55525209  0.12785722  1
  Pr  Pr2  1  0.77132756  0.98946960  0.89301413  1
  Pr  Pr3  1  0.24407035  0.99067659  0.14980136  1
  Mn  Mn4  1  0.27155704  0.57610775  0.58056144  1
  Mn  Mn5  1  0.69615123  0.46687641  0.38259406  1
  Mn  Mn6  1  0.99891697  0.99249398  0.00674600  1
  Mn  Mn7  1  0.79271656  0.98894807  0.60036089  1
  Mn  Mn8  1  0.20407236  0.93735112  0.41466903  1
  Mn  Mn9  1  0.49874884  0.52144273  0.00349912  1
  Sb  Sb10  1  0.89116933  0.99923454  0.44549946  1
  Sb  Sb11  1  0.10892040  0.03629710  0.55442198  1
  Sb  Sb12  1  0.03081295  0.52789656  0.80830789  1
  Sb  Sb13  1  0.96404028  0.51383725  0.18919926  1
  Sb  Sb14  1  0.40318269  0.50197828  0.47035157  1
  Sb  Sb15  1  0.61338595  0.45117384  0.56903830  1
  Sb  Sb16  1  0.53546995  0.99395937  0.82493831  1
  Sb  Sb17  1  0.46601728  0.02570812  0.18289049  1
  S  S18  1  0.93367996  0.97740289  0.78837500  1
  S  S19  1  0.06175315  0.99848351  0.19126493  1
  S  S20  1  0.41812488  0.97530536  0.98909635  1
  S  S21  1  0.58114949  0.02250524  0.02210443  1
  S  S22  1  0.17689127  0.02042841  0.89886333  1
  S  S23  1  0.83175897  0.05609415  0.11783650  1
  S  S24  1  0.08760235  0.48519609  0.64821564  1
  S  S25  1  0.88837205  0.51698403  0.32812848  1
  S  S26  1  0.72755255  0.95494752  0.30441022  1
  S  S27  1  0.26691321  0.94161449  0.68490771  1
  S  S28  1  0.15540626  0.38187249  0.43582875  1
  S  S29  1  0.82597827  0.44450515  0.54034450  1
  S  S30  1  0.44282959  0.49310941  0.81296275  1
  S  S31  1  0.56110212  0.48719679  0.19514293  1
  S  S32  1  0.92096742  0.50608339  0.99264999  1
  S  S33  1  0.09397733  0.56900383  0.01306575  1
  S  S34  1  0.68300934  0.52035179  0.90825245  1
  S  S35  1  0.33740963  0.45127293  0.10589878  1
  S  S36  1  0.60092214  0.95535237  0.66514168  1
  S  S37  1  0.42475540  0.96405021  0.37602059  1
  S  S38  1  0.24961725  0.46306853  0.29762253  1
  S  S39  1  0.76650143  0.42237343  0.69814355  1
  S  S40  1  0.65645243  0.94558850  0.44286996  1
  S  S41  1  0.33559447  0.02496418  0.55981380  1
