# generated using pymatgen
data_Pr2Mn3(SbS3)4
_symmetry_space_group_name_H-M   'P 1'
_cell_length_a   20.02960800
_cell_length_b   3.90410600
_cell_length_c   14.95364829
_cell_angle_alpha   90.00000000
_cell_angle_beta   126.33350609
_cell_angle_gamma   90.00000000
_symmetry_Int_Tables_number   1
_chemical_formula_structural   Pr2Mn3(SbS3)4
_chemical_formula_sum   'Pr4 Mn6 Sb8 S24'
_cell_volume   942.00006694
_cell_formula_units_Z   2
loop_
 _symmetry_equiv_pos_site_id
 _symmetry_equiv_pos_as_xyz
  1  'x, y, z'
loop_
 _atom_site_type_symbol
 _atom_site_label
 _atom_site_symmetry_multiplicity
 _atom_site_fract_x
 _atom_site_fract_y
 _atom_site_fract_z
 _atom_site_occupancy
  Pr  Pr0  1  0.26978859  0.49761580  0.86656453  1
  Pr  Pr1  1  0.73370131  0.50913908  0.13346795  1
  Pr  Pr2  1  0.76311693  0.02445755  0.86135064  1
  Pr  Pr3  1  0.23388052  0.99602746  0.13172059  1
  Mn  Mn4  1  0.29329556  0.47644475  0.59641629  1
  Mn  Mn5  1  0.68639086  0.46386360  0.36509675  1
  Mn  Mn6  1  0.00640406  0.99140656  0.01283711  1
  Mn  Mn7  1  0.79899884  0.00438670  0.61900528  1
  Mn  Mn8  1  0.19775399  0.97622236  0.37080423  1
  Mn  Mn9  1  0.48789166  0.46681306  0.98688905  1
  Sb  Sb10  1  0.88951473  0.98558067  0.45175513  1
  Sb  Sb11  1  0.10944024  0.97779384  0.54439625  1
  Sb  Sb12  1  0.03504600  0.52153437  0.81857557  1
  Sb  Sb13  1  0.96514658  0.49905577  0.18939371  1
  Sb  Sb14  1  0.39279393  0.49849403  0.44826204  1
  Sb  Sb15  1  0.60572352  0.47184700  0.54830731  1
  Sb  Sb16  1  0.53379020  0.98540284  0.80871428  1
  Sb  Sb17  1  0.46520502  0.02159056  0.19101858  1
  S  S18  1  0.93732210  0.02216290  0.80809241  1
  S  S19  1  0.06415783  0.98590273  0.19871607  1
  S  S20  1  0.42133121  0.95687802  0.99264512  1
  S  S21  1  0.58391101  0.03081969  0.01284275  1
  S  S22  1  0.17096594  0.05663385  0.90035321  1
  S  S23  1  0.82808907  0.04974766  0.10273415  1
  S  S24  1  0.09098797  0.50563111  0.64731640  1
  S  S25  1  0.91563485  0.48358895  0.35902562  1
  S  S26  1  0.73616472  0.97611016  0.29950481  1
  S  S27  1  0.26107132  0.00108761  0.71072352  1
  S  S28  1  0.16464627  0.51599682  0.43091840  1
  S  S29  1  0.81822590  0.48115602  0.54677165  1
  S  S30  1  0.43144063  0.47696887  0.79626461  1
  S  S31  1  0.55447422  0.51994054  0.18110354  1
  S  S32  1  0.91670498  0.49173565  0.98953803  1
  S  S33  1  0.09017683  0.49465680  0.03253738  1
  S  S34  1  0.66432812  0.54959379  0.89325982  1
  S  S35  1  0.32635826  0.49903240  0.09294024  1
  S  S36  1  0.59599618  0.00325271  0.65444096  1
  S  S37  1  0.40043843  0.98067097  0.34417425  1
  S  S38  1  0.24289280  0.46870733  0.31580759  1
  S  S39  1  0.76022716  0.52329532  0.68847814  1
  S  S40  1  0.66519702  0.00193908  0.44996421  1
  S  S41  1  0.33098335  0.98333388  0.55521827  1
