# generated using pymatgen
data_Pr2Mn3(SbS3)4
_symmetry_space_group_name_H-M   'P 1'
_cell_length_a   20.02960800
_cell_length_b   3.90410600
_cell_length_c   14.95364829
_cell_angle_alpha   90.00000000
_cell_angle_beta   126.33350609
_cell_angle_gamma   90.00000000
_symmetry_Int_Tables_number   1
_chemical_formula_structural   Pr2Mn3(SbS3)4
_chemical_formula_sum   'Pr4 Mn6 Sb8 S24'
_cell_volume   942.00006694
_cell_formula_units_Z   2
loop_
 _symmetry_equiv_pos_site_id
 _symmetry_equiv_pos_as_xyz
  1  'x, y, z'
loop_
 _atom_site_type_symbol
 _atom_site_label
 _atom_site_symmetry_multiplicity
 _atom_site_fract_x
 _atom_site_fract_y
 _atom_site_fract_z
 _atom_site_occupancy
  Pr  Pr0  1  0.26167837  0.51426695  0.86440454  1
  Pr  Pr1  1  0.72669246  0.55473877  0.12771074  1
  Pr  Pr2  1  0.77130298  0.99018486  0.89299010  1
  Pr  Pr3  1  0.24402111  0.99046488  0.14965176  1
  Mn  Mn4  1  0.27160688  0.57649301  0.58067447  1
  Mn  Mn5  1  0.69617548  0.46635166  0.38249711  1
  Mn  Mn6  1  0.99868490  0.99261465  0.00660393  1
  Mn  Mn7  1  0.79230661  0.98764279  0.60005915  1
  Mn  Mn8  1  0.20404186  0.93663917  0.41492763  1
  Mn  Mn9  1  0.49906586  0.52173869  0.00401583  1
  Sb  Sb10  1  0.89112583  0.99934485  0.44565706  1
  Sb  Sb11  1  0.10875489  0.03616660  0.55430533  1
  Sb  Sb12  1  0.03083397  0.52739751  0.80849064  1
  Sb  Sb13  1  0.96399193  0.51429413  0.18919377  1
  Sb  Sb14  1  0.40328037  0.50172455  0.47042667  1
  Sb  Sb15  1  0.61336342  0.45062538  0.56894259  1
  Sb  Sb16  1  0.53549103  0.99392809  0.82499413  1
  Sb  Sb17  1  0.46595954  0.02509140  0.18265711  1
  S  S18  1  0.93354735  0.97846900  0.78801814  1
  S  S19  1  0.06184962  0.00001618  0.19130833  1
  S  S20  1  0.41828835  0.97375032  0.98901311  1
  S  S21  1  0.58132808  0.02354477  0.02216350  1
  S  S22  1  0.17688258  0.02099154  0.89883648  1
  S  S23  1  0.83181194  0.05687708  0.11783277  1
  S  S24  1  0.08817342  0.48463026  0.64855696  1
  S  S25  1  0.88853145  0.51856285  0.32821696  1
  S  S26  1  0.72748894  0.95476543  0.30486629  1
  S  S27  1  0.26688109  0.94197490  0.68512547  1
  S  S28  1  0.15594295  0.38168817  0.43618718  1
  S  S29  1  0.82626438  0.44489050  0.54079317  1
  S  S30  1  0.44278236  0.49228908  0.81269416  1
  S  S31  1  0.56107122  0.48626094  0.19479218  1
  S  S32  1  0.92093898  0.50642171  0.99190337  1
  S  S33  1  0.09399853  0.56968008  0.01305965  1
  S  S34  1  0.68295502  0.51851321  0.90804054  1
  S  S35  1  0.33746012  0.45200400  0.10619207  1
  S  S36  1  0.60065974  0.95606023  0.66468944  1
  S  S37  1  0.42470361  0.96293804  0.37563757  1
  S  S38  1  0.24995828  0.46274354  0.29783047  1
  S  S39  1  0.76684313  0.42193432  0.69893151  1
  S  S40  1  0.65679582  0.94848602  0.44296816  1
  S  S41  1  0.33545602  0.02555319  0.55968530  1
