# generated using pymatgen
data_Pr2Mn3(SbS3)4
_symmetry_space_group_name_H-M   'P 1'
_cell_length_a   20.02960800
_cell_length_b   3.90410600
_cell_length_c   14.95364829
_cell_angle_alpha   90.00000000
_cell_angle_beta   126.33350609
_cell_angle_gamma   90.00000000
_symmetry_Int_Tables_number   1
_chemical_formula_structural   Pr2Mn3(SbS3)4
_chemical_formula_sum   'Pr4 Mn6 Sb8 S24'
_cell_volume   942.00006694
_cell_formula_units_Z   2
loop_
 _symmetry_equiv_pos_site_id
 _symmetry_equiv_pos_as_xyz
  1  'x, y, z'
loop_
 _atom_site_type_symbol
 _atom_site_label
 _atom_site_symmetry_multiplicity
 _atom_site_fract_x
 _atom_site_fract_y
 _atom_site_fract_z
 _atom_site_occupancy
  Pr  Pr0  1  0.26159185  0.51438574  0.86423153  1
  Pr  Pr1  1  0.72667986  0.55463464  0.12765515  1
  Pr  Pr2  1  0.77122510  0.99066350  0.89298158  1
  Pr  Pr3  1  0.24399617  0.99026286  0.14946690  1
  Mn  Mn4  1  0.27157221  0.57682299  0.58083079  1
  Mn  Mn5  1  0.69615626  0.46594237  0.38243391  1
  Mn  Mn6  1  0.99847442  0.99218227  0.00644946  1
  Mn  Mn7  1  0.79195230  0.98632712  0.59982902  1
  Mn  Mn8  1  0.20416481  0.93603557  0.41545310  1
  Mn  Mn9  1  0.49936597  0.52197457  0.00454253  1
  Sb  Sb10  1  0.89098954  0.99930556  0.44575637  1
  Sb  Sb11  1  0.10861367  0.03569208  0.55416000  1
  Sb  Sb12  1  0.03078382  0.52710961  0.80860350  1
  Sb  Sb13  1  0.96393183  0.51457923  0.18930187  1
  Sb  Sb14  1  0.40338126  0.50154762  0.47054426  1
  Sb  Sb15  1  0.61335450  0.45016854  0.56878041  1
  Sb  Sb16  1  0.53549065  0.99390468  0.82497191  1
  Sb  Sb17  1  0.46585409  0.02432293  0.18238784  1
  S  S18  1  0.93352379  0.97966734  0.78784436  1
  S  S19  1  0.06186711  0.00142378  0.19124747  1
  S  S20  1  0.41848885  0.97287096  0.98919693  1
  S  S21  1  0.58159135  0.02420130  0.02224789  1
  S  S22  1  0.17683122  0.02125078  0.89877840  1
  S  S23  1  0.83198735  0.05762518  0.11793902  1
  S  S24  1  0.08870491  0.48456557  0.64890604  1
  S  S25  1  0.88883261  0.52023538  0.32859142  1
  S  S26  1  0.72760692  0.95498289  0.30505467  1
  S  S27  1  0.26684805  0.94239417  0.68545700  1
  S  S28  1  0.15642195  0.38165742  0.43641802  1
  S  S29  1  0.82655278  0.44494103  0.54115582  1
  S  S30  1  0.44282469  0.49071993  0.81257729  1
  S  S31  1  0.56095227  0.48593082  0.19444777  1
  S  S32  1  0.92095602  0.50659077  0.99122962  1
  S  S33  1  0.09416115  0.57064849  0.01318877  1
  S  S34  1  0.68282721  0.51634470  0.90770549  1
  S  S35  1  0.33734788  0.45297608  0.10626399  1
  S  S36  1  0.60045257  0.95733151  0.66417540  1
  S  S37  1  0.42466913  0.96216996  0.37537501  1
  S  S38  1  0.25016343  0.46248230  0.29798754  1
  S  S39  1  0.76718495  0.42149230  0.69976722  1
  S  S40  1  0.65707244  0.95098207  0.44291688  1
  S  S41  1  0.33551054  0.02654556  0.55964526  1
