# generated using pymatgen
data_Pr2Mn3(SbS3)4
_symmetry_space_group_name_H-M   'P 1'
_cell_length_a   20.02960800
_cell_length_b   3.90410600
_cell_length_c   14.95364829
_cell_angle_alpha   90.00000000
_cell_angle_beta   126.33350609
_cell_angle_gamma   90.00000000
_symmetry_Int_Tables_number   1
_chemical_formula_structural   Pr2Mn3(SbS3)4
_chemical_formula_sum   'Pr4 Mn6 Sb8 S24'
_cell_volume   942.00006694
_cell_formula_units_Z   2
loop_
 _symmetry_equiv_pos_site_id
 _symmetry_equiv_pos_as_xyz
  1  'x, y, z'
loop_
 _atom_site_type_symbol
 _atom_site_label
 _atom_site_symmetry_multiplicity
 _atom_site_fract_x
 _atom_site_fract_y
 _atom_site_fract_z
 _atom_site_occupancy
  Pr  Pr0  1  0.26147500  0.51442563  0.86414241  1
  Pr  Pr1  1  0.72661305  0.55458557  0.12754299  1
  Pr  Pr2  1  0.77115124  0.99114452  0.89291733  1
  Pr  Pr3  1  0.24399739  0.98995998  0.14932707  1
  Mn  Mn4  1  0.27159343  0.57731105  0.58109070  1
  Mn  Mn5  1  0.69619322  0.46575001  0.38240374  1
  Mn  Mn6  1  0.99828968  0.99202345  0.00638875  1
  Mn  Mn7  1  0.79163621  0.98557270  0.59950005  1
  Mn  Mn8  1  0.20444368  0.93590282  0.41610882  1
  Mn  Mn9  1  0.49940788  0.52230293  0.00489084  1
  Sb  Sb10  1  0.89086830  0.99923702  0.44589216  1
  Sb  Sb11  1  0.10848985  0.03530468  0.55404367  1
  Sb  Sb12  1  0.03076142  0.52638242  0.80874946  1
  Sb  Sb13  1  0.96383019  0.51498700  0.18938591  1
  Sb  Sb14  1  0.40338991  0.50165376  0.47059610  1
  Sb  Sb15  1  0.61333264  0.45012178  0.56867027  1
  Sb  Sb16  1  0.53555483  0.99393857  0.82509528  1
  Sb  Sb17  1  0.46581872  0.02346575  0.18221009  1
  S  S18  1  0.93355802  0.98182887  0.78765459  1
  S  S19  1  0.06185137  0.00320959  0.19105135  1
  S  S20  1  0.41851419  0.97294767  0.98936465  1
  S  S21  1  0.58180070  0.02501848  0.02236212  1
  S  S22  1  0.17679805  0.02110986  0.89875849  1
  S  S23  1  0.83216762  0.05793512  0.11807629  1
  S  S24  1  0.08918201  0.48497425  0.64910204  1
  S  S25  1  0.88907371  0.52111441  0.32892340  1
  S  S26  1  0.72773709  0.95528130  0.30522287  1
  S  S27  1  0.26683235  0.94212865  0.68591665  1
  S  S28  1  0.15661361  0.38135085  0.43652246  1
  S  S29  1  0.82684083  0.44527167  0.54156247  1
  S  S30  1  0.44277894  0.49001920  0.81262654  1
  S  S31  1  0.56068463  0.48581906  0.19395235  1
  S  S32  1  0.92105279  0.50737922  0.99071930  1
  S  S33  1  0.09422672  0.57121987  0.01314163  1
  S  S34  1  0.68283747  0.51421794  0.90741847  1
  S  S35  1  0.33723136  0.45447147  0.10632247  1
  S  S36  1  0.60023539  0.95852196  0.66358805  1
  S  S37  1  0.42461176  0.96148827  0.37509184  1
  S  S38  1  0.25039627  0.46228454  0.29828253  1
  S  S39  1  0.76737623  0.42072355  0.70037315  1
  S  S40  1  0.65735999  0.95382464  0.44308040  1
  S  S41  1  0.33560643  0.02621721  0.55981346  1
