# generated using pymatgen
data_Pr2Mn3(SbS3)4
_symmetry_space_group_name_H-M   'P 1'
_cell_length_a   20.02960800
_cell_length_b   3.90410600
_cell_length_c   14.95364829
_cell_angle_alpha   90.00000000
_cell_angle_beta   126.33350609
_cell_angle_gamma   90.00000000
_symmetry_Int_Tables_number   1
_chemical_formula_structural   Pr2Mn3(SbS3)4
_chemical_formula_sum   'Pr4 Mn6 Sb8 S24'
_cell_volume   942.00006694
_cell_formula_units_Z   2
loop_
 _symmetry_equiv_pos_site_id
 _symmetry_equiv_pos_as_xyz
  1  'x, y, z'
loop_
 _atom_site_type_symbol
 _atom_site_label
 _atom_site_symmetry_multiplicity
 _atom_site_fract_x
 _atom_site_fract_y
 _atom_site_fract_z
 _atom_site_occupancy
  Pr  Pr0  1  0.26137711  0.51462760  0.86403134  1
  Pr  Pr1  1  0.72649645  0.55426595  0.12744209  1
  Pr  Pr2  1  0.77111565  0.99141125  0.89286942  1
  Pr  Pr3  1  0.24401562  0.98978512  0.14924719  1
  Mn  Mn4  1  0.27162563  0.57761483  0.58139373  1
  Mn  Mn5  1  0.69628094  0.46590355  0.38234655  1
  Mn  Mn6  1  0.99812620  0.99156024  0.00640458  1
  Mn  Mn7  1  0.79132996  0.98505156  0.59915669  1
  Mn  Mn8  1  0.20466390  0.93558844  0.41663965  1
  Mn  Mn9  1  0.49948203  0.52236524  0.00521465  1
  Sb  Sb10  1  0.89072193  0.99880492  0.44589340  1
  Sb  Sb11  1  0.10834738  0.03507263  0.55387851  1
  Sb  Sb12  1  0.03075188  0.52549813  0.80891587  1
  Sb  Sb13  1  0.96369470  0.51499033  0.18943390  1
  Sb  Sb14  1  0.40340560  0.50183505  0.47070924  1
  Sb  Sb15  1  0.61325181  0.45008095  0.56845324  1
  Sb  Sb16  1  0.53559801  0.99384177  0.82520583  1
  Sb  Sb17  1  0.46578003  0.02288585  0.18202718  1
  S  S18  1  0.93346875  0.98383803  0.78733814  1
  S  S19  1  0.06191065  0.00509903  0.19089769  1
  S  S20  1  0.41857744  0.97311592  0.98955315  1
  S  S21  1  0.58194391  0.02558435  0.02256935  1
  S  S22  1  0.17675676  0.02045742  0.89884445  1
  S  S23  1  0.83222589  0.05752280  0.11799538  1
  S  S24  1  0.08956666  0.48534127  0.64939823  1
  S  S25  1  0.88913978  0.52209569  0.32908453  1
  S  S26  1  0.72779896  0.95555089  0.30539194  1
  S  S27  1  0.26662076  0.94116271  0.68611337  1
  S  S28  1  0.15680118  0.38099088  0.43656417  1
  S  S29  1  0.82713434  0.44565453  0.54199766  1
  S  S30  1  0.44280900  0.49045193  0.81299199  1
  S  S31  1  0.56046737  0.48533110  0.19372200  1
  S  S32  1  0.92122706  0.50801551  0.99024767  1
  S  S33  1  0.09423776  0.57200813  0.01311162  1
  S  S34  1  0.68285651  0.51277457  0.90724963  1
  S  S35  1  0.33713723  0.45643990  0.10637886  1
  S  S36  1  0.60017181  0.95902012  0.66306344  1
  S  S37  1  0.42453819  0.96132578  0.37473694  1
  S  S38  1  0.25063561  0.46201716  0.29850880  1
  S  S39  1  0.76749372  0.41996668  0.70075437  1
  S  S40  1  0.65756199  0.95633516  0.44309378  1
  S  S41  1  0.33567632  0.02570024  0.55990934  1
