# generated using pymatgen
data_Pr2Mn3(SbS3)4
_symmetry_space_group_name_H-M   'P 1'
_cell_length_a   20.02960800
_cell_length_b   3.90410600
_cell_length_c   14.95364829
_cell_angle_alpha   90.00000000
_cell_angle_beta   126.33350609
_cell_angle_gamma   90.00000000
_symmetry_Int_Tables_number   1
_chemical_formula_structural   Pr2Mn3(SbS3)4
_chemical_formula_sum   'Pr4 Mn6 Sb8 S24'
_cell_volume   942.00006694
_cell_formula_units_Z   2
loop_
 _symmetry_equiv_pos_site_id
 _symmetry_equiv_pos_as_xyz
  1  'x, y, z'
loop_
 _atom_site_type_symbol
 _atom_site_label
 _atom_site_symmetry_multiplicity
 _atom_site_fract_x
 _atom_site_fract_y
 _atom_site_fract_z
 _atom_site_occupancy
  Pr  Pr0  1  0.26129613  0.51479842  0.86394997  1
  Pr  Pr1  1  0.72637063  0.55421292  0.12737050  1
  Pr  Pr2  1  0.77112079  0.99155551  0.89286715  1
  Pr  Pr3  1  0.24402772  0.98932342  0.14918555  1
  Mn  Mn4  1  0.27167641  0.57725144  0.58164961  1
  Mn  Mn5  1  0.69622584  0.46642156  0.38218595  1
  Mn  Mn6  1  0.99792215  0.99125322  0.00630514  1
  Mn  Mn7  1  0.79099158  0.98482377  0.59885338  1
  Mn  Mn8  1  0.20489734  0.93550359  0.41713159  1
  Mn  Mn9  1  0.49945579  0.52202549  0.00546583  1
  Sb  Sb10  1  0.89063066  0.99854841  0.44597655  1
  Sb  Sb11  1  0.10826220  0.03493938  0.55372471  1
  Sb  Sb12  1  0.03079715  0.52476502  0.80915556  1
  Sb  Sb13  1  0.96360974  0.51488345  0.18946864  1
  Sb  Sb14  1  0.40338987  0.50179651  0.47083343  1
  Sb  Sb15  1  0.61308309  0.45011967  0.56818288  1
  Sb  Sb16  1  0.53561543  0.99380748  0.82536293  1
  Sb  Sb17  1  0.46578217  0.02232834  0.18180831  1
  S  S18  1  0.93340318  0.98532119  0.78718049  1
  S  S19  1  0.06184464  0.00625752  0.19068654  1
  S  S20  1  0.41869391  0.97291398  0.98994225  1
  S  S21  1  0.58210017  0.02622225  0.02269193  1
  S  S22  1  0.17662394  0.01989120  0.89848567  1
  S  S23  1  0.83229512  0.05701899  0.11802506  1
  S  S24  1  0.08989028  0.48509420  0.64977462  1
  S  S25  1  0.88932382  0.52303195  0.32927448  1
  S  S26  1  0.72783215  0.95594835  0.30559353  1
  S  S27  1  0.26635016  0.94099487  0.68613193  1
  S  S28  1  0.15688846  0.38061312  0.43655561  1
  S  S29  1  0.82740215  0.44578983  0.54225895  1
  S  S30  1  0.44287380  0.49021087  0.81342916  1
  S  S31  1  0.56022433  0.48490828  0.19356143  1
  S  S32  1  0.92133293  0.50893042  0.98981344  1
  S  S33  1  0.09426131  0.57302281  0.01315585  1
  S  S34  1  0.68285753  0.51169697  0.90709985  1
  S  S35  1  0.33704923  0.45836885  0.10654317  1
  S  S36  1  0.60015612  0.95947786  0.66261541  1
  S  S37  1  0.42457486  0.96069105  0.37433153  1
  S  S38  1  0.25090968  0.46153994  0.29885069  1
  S  S39  1  0.76772157  0.41915701  0.70116695  1
  S  S40  1  0.65769905  0.95853520  0.44307613  1
  S  S41  1  0.33578550  0.02522508  0.56021448  1
