# generated using pymatgen
data_Pr2Mn3(SbS3)4
_symmetry_space_group_name_H-M   'P 1'
_cell_length_a   20.02960800
_cell_length_b   3.90410600
_cell_length_c   14.95364829
_cell_angle_alpha   90.00000000
_cell_angle_beta   126.33350609
_cell_angle_gamma   90.00000000
_symmetry_Int_Tables_number   1
_chemical_formula_structural   Pr2Mn3(SbS3)4
_chemical_formula_sum   'Pr4 Mn6 Sb8 S24'
_cell_volume   942.00006694
_cell_formula_units_Z   2
loop_
 _symmetry_equiv_pos_site_id
 _symmetry_equiv_pos_as_xyz
  1  'x, y, z'
loop_
 _atom_site_type_symbol
 _atom_site_label
 _atom_site_symmetry_multiplicity
 _atom_site_fract_x
 _atom_site_fract_y
 _atom_site_fract_z
 _atom_site_occupancy
  Pr  Pr0  1  0.26130323  0.51490980  0.86404634  1
  Pr  Pr1  1  0.72627819  0.55417107  0.12740477  1
  Pr  Pr2  1  0.77113667  0.99138162  0.89289284  1
  Pr  Pr3  1  0.24397879  0.98925283  0.14907595  1
  Mn  Mn4  1  0.27174727  0.57739718  0.58185949  1
  Mn  Mn5  1  0.69630109  0.46639926  0.38216633  1
  Mn  Mn6  1  0.99762020  0.99006622  0.00623669  1
  Mn  Mn7  1  0.79066047  0.98470072  0.59858170  1
  Mn  Mn8  1  0.20507728  0.93510682  0.41752230  1
  Mn  Mn9  1  0.49945177  0.52168177  0.00575046  1
  Sb  Sb10  1  0.89054088  0.99844508  0.44600841  1
  Sb  Sb11  1  0.10818564  0.03504323  0.55366671  1
  Sb  Sb12  1  0.03090974  0.52419491  0.80937067  1
  Sb  Sb13  1  0.96364543  0.51488515  0.18949476  1
  Sb  Sb14  1  0.40341409  0.50172464  0.47095729  1
  Sb  Sb15  1  0.61292533  0.45042717  0.56801188  1
  Sb  Sb16  1  0.53557574  0.99392817  0.82546353  1
  Sb  Sb17  1  0.46576118  0.02168061  0.18159241  1
  S  S18  1  0.93340650  0.98701570  0.78714211  1
  S  S19  1  0.06172521  0.00779016  0.19038675  1
  S  S20  1  0.41875216  0.97287067  0.99022643  1
  S  S21  1  0.58226730  0.02688105  0.02297602  1
  S  S22  1  0.17654675  0.01913711  0.89794218  1
  S  S23  1  0.83228957  0.05638706  0.11809538  1
  S  S24  1  0.09022603  0.48516171  0.65016595  1
  S  S25  1  0.88955673  0.52356448  0.32956316  1
  S  S26  1  0.72794637  0.95643432  0.30590805  1
  S  S27  1  0.26602901  0.94035352  0.68596944  1
  S  S28  1  0.15714268  0.38014249  0.43657181  1
  S  S29  1  0.82751083  0.44599779  0.54226329  1
  S  S30  1  0.44307808  0.48982638  0.81401244  1
  S  S31  1  0.55995377  0.48427038  0.19347123  1
  S  S32  1  0.92158636  0.51043556  0.98969235  1
  S  S33  1  0.09416856  0.57383541  0.01308407  1
  S  S34  1  0.68280282  0.51039155  0.90686622  1
  S  S35  1  0.33689061  0.46018787  0.10675313  1
  S  S36  1  0.59995729  0.96031159  0.66191435  1
  S  S37  1  0.42455335  0.96023490  0.37391618  1
  S  S38  1  0.25114625  0.46042298  0.29910895  1
  S  S39  1  0.76793425  0.41892433  0.70140309  1
  S  S40  1  0.65797571  0.96079051  0.44315987  1
  S  S41  1  0.33589758  0.02582301  0.56044295  1
