# generated using pymatgen
data_Pr2Mn3(SbS3)4
_symmetry_space_group_name_H-M   'P 1'
_cell_length_a   20.02960800
_cell_length_b   3.90410600
_cell_length_c   14.95364829
_cell_angle_alpha   90.00000000
_cell_angle_beta   126.33350609
_cell_angle_gamma   90.00000000
_symmetry_Int_Tables_number   1
_chemical_formula_structural   Pr2Mn3(SbS3)4
_chemical_formula_sum   'Pr4 Mn6 Sb8 S24'
_cell_volume   942.00006694
_cell_formula_units_Z   2
loop_
 _symmetry_equiv_pos_site_id
 _symmetry_equiv_pos_as_xyz
  1  'x, y, z'
loop_
 _atom_site_type_symbol
 _atom_site_label
 _atom_site_symmetry_multiplicity
 _atom_site_fract_x
 _atom_site_fract_y
 _atom_site_fract_z
 _atom_site_occupancy
  Pr  Pr0  1  0.26121453  0.51509340  0.86408408  1
  Pr  Pr1  1  0.72622438  0.55408189  0.12745465  1
  Pr  Pr2  1  0.77115249  0.99158168  0.89297123  1
  Pr  Pr3  1  0.24393753  0.98908794  0.14897587  1
  Mn  Mn4  1  0.27179404  0.57749732  0.58191786  1
  Mn  Mn5  1  0.69635319  0.46702991  0.38203563  1
  Mn  Mn6  1  0.99731614  0.98913904  0.00611450  1
  Mn  Mn7  1  0.79041592  0.98417000  0.59832510  1
  Mn  Mn8  1  0.20515256  0.93470457  0.41788069  1
  Mn  Mn9  1  0.49940316  0.52190159  0.00583738  1
  Sb  Sb10  1  0.89051803  0.99843071  0.44610470  1
  Sb  Sb11  1  0.10813163  0.03480645  0.55358144  1
  Sb  Sb12  1  0.03099421  0.52397289  0.80960676  1
  Sb  Sb13  1  0.96375484  0.51501607  0.18953731  1
  Sb  Sb14  1  0.40334725  0.50190632  0.47101033  1
  Sb  Sb15  1  0.61276998  0.45019639  0.56783173  1
  Sb  Sb16  1  0.53548482  0.99369550  0.82548153  1
  Sb  Sb17  1  0.46571080  0.02145370  0.18132960  1
  S  S18  1  0.93334616  0.98836118  0.78697629  1
  S  S19  1  0.06159487  0.00925246  0.19004837  1
  S  S20  1  0.41876012  0.97386960  0.99038339  1
  S  S21  1  0.58243928  0.02710253  0.02316207  1
  S  S22  1  0.17637536  0.01838467  0.89742212  1
  S  S23  1  0.83234434  0.05608069  0.11796759  1
  S  S24  1  0.09043015  0.48530271  0.65053541  1
  S  S25  1  0.88971039  0.52429794  0.32997728  1
  S  S26  1  0.72804428  0.95753251  0.30601574  1
  S  S27  1  0.26566606  0.93990894  0.68566459  1
  S  S28  1  0.15735536  0.37970101  0.43663229  1
  S  S29  1  0.82744239  0.44606102  0.54212166  1
  S  S30  1  0.44337306  0.48997171  0.81454791  1
  S  S31  1  0.55975680  0.48380140  0.19332310  1
  S  S32  1  0.92191224  0.51136975  0.98966462  1
  S  S33  1  0.09403798  0.57468295  0.01305822  1
  S  S34  1  0.68275238  0.50956515  0.90676103  1
  S  S35  1  0.33676061  0.46177301  0.10707969  1
  S  S36  1  0.59959320  0.96108834  0.66110957  1
  S  S37  1  0.42452923  0.96003076  0.37350094  1
  S  S38  1  0.25136201  0.45927493  0.29936715  1
  S  S39  1  0.76808244  0.41853325  0.70155576  1
  S  S40  1  0.65831502  0.96236049  0.44327407  1
  S  S41  1  0.33601512  0.02644875  0.56069843  1
