# generated using pymatgen
data_Pr2Mn3(SbS3)4
_symmetry_space_group_name_H-M   'P 1'
_cell_length_a   20.02960800
_cell_length_b   3.90410600
_cell_length_c   14.95364829
_cell_angle_alpha   90.00000000
_cell_angle_beta   126.33350609
_cell_angle_gamma   90.00000000
_symmetry_Int_Tables_number   1
_chemical_formula_structural   Pr2Mn3(SbS3)4
_chemical_formula_sum   'Pr4 Mn6 Sb8 S24'
_cell_volume   942.00006694
_cell_formula_units_Z   2
loop_
 _symmetry_equiv_pos_site_id
 _symmetry_equiv_pos_as_xyz
  1  'x, y, z'
loop_
 _atom_site_type_symbol
 _atom_site_label
 _atom_site_symmetry_multiplicity
 _atom_site_fract_x
 _atom_site_fract_y
 _atom_site_fract_z
 _atom_site_occupancy
  Pr  Pr0  1  0.26115184  0.51520558  0.86415468  1
  Pr  Pr1  1  0.72616235  0.55388934  0.12751005  1
  Pr  Pr2  1  0.77118642  0.99184999  0.89301337  1
  Pr  Pr3  1  0.24397499  0.98912516  0.14889385  1
  Mn  Mn4  1  0.27186025  0.57705723  0.58203230  1
  Mn  Mn5  1  0.69644254  0.46757288  0.38192915  1
  Mn  Mn6  1  0.99700268  0.98836101  0.00601217  1
  Mn  Mn7  1  0.79025194  0.98316287  0.59819339  1
  Mn  Mn8  1  0.20522320  0.93420553  0.41821372  1
  Mn  Mn9  1  0.49935092  0.52206139  0.00603347  1
  Sb  Sb10  1  0.89041944  0.99834665  0.44600932  1
  Sb  Sb11  1  0.10809375  0.03465186  0.55342115  1
  Sb  Sb12  1  0.03110016  0.52359026  0.80987976  1
  Sb  Sb13  1  0.96389947  0.51537872  0.18964195  1
  Sb  Sb14  1  0.40328600  0.50181704  0.47097575  1
  Sb  Sb15  1  0.61267320  0.44972961  0.56763709  1
  Sb  Sb16  1  0.53543308  0.99330311  0.82550084  1
  Sb  Sb17  1  0.46562644  0.02125006  0.18105970  1
  S  S18  1  0.93331326  0.98923169  0.78687148  1
  S  S19  1  0.06149511  0.01088558  0.18987704  1
  S  S20  1  0.41890102  0.97422628  0.99068686  1
  S  S21  1  0.58262496  0.02745189  0.02331605  1
  S  S22  1  0.17635894  0.01773240  0.89701628  1
  S  S23  1  0.83237370  0.05635239  0.11784297  1
  S  S24  1  0.09068204  0.48516498  0.65080991  1
  S  S25  1  0.88979344  0.52498439  0.33024128  1
  S  S26  1  0.72814826  0.95847663  0.30609113  1
  S  S27  1  0.26518718  0.93935069  0.68530622  1
  S  S28  1  0.15756324  0.37942029  0.43685450  1
  S  S29  1  0.82746189  0.44701786  0.54210064  1
  S  S30  1  0.44371324  0.49006620  0.81517944  1
  S  S31  1  0.55968997  0.48317571  0.19339279  1
  S  S32  1  0.92216815  0.51266171  0.98958869  1
  S  S33  1  0.09403952  0.57502050  0.01306064  1
  S  S34  1  0.68275522  0.50870003  0.90670087  1
  S  S35  1  0.33681920  0.46258160  0.10763268  1
  S  S36  1  0.59923497  0.96163939  0.66031349  1
  S  S37  1  0.42449778  0.96020551  0.37313718  1
  S  S38  1  0.25151188  0.45878714  0.29969650  1
  S  S39  1  0.76822242  0.41805695  0.70171082  1
  S  S40  1  0.65870705  0.96348466  0.44332755  1
  S  S41  1  0.33608023  0.02700161  0.56085869  1
