# generated using pymatgen
data_Pr2Mn3(SbS3)4
_symmetry_space_group_name_H-M   'P 1'
_cell_length_a   20.02960800
_cell_length_b   3.90410600
_cell_length_c   14.95364829
_cell_angle_alpha   90.00000000
_cell_angle_beta   126.33350609
_cell_angle_gamma   90.00000000
_symmetry_Int_Tables_number   1
_chemical_formula_structural   Pr2Mn3(SbS3)4
_chemical_formula_sum   'Pr4 Mn6 Sb8 S24'
_cell_volume   942.00006694
_cell_formula_units_Z   2
loop_
 _symmetry_equiv_pos_site_id
 _symmetry_equiv_pos_as_xyz
  1  'x, y, z'
loop_
 _atom_site_type_symbol
 _atom_site_label
 _atom_site_symmetry_multiplicity
 _atom_site_fract_x
 _atom_site_fract_y
 _atom_site_fract_z
 _atom_site_occupancy
  Pr  Pr0  1  0.26110528  0.51537953  0.86428035  1
  Pr  Pr1  1  0.72613470  0.55368489  0.12741796  1
  Pr  Pr2  1  0.77114262  0.99232594  0.89294815  1
  Pr  Pr3  1  0.24405701  0.98928637  0.14888409  1
  Mn  Mn4  1  0.27199555  0.57697101  0.58209273  1
  Mn  Mn5  1  0.69654245  0.46794920  0.38192152  1
  Mn  Mn6  1  0.99671326  0.98757617  0.00592022  1
  Mn  Mn7  1  0.79014707  0.98261745  0.59814039  1
  Mn  Mn8  1  0.20544187  0.93349096  0.41871672  1
  Mn  Mn9  1  0.49933534  0.52254703  0.00620512  1
  Sb  Sb10  1  0.89029345  0.99811479  0.44586049  1
  Sb  Sb11  1  0.10804760  0.03435963  0.55326546  1
  Sb  Sb12  1  0.03114873  0.52303647  0.81010783  1
  Sb  Sb13  1  0.96403827  0.51589802  0.18973045  1
  Sb  Sb14  1  0.40321756  0.50202996  0.47097129  1
  Sb  Sb15  1  0.61258268  0.44946904  0.56754525  1
  Sb  Sb16  1  0.53536871  0.99306203  0.82549575  1
  Sb  Sb17  1  0.46566993  0.02101793  0.18082017  1
  S  S18  1  0.93343479  0.98906517  0.78696200  1
  S  S19  1  0.06148198  0.01254279  0.18976960  1
  S  S20  1  0.41898230  0.97507646  0.99073700  1
  S  S21  1  0.58270758  0.02793073  0.02334285  1
  S  S22  1  0.17641257  0.01643351  0.89676605  1
  S  S23  1  0.83247005  0.05580775  0.11756520  1
  S  S24  1  0.09110602  0.48532126  0.65132806  1
  S  S25  1  0.89010944  0.52516460  0.33055967  1
  S  S26  1  0.72833303  0.95930664  0.30628128  1
  S  S27  1  0.26463656  0.93955773  0.68476648  1
  S  S28  1  0.15765589  0.37918746  0.43699325  1
  S  S29  1  0.82758566  0.44764015  0.54227175  1
  S  S30  1  0.44405470  0.49061158  0.81589596  1
  S  S31  1  0.55961376  0.48264926  0.19334611  1
  S  S32  1  0.92238659  0.51388033  0.98951437  1
  S  S33  1  0.09399161  0.57492698  0.01305284  1
  S  S34  1  0.68288135  0.50729486  0.90670640  1
  S  S35  1  0.33686218  0.46326282  0.10804274  1
  S  S36  1  0.59899939  0.96238064  0.65978202  1
  S  S37  1  0.42450680  0.95995602  0.37280172  1
  S  S38  1  0.25162694  0.45888337  0.29990011  1
  S  S39  1  0.76835088  0.41787568  0.70175389  1
  S  S40  1  0.65887796  0.96461573  0.44303771  1
  S  S41  1  0.33616972  0.02772622  0.56114893  1
