# generated using pymatgen
data_Pr2Mn3(SbS3)4
_symmetry_space_group_name_H-M   'P 1'
_cell_length_a   20.02960800
_cell_length_b   3.90410600
_cell_length_c   14.95364829
_cell_angle_alpha   90.00000000
_cell_angle_beta   126.33350609
_cell_angle_gamma   90.00000000
_symmetry_Int_Tables_number   1
_chemical_formula_structural   Pr2Mn3(SbS3)4
_chemical_formula_sum   'Pr4 Mn6 Sb8 S24'
_cell_volume   942.00006694
_cell_formula_units_Z   2
loop_
 _symmetry_equiv_pos_site_id
 _symmetry_equiv_pos_as_xyz
  1  'x, y, z'
loop_
 _atom_site_type_symbol
 _atom_site_label
 _atom_site_symmetry_multiplicity
 _atom_site_fract_x
 _atom_site_fract_y
 _atom_site_fract_z
 _atom_site_occupancy
  Pr  Pr0  1  0.26107227  0.51526914  0.86439617  1
  Pr  Pr1  1  0.72616555  0.55371333  0.12735969  1
  Pr  Pr2  1  0.77109729  0.99264510  0.89293152  1
  Pr  Pr3  1  0.24426292  0.98951460  0.14905295  1
  Mn  Mn4  1  0.27220086  0.57702592  0.58223315  1
  Mn  Mn5  1  0.69666466  0.46824751  0.38188276  1
  Mn  Mn6  1  0.99639825  0.98704349  0.00572532  1
  Mn  Mn7  1  0.79011538  0.98206398  0.59816815  1
  Mn  Mn8  1  0.20577940  0.93308081  0.41932348  1
  Mn  Mn9  1  0.49931604  0.52320918  0.00642982  1
  Sb  Sb10  1  0.89014559  0.99791566  0.44576489  1
  Sb  Sb11  1  0.10792825  0.03404010  0.55313487  1
  Sb  Sb12  1  0.03124330  0.52259037  0.81030192  1
  Sb  Sb13  1  0.96423146  0.51641088  0.18985933  1
  Sb  Sb14  1  0.40318353  0.50243834  0.47101986  1
  Sb  Sb15  1  0.61254419  0.44925550  0.56749007  1
  Sb  Sb16  1  0.53523636  0.99278426  0.82542121  1
  Sb  Sb17  1  0.46569598  0.02114656  0.18045670  1
  S  S18  1  0.93359519  0.98993875  0.78717985  1
  S  S19  1  0.06134395  0.01412511  0.18932913  1
  S  S20  1  0.41903674  0.97579226  0.99076848  1
  S  S21  1  0.58287938  0.02794686  0.02346471  1
  S  S22  1  0.17647832  0.01594544  0.89650230  1
  S  S23  1  0.83257115  0.05457735  0.11720349  1
  S  S24  1  0.09149787  0.48624737  0.65178888  1
  S  S25  1  0.89030346  0.52541171  0.33074654  1
  S  S26  1  0.72844613  0.96033820  0.30638407  1
  S  S27  1  0.26415089  0.93998600  0.68420232  1
  S  S28  1  0.15770483  0.37884858  0.43692742  1
  S  S29  1  0.82782650  0.44821869  0.54249276  1
  S  S30  1  0.44441466  0.49171190  0.81661408  1
  S  S31  1  0.55962587  0.48273910  0.19343999  1
  S  S32  1  0.92259349  0.51521066  0.98953342  1
  S  S33  1  0.09408674  0.57504288  0.01325754  1
  S  S34  1  0.68290188  0.50634557  0.90650092  1
  S  S35  1  0.33683594  0.46373230  0.10841335  1
  S  S36  1  0.59885678  0.96335985  0.65928495  1
  S  S37  1  0.42439500  0.95985317  0.37254871  1
  S  S38  1  0.25173940  0.45891324  0.30002020  1
  S  S39  1  0.76858823  0.41768288  0.70195190  1
  S  S40  1  0.65916717  0.96508298  0.44287961  1
  S  S41  1  0.33617534  0.02872535  0.56146838  1
