# generated using pymatgen
data_Pr2Mn3(SbS3)4
_symmetry_space_group_name_H-M   'P 1'
_cell_length_a   20.02960800
_cell_length_b   3.90410600
_cell_length_c   14.95364829
_cell_angle_alpha   90.00000000
_cell_angle_beta   126.33350609
_cell_angle_gamma   90.00000000
_symmetry_Int_Tables_number   1
_chemical_formula_structural   Pr2Mn3(SbS3)4
_chemical_formula_sum   'Pr4 Mn6 Sb8 S24'
_cell_volume   942.00006694
_cell_formula_units_Z   2
loop_
 _symmetry_equiv_pos_site_id
 _symmetry_equiv_pos_as_xyz
  1  'x, y, z'
loop_
 _atom_site_type_symbol
 _atom_site_label
 _atom_site_symmetry_multiplicity
 _atom_site_fract_x
 _atom_site_fract_y
 _atom_site_fract_z
 _atom_site_occupancy
  Pr  Pr0  1  0.26984121  0.49756235  0.86668892  1
  Pr  Pr1  1  0.73373943  0.50944199  0.13340374  1
  Pr  Pr2  1  0.76320379  0.02501844  0.86152090  1
  Pr  Pr3  1  0.23386337  0.99564576  0.13159516  1
  Mn  Mn4  1  0.29354876  0.47745891  0.59677812  1
  Mn  Mn5  1  0.68646205  0.46315045  0.36494266  1
  Mn  Mn6  1  0.00622609  0.99098338  0.01260433  1
  Mn  Mn7  1  0.79876057  0.00302866  0.61893568  1
  Mn  Mn8  1  0.19760210  0.97702546  0.37051679  1
  Mn  Mn9  1  0.48769838  0.46724832  0.98669702  1
  Sb  Sb10  1  0.88934699  0.98565898  0.45170327  1
  Sb  Sb11  1  0.10936379  0.97806088  0.54447569  1
  Sb  Sb12  1  0.03505701  0.52193874  0.81861576  1
  Sb  Sb13  1  0.96534677  0.49890196  0.18954773  1
  Sb  Sb14  1  0.39266635  0.49867908  0.44803954  1
  Sb  Sb15  1  0.60568861  0.47203970  0.54825846  1
  Sb  Sb16  1  0.53384705  0.98513940  0.80880526  1
  Sb  Sb17  1  0.46522243  0.02120597  0.19091046  1
  S  S18  1  0.93712353  0.02300905  0.80809482  1
  S  S19  1  0.06423758  0.98721488  0.19876397  1
  S  S20  1  0.42137973  0.95585138  0.99263223  1
  S  S21  1  0.58416087  0.02983669  0.01300518  1
  S  S22  1  0.17063718  0.05662247  0.90018850  1
  S  S23  1  0.82792164  0.04831382  0.10255875  1
  S  S24  1  0.09084171  0.50671783  0.64716317  1
  S  S25  1  0.91582371  0.48335395  0.35917933  1
  S  S26  1  0.73640947  0.97720663  0.30001785  1
  S  S27  1  0.26120433  0.00046107  0.71116071  1
  S  S28  1  0.16484290  0.51580132  0.43122572  1
  S  S29  1  0.81822743  0.48131086  0.54700566  1
  S  S30  1  0.43146337  0.47703614  0.79641692  1
  S  S31  1  0.55465204  0.52039649  0.18109334  1
  S  S32  1  0.91693562  0.49258504  0.98956274  1
  S  S33  1  0.09047211  0.49407827  0.03260018  1
  S  S34  1  0.66444427  0.54999952  0.89355243  1
  S  S35  1  0.32632011  0.49764728  0.09299623  1
  S  S36  1  0.59570948  0.00282427  0.65398063  1
  S  S37  1  0.40024966  0.98082963  0.34402721  1
  S  S38  1  0.24293810  0.46810206  0.31590935  1
  S  S39  1  0.76022816  0.52334821  0.68853695  1
  S  S40  1  0.66528099  0.00131273  0.45005185  1
  S  S41  1  0.33115292  0.98236232  0.55535463  1
