# generated using pymatgen
data_Pr2Mn3(SbS3)4
_symmetry_space_group_name_H-M   'P 1'
_cell_length_a   20.02960800
_cell_length_b   3.90410600
_cell_length_c   14.95364829
_cell_angle_alpha   90.00000000
_cell_angle_beta   126.33350609
_cell_angle_gamma   90.00000000
_symmetry_Int_Tables_number   1
_chemical_formula_structural   Pr2Mn3(SbS3)4
_chemical_formula_sum   'Pr4 Mn6 Sb8 S24'
_cell_volume   942.00006694
_cell_formula_units_Z   2
loop_
 _symmetry_equiv_pos_site_id
 _symmetry_equiv_pos_as_xyz
  1  'x, y, z'
loop_
 _atom_site_type_symbol
 _atom_site_label
 _atom_site_symmetry_multiplicity
 _atom_site_fract_x
 _atom_site_fract_y
 _atom_site_fract_z
 _atom_site_occupancy
  Pr  Pr0  1  0.26106987  0.51485989  0.86449171  1
  Pr  Pr1  1  0.72626906  0.55376547  0.12739764  1
  Pr  Pr2  1  0.77101623  0.99259404  0.89290394  1
  Pr  Pr3  1  0.24450533  0.98979146  0.14925004  1
  Mn  Mn4  1  0.27247168  0.57667373  0.58245231  1
  Mn  Mn5  1  0.69675044  0.46779621  0.38191039  1
  Mn  Mn6  1  0.99620765  0.98665984  0.00562068  1
  Mn  Mn7  1  0.79014509  0.98186186  0.59837491  1
  Mn  Mn8  1  0.20605688  0.93287593  0.41990316  1
  Mn  Mn9  1  0.49934998  0.52375119  0.00661625  1
  Sb  Sb10  1  0.88996843  0.99761364  0.44560397  1
  Sb  Sb11  1  0.10780754  0.03402094  0.55309826  1
  Sb  Sb12  1  0.03126887  0.52197745  0.81032751  1
  Sb  Sb13  1  0.96438194  0.51709006  0.19000725  1
  Sb  Sb14  1  0.40313786  0.50236143  0.47110488  1
  Sb  Sb15  1  0.61250413  0.44910721  0.56737944  1
  Sb  Sb16  1  0.53506173  0.99244076  0.82523041  1
  Sb  Sb17  1  0.46568301  0.02164670  0.18012412  1
  S  S18  1  0.93376152  0.99114668  0.78754493  1
  S  S19  1  0.06120518  0.01571769  0.18898571  1
  S  S20  1  0.41899855  0.97633111  0.99074625  1
  S  S21  1  0.58307114  0.02784925  0.02352120  1
  S  S22  1  0.17643773  0.01548503  0.89616201  1
  S  S23  1  0.83281672  0.05306797  0.11686400  1
  S  S24  1  0.09167964  0.48672393  0.65217539  1
  S  S25  1  0.89054467  0.52608450  0.33095303  1
  S  S26  1  0.72849796  0.96157243  0.30642089  1
  S  S27  1  0.26371084  0.94024125  0.68375364  1
  S  S28  1  0.15787804  0.37840931  0.43700491  1
  S  S29  1  0.82795193  0.44906487  0.54253298  1
  S  S30  1  0.44462604  0.49288259  0.81700944  1
  S  S31  1  0.55963550  0.48216652  0.19371482  1
  S  S32  1  0.92282038  0.51615566  0.98965138  1
  S  S33  1  0.09415876  0.57467034  0.01328789  1
  S  S34  1  0.68285298  0.50584937  0.90631668  1
  S  S35  1  0.33686747  0.46370827  0.10867527  1
  S  S36  1  0.59860343  0.96418722  0.65873750  1
  S  S37  1  0.42425261  0.96002209  0.37229482  1
  S  S38  1  0.25178789  0.45862636  0.30006804  1
  S  S39  1  0.76898428  0.41737020  0.70240552  1
  S  S40  1  0.65940435  0.96556208  0.44294494  1
  S  S41  1  0.33604245  0.02951445  0.56154384  1
