# generated using pymatgen
data_Pr2Mn3(SbS3)4
_symmetry_space_group_name_H-M   'P 1'
_cell_length_a   20.02960800
_cell_length_b   3.90410600
_cell_length_c   14.95364829
_cell_angle_alpha   90.00000000
_cell_angle_beta   126.33350609
_cell_angle_gamma   90.00000000
_symmetry_Int_Tables_number   1
_chemical_formula_structural   Pr2Mn3(SbS3)4
_chemical_formula_sum   'Pr4 Mn6 Sb8 S24'
_cell_volume   942.00006694
_cell_formula_units_Z   2
loop_
 _symmetry_equiv_pos_site_id
 _symmetry_equiv_pos_as_xyz
  1  'x, y, z'
loop_
 _atom_site_type_symbol
 _atom_site_label
 _atom_site_symmetry_multiplicity
 _atom_site_fract_x
 _atom_site_fract_y
 _atom_site_fract_z
 _atom_site_occupancy
  Pr  Pr0  1  0.26105393  0.51443115  0.86453749  1
  Pr  Pr1  1  0.72637388  0.55381373  0.12749675  1
  Pr  Pr2  1  0.77094899  0.99270974  0.89280273  1
  Pr  Pr3  1  0.24467981  0.98978134  0.14936691  1
  Mn  Mn4  1  0.27279880  0.57573422  0.58290160  1
  Mn  Mn5  1  0.69693774  0.46634006  0.38203379  1
  Mn  Mn6  1  0.99611463  0.98660274  0.00558967  1
  Mn  Mn7  1  0.79011190  0.98112661  0.59851172  1
  Mn  Mn8  1  0.20631627  0.93288784  0.42046746  1
  Mn  Mn9  1  0.49936728  0.52421296  0.00674770  1
  Sb  Sb10  1  0.88974675  0.99764695  0.44533489  1
  Sb  Sb11  1  0.10767276  0.03391790  0.55300623  1
  Sb  Sb12  1  0.03131040  0.52109255  0.81037493  1
  Sb  Sb13  1  0.96460198  0.51783991  0.19020681  1
  Sb  Sb14  1  0.40313741  0.50254783  0.47121628  1
  Sb  Sb15  1  0.61258285  0.44879727  0.56743177  1
  Sb  Sb16  1  0.53492238  0.99210823  0.82493221  1
  Sb  Sb17  1  0.46565197  0.02197157  0.17981621  1
  S  S18  1  0.93371956  0.99210596  0.78790010  1
  S  S19  1  0.06117094  0.01689415  0.18874955  1
  S  S20  1  0.41882507  0.97721924  0.99073554  1
  S  S21  1  0.58319638  0.02733051  0.02348623  1
  S  S22  1  0.17627012  0.01583911  0.89580877  1
  S  S23  1  0.83310030  0.05169324  0.11672277  1
  S  S24  1  0.09183030  0.48765187  0.65242413  1
  S  S25  1  0.89072829  0.52604005  0.33103307  1
  S  S26  1  0.72855723  0.96214932  0.30623657  1
  S  S27  1  0.26327168  0.94017651  0.68329931  1
  S  S28  1  0.15802532  0.37834336  0.43712187  1
  S  S29  1  0.82811565  0.44966325  0.54259266  1
  S  S30  1  0.44484145  0.49377616  0.81727368  1
  S  S31  1  0.55976267  0.48234123  0.19399802  1
  S  S32  1  0.92309745  0.51716420  0.98998939  1
  S  S33  1  0.09415516  0.57457500  0.01329299  1
  S  S34  1  0.68276661  0.50545825  0.90621831  1
  S  S35  1  0.33702322  0.46411902  0.10892948  1
  S  S36  1  0.59843905  0.96517466  0.65829733  1
  S  S37  1  0.42417999  0.95955570  0.37221097  1
  S  S38  1  0.25176358  0.45782132  0.30009737  1
  S  S39  1  0.76917896  0.41784343  0.70263218  1
  S  S40  1  0.65963842  0.96572367  0.44302257  1
  S  S41  1  0.33580321  0.03066995  0.56130260  1
