# generated using pymatgen
data_Pr2Mn3(SbS3)4
_symmetry_space_group_name_H-M   'P 1'
_cell_length_a   20.02960800
_cell_length_b   3.90410600
_cell_length_c   14.95364829
_cell_angle_alpha   90.00000000
_cell_angle_beta   126.33350609
_cell_angle_gamma   90.00000000
_symmetry_Int_Tables_number   1
_chemical_formula_structural   Pr2Mn3(SbS3)4
_chemical_formula_sum   'Pr4 Mn6 Sb8 S24'
_cell_volume   942.00006694
_cell_formula_units_Z   2
loop_
 _symmetry_equiv_pos_site_id
 _symmetry_equiv_pos_as_xyz
  1  'x, y, z'
loop_
 _atom_site_type_symbol
 _atom_site_label
 _atom_site_symmetry_multiplicity
 _atom_site_fract_x
 _atom_site_fract_y
 _atom_site_fract_z
 _atom_site_occupancy
  Pr  Pr0  1  0.26108326  0.51420178  0.86456079  1
  Pr  Pr1  1  0.72652287  0.55375352  0.12760545  1
  Pr  Pr2  1  0.77088282  0.99265911  0.89258851  1
  Pr  Pr3  1  0.24485652  0.98982582  0.14944720  1
  Mn  Mn4  1  0.27314710  0.57516014  0.58338745  1
  Mn  Mn5  1  0.69716474  0.46465942  0.38215842  1
  Mn  Mn6  1  0.99598550  0.98656700  0.00561385  1
  Mn  Mn7  1  0.79018440  0.98035368  0.59859681  1
  Mn  Mn8  1  0.20659466  0.93273258  0.42083058  1
  Mn  Mn9  1  0.49949296  0.52481838  0.00690724  1
  Sb  Sb10  1  0.88947563  0.99775380  0.44503577  1
  Sb  Sb11  1  0.10755316  0.03337598  0.55287999  1
  Sb  Sb12  1  0.03128256  0.52041660  0.81033105  1
  Sb  Sb13  1  0.96484101  0.51867068  0.19044945  1
  Sb  Sb14  1  0.40308524  0.50288537  0.47127744  1
  Sb  Sb15  1  0.61259182  0.44834394  0.56739348  1
  Sb  Sb16  1  0.53478615  0.99175684  0.82459767  1
  Sb  Sb17  1  0.46576493  0.02246610  0.17961693  1
  S  S18  1  0.93367047  0.99355856  0.78833574  1
  S  S19  1  0.06118212  0.01737324  0.18876288  1
  S  S20  1  0.41857463  0.97809175  0.99045695  1
  S  S21  1  0.58344135  0.02708474  0.02357250  1
  S  S22  1  0.17616639  0.01591958  0.89548771  1
  S  S23  1  0.83324780  0.05073868  0.11645887  1
  S  S24  1  0.09196557  0.48857367  0.65263254  1
  S  S25  1  0.89099143  0.52603926  0.33124189  1
  S  S26  1  0.72859682  0.96181932  0.30601093  1
  S  S27  1  0.26299402  0.93999368  0.68282556  1
  S  S28  1  0.15814820  0.37885559  0.43724862  1
  S  S29  1  0.82823256  0.45022123  0.54256839  1
  S  S30  1  0.44521157  0.49458453  0.81760607  1
  S  S31  1  0.56001220  0.48282136  0.19444251  1
  S  S32  1  0.92320325  0.51804273  0.99009560  1
  S  S33  1  0.09412787  0.57461824  0.01328825  1
  S  S34  1  0.68268412  0.50428605  0.90613354  1
  S  S35  1  0.33720677  0.46382296  0.10915081  1
  S  S36  1  0.59826535  0.96660819  0.65789725  1
  S  S37  1  0.42417651  0.95958091  0.37206181  1
  S  S38  1  0.25184279  0.45650800  0.30026901  1
  S  S39  1  0.76942272  0.41780826  0.70294006  1
  S  S40  1  0.66004735  0.96585323  0.44335100  1
  S  S41  1  0.33542305  0.03225141  0.56103367  1
