# generated using pymatgen
data_Pr2Mn3(SbS3)4
_symmetry_space_group_name_H-M   'P 1'
_cell_length_a   20.02960800
_cell_length_b   3.90410600
_cell_length_c   14.95364829
_cell_angle_alpha   90.00000000
_cell_angle_beta   126.33350609
_cell_angle_gamma   90.00000000
_symmetry_Int_Tables_number   1
_chemical_formula_structural   Pr2Mn3(SbS3)4
_chemical_formula_sum   'Pr4 Mn6 Sb8 S24'
_cell_volume   942.00006694
_cell_formula_units_Z   2
loop_
 _symmetry_equiv_pos_site_id
 _symmetry_equiv_pos_as_xyz
  1  'x, y, z'
loop_
 _atom_site_type_symbol
 _atom_site_label
 _atom_site_symmetry_multiplicity
 _atom_site_fract_x
 _atom_site_fract_y
 _atom_site_fract_z
 _atom_site_occupancy
  Pr  Pr0  1  0.26108868  0.51422478  0.86455729  1
  Pr  Pr1  1  0.72664054  0.55359137  0.12768977  1
  Pr  Pr2  1  0.77074496  0.99260388  0.89238745  1
  Pr  Pr3  1  0.24502634  0.99002567  0.14946565  1
  Mn  Mn4  1  0.27349591  0.57463867  0.58373179  1
  Mn  Mn5  1  0.69728090  0.46284925  0.38216224  1
  Mn  Mn6  1  0.99589120  0.98650654  0.00557620  1
  Mn  Mn7  1  0.79031300  0.98007591  0.59874544  1
  Mn  Mn8  1  0.20684391  0.93260911  0.42115148  1
  Mn  Mn9  1  0.49959508  0.52544787  0.00704263  1
  Sb  Sb10  1  0.88917354  0.99814018  0.44465071  1
  Sb  Sb11  1  0.10741810  0.03291883  0.55277407  1
  Sb  Sb12  1  0.03128831  0.51987768  0.81027155  1
  Sb  Sb13  1  0.96504681  0.51918262  0.19064754  1
  Sb  Sb14  1  0.40302354  0.50291182  0.47130859  1
  Sb  Sb15  1  0.61254601  0.44776197  0.56734420  1
  Sb  Sb16  1  0.53462862  0.99160012  0.82421556  1
  Sb  Sb17  1  0.46576403  0.02285895  0.17928868  1
  S  S18  1  0.93351254  0.99494083  0.78857775  1
  S  S19  1  0.06116206  0.01757532  0.18886463  1
  S  S20  1  0.41837721  0.97864971  0.99022491  1
  S  S21  1  0.58365881  0.02717176  0.02366776  1
  S  S22  1  0.17617647  0.01649309  0.89523087  1
  S  S23  1  0.83338089  0.04948892  0.11631455  1
  S  S24  1  0.09195279  0.48925532  0.65278084  1
  S  S25  1  0.89115021  0.52613213  0.33122396  1
  S  S26  1  0.72893591  0.96101160  0.30610719  1
  S  S27  1  0.26264835  0.93991443  0.68216661  1
  S  S28  1  0.15826695  0.37925448  0.43746827  1
  S  S29  1  0.82809451  0.45098238  0.54242730  1
  S  S30  1  0.44571767  0.49518210  0.81822372  1
  S  S31  1  0.56018367  0.48352415  0.19484745  1
  S  S32  1  0.92327741  0.51875650  0.99015271  1
  S  S33  1  0.09399907  0.57503348  0.01328466  1
  S  S34  1  0.68259057  0.50326645  0.90583893  1
  S  S35  1  0.33751412  0.46340020  0.10943126  1
  S  S36  1  0.59811287  0.96777706  0.65776444  1
  S  S37  1  0.42404072  0.95909631  0.37180731  1
  S  S38  1  0.25191676  0.45514658  0.30045157  1
  S  S39  1  0.76983465  0.41762776  0.70334947  1
  S  S40  1  0.66054327  0.96712378  0.44363674  1
  S  S41  1  0.33492598  0.03347395  0.56066161  1
