# generated using pymatgen
data_Pr2Mn3(SbS3)4
_symmetry_space_group_name_H-M   'P 1'
_cell_length_a   20.02960800
_cell_length_b   3.90410600
_cell_length_c   14.95364829
_cell_angle_alpha   90.00000000
_cell_angle_beta   126.33350609
_cell_angle_gamma   90.00000000
_symmetry_Int_Tables_number   1
_chemical_formula_structural   Pr2Mn3(SbS3)4
_chemical_formula_sum   'Pr4 Mn6 Sb8 S24'
_cell_volume   942.00006694
_cell_formula_units_Z   2
loop_
 _symmetry_equiv_pos_site_id
 _symmetry_equiv_pos_as_xyz
  1  'x, y, z'
loop_
 _atom_site_type_symbol
 _atom_site_label
 _atom_site_symmetry_multiplicity
 _atom_site_fract_x
 _atom_site_fract_y
 _atom_site_fract_z
 _atom_site_occupancy
  Pr  Pr0  1  0.26106788  0.51408954  0.86455006  1
  Pr  Pr1  1  0.72671408  0.55334535  0.12771529  1
  Pr  Pr2  1  0.77062322  0.99282648  0.89214687  1
  Pr  Pr3  1  0.24515422  0.99062318  0.14950834  1
  Mn  Mn4  1  0.27393942  0.57382255  0.58411665  1
  Mn  Mn5  1  0.69730199  0.46097730  0.38214141  1
  Mn  Mn6  1  0.99579923  0.98629246  0.00546551  1
  Mn  Mn7  1  0.79049801  0.97968255  0.59886910  1
  Mn  Mn8  1  0.20704486  0.93275607  0.42152567  1
  Mn  Mn9  1  0.49978436  0.52581177  0.00723930  1
  Sb  Sb10  1  0.88888008  0.99858531  0.44429121  1
  Sb  Sb11  1  0.10732256  0.03248253  0.55267455  1
  Sb  Sb12  1  0.03123926  0.51941155  0.81015296  1
  Sb  Sb13  1  0.96525183  0.51975459  0.19092366  1
  Sb  Sb14  1  0.40289110  0.50295134  0.47130237  1
  Sb  Sb15  1  0.61241322  0.44728500  0.56722983  1
  Sb  Sb16  1  0.53455663  0.99145272  0.82399262  1
  Sb  Sb17  1  0.46579850  0.02331769  0.17904960  1
  S  S18  1  0.93345830  0.99554986  0.78893172  1
  S  S19  1  0.06112427  0.01794320  0.18883877  1
  S  S20  1  0.41815962  0.97899823  0.98991666  1
  S  S21  1  0.58382027  0.02721280  0.02365646  1
  S  S22  1  0.17615646  0.01695412  0.89486213  1
  S  S23  1  0.83342986  0.04874512  0.11627185  1
  S  S24  1  0.09185465  0.48983314  0.65279770  1
  S  S25  1  0.89121186  0.52624996  0.33113530  1
  S  S26  1  0.72917448  0.96018602  0.30610838  1
  S  S27  1  0.26221728  0.94047139  0.68142796  1
  S  S28  1  0.15830897  0.38028396  0.43756792  1
  S  S29  1  0.82809264  0.45201419  0.54248609  1
  S  S30  1  0.44616039  0.49503439  0.81898560  1
  S  S31  1  0.56020441  0.48384784  0.19516115  1
  S  S32  1  0.92320281  0.51944453  0.98992422  1
  S  S33  1  0.09385151  0.57550594  0.01323651  1
  S  S34  1  0.68257409  0.50296871  0.90577025  1
  S  S35  1  0.33782670  0.46301483  0.10976948  1
  S  S36  1  0.59790144  0.96913148  0.65758424  1
  S  S37  1  0.42392186  0.95925250  0.37159986  1
  S  S38  1  0.25195801  0.45347405  0.30041704  1
  S  S39  1  0.77001891  0.41721287  0.70338445  1
  S  S40  1  0.66101389  0.96819080  0.44390540  1
  S  S41  1  0.33449150  0.03514531  0.56044913  1
