# generated using pymatgen
data_Pr2Mn3(SbS3)4
_symmetry_space_group_name_H-M   'P 1'
_cell_length_a   20.02960800
_cell_length_b   3.90410600
_cell_length_c   14.95364829
_cell_angle_alpha   90.00000000
_cell_angle_beta   126.33350609
_cell_angle_gamma   90.00000000
_symmetry_Int_Tables_number   1
_chemical_formula_structural   Pr2Mn3(SbS3)4
_chemical_formula_sum   'Pr4 Mn6 Sb8 S24'
_cell_volume   942.00006694
_cell_formula_units_Z   2
loop_
 _symmetry_equiv_pos_site_id
 _symmetry_equiv_pos_as_xyz
  1  'x, y, z'
loop_
 _atom_site_type_symbol
 _atom_site_label
 _atom_site_symmetry_multiplicity
 _atom_site_fract_x
 _atom_site_fract_y
 _atom_site_fract_z
 _atom_site_occupancy
  Pr  Pr0  1  0.26102015  0.51404860  0.86453946  1
  Pr  Pr1  1  0.72681506  0.55290644  0.12772563  1
  Pr  Pr2  1  0.77053310  0.99271645  0.89189702  1
  Pr  Pr3  1  0.24529493  0.99106221  0.14948158  1
  Mn  Mn4  1  0.27419451  0.57267547  0.58438920  1
  Mn  Mn5  1  0.69729187  0.45893833  0.38235936  1
  Mn  Mn6  1  0.99565256  0.98646545  0.00539970  1
  Mn  Mn7  1  0.79067983  0.97961568  0.59891261  1
  Mn  Mn8  1  0.20716714  0.93270942  0.42168581  1
  Mn  Mn9  1  0.49995447  0.52580535  0.00741306  1
  Sb  Sb10  1  0.88860586  0.99890370  0.44398255  1
  Sb  Sb11  1  0.10721586  0.03247052  0.55262070  1
  Sb  Sb12  1  0.03112035  0.51895114  0.80995522  1
  Sb  Sb13  1  0.96544060  0.52017889  0.19126849  1
  Sb  Sb14  1  0.40266113  0.50325665  0.47115791  1
  Sb  Sb15  1  0.61226754  0.44707429  0.56707854  1
  Sb  Sb16  1  0.53449522  0.99133761  0.82374491  1
  Sb  Sb17  1  0.46581940  0.02368959  0.17887058  1
  S  S18  1  0.93343114  0.99655501  0.78924267  1
  S  S19  1  0.06103504  0.01801211  0.18877803  1
  S  S20  1  0.41798178  0.97935386  0.98967122  1
  S  S21  1  0.58386194  0.02740381  0.02349371  1
  S  S22  1  0.17629679  0.01736503  0.89454108  1
  S  S23  1  0.83356074  0.04801509  0.11635433  1
  S  S24  1  0.09173643  0.49039343  0.65273132  1
  S  S25  1  0.89123408  0.52671622  0.33109394  1
  S  S26  1  0.72978749  0.95934817  0.30645780  1
  S  S27  1  0.26200461  0.94080289  0.68116506  1
  S  S28  1  0.15829745  0.38091270  0.43753593  1
  S  S29  1  0.82813114  0.45228156  0.54244942  1
  S  S30  1  0.44661253  0.49515951  0.81969292  1
  S  S31  1  0.56007391  0.48504294  0.19529310  1
  S  S32  1  0.92305558  0.51968506  0.98961875  1
  S  S33  1  0.09374854  0.57593111  0.01334374  1
  S  S34  1  0.68263526  0.50263868  0.90583263  1
  S  S35  1  0.33821005  0.46264621  0.11003629  1
  S  S36  1  0.59776325  0.97033787  0.65754133  1
  S  S37  1  0.42380524  0.95932813  0.37149249  1
  S  S38  1  0.25196506  0.45230677  0.30040331  1
  S  S39  1  0.77019004  0.41696651  0.70348535  1
  S  S40  1  0.66165638  0.96910282  0.44434043  1
  S  S41  1  0.33410796  0.03744817  0.56023383  1
