# generated using pymatgen
data_Pr2Mn3(SbS3)4
_symmetry_space_group_name_H-M   'P 1'
_cell_length_a   20.02960800
_cell_length_b   3.90410600
_cell_length_c   14.95364829
_cell_angle_alpha   90.00000000
_cell_angle_beta   126.33350609
_cell_angle_gamma   90.00000000
_symmetry_Int_Tables_number   1
_chemical_formula_structural   Pr2Mn3(SbS3)4
_chemical_formula_sum   'Pr4 Mn6 Sb8 S24'
_cell_volume   942.00006694
_cell_formula_units_Z   2
loop_
 _symmetry_equiv_pos_site_id
 _symmetry_equiv_pos_as_xyz
  1  'x, y, z'
loop_
 _atom_site_type_symbol
 _atom_site_label
 _atom_site_symmetry_multiplicity
 _atom_site_fract_x
 _atom_site_fract_y
 _atom_site_fract_z
 _atom_site_occupancy
  Pr  Pr0  1  0.26093631  0.51401267  0.86449687  1
  Pr  Pr1  1  0.72701588  0.55245439  0.12775844  1
  Pr  Pr2  1  0.77051712  0.99272538  0.89164573  1
  Pr  Pr3  1  0.24548194  0.99161463  0.14948431  1
  Mn  Mn4  1  0.27448366  0.57123440  0.58460423  1
  Mn  Mn5  1  0.69720989  0.45737546  0.38259162  1
  Mn  Mn6  1  0.99547628  0.98657220  0.00534622  1
  Mn  Mn7  1  0.79081015  0.97961626  0.59884527  1
  Mn  Mn8  1  0.20724612  0.93192568  0.42179564  1
  Mn  Mn9  1  0.50024430  0.52624216  0.00775045  1
  Sb  Sb10  1  0.88836742  0.99932061  0.44378253  1
  Sb  Sb11  1  0.10707319  0.03260114  0.55250216  1
  Sb  Sb12  1  0.03104625  0.51844668  0.80983351  1
  Sb  Sb13  1  0.96565735  0.52045154  0.19166619  1
  Sb  Sb14  1  0.40246062  0.50353316  0.47107587  1
  Sb  Sb15  1  0.61213826  0.44703557  0.56692527  1
  Sb  Sb16  1  0.53445546  0.99130201  0.82360240  1
  Sb  Sb17  1  0.46580493  0.02379105  0.17874575  1
  S  S18  1  0.93344021  0.99752184  0.78945441  1
  S  S19  1  0.06084569  0.01736746  0.18865616  1
  S  S20  1  0.41778727  0.97962838  0.98914699  1
  S  S21  1  0.58392538  0.02808011  0.02333224  1
  S  S22  1  0.17649075  0.01688615  0.89423338  1
  S  S23  1  0.83373194  0.04704376  0.11667235  1
  S  S24  1  0.09153434  0.49105488  0.65275156  1
  S  S25  1  0.89122679  0.52752053  0.33105783  1
  S  S26  1  0.73047899  0.95978729  0.30681587  1
  S  S27  1  0.26191707  0.94089850  0.68107180  1
  S  S28  1  0.15830163  0.38073823  0.43753698  1
  S  S29  1  0.82803596  0.45233271  0.54233387  1
  S  S30  1  0.44698140  0.49500300  0.82029300  1
  S  S31  1  0.55997062  0.48595249  0.19548584  1
  S  S32  1  0.92300686  0.51940823  0.98941054  1
  S  S33  1  0.09363162  0.57627706  0.01340279  1
  S  S34  1  0.68250981  0.50211692  0.90565645  1
  S  S35  1  0.33857071  0.46251499  0.11033640  1
  S  S36  1  0.59759401  0.97184318  0.65737282  1
  S  S37  1  0.42376451  0.96017055  0.37148701  1
  S  S38  1  0.25193719  0.45119203  0.30036139  1
  S  S39  1  0.77049093  0.41736929  0.70372568  1
  S  S40  1  0.66220896  0.96991145  0.44459404  1
  S  S41  1  0.33385513  0.03990466  0.56024329  1
