# generated using pymatgen
data_Pr2Mn3(SbS3)4
_symmetry_space_group_name_H-M   'P 1'
_cell_length_a   20.02960800
_cell_length_b   3.90410600
_cell_length_c   14.95364829
_cell_angle_alpha   90.00000000
_cell_angle_beta   126.33350609
_cell_angle_gamma   90.00000000
_symmetry_Int_Tables_number   1
_chemical_formula_structural   Pr2Mn3(SbS3)4
_chemical_formula_sum   'Pr4 Mn6 Sb8 S24'
_cell_volume   942.00006694
_cell_formula_units_Z   2
loop_
 _symmetry_equiv_pos_site_id
 _symmetry_equiv_pos_as_xyz
  1  'x, y, z'
loop_
 _atom_site_type_symbol
 _atom_site_label
 _atom_site_symmetry_multiplicity
 _atom_site_fract_x
 _atom_site_fract_y
 _atom_site_fract_z
 _atom_site_occupancy
  Pr  Pr0  1  0.26087559  0.51402254  0.86444907  1
  Pr  Pr1  1  0.72713963  0.55207601  0.12760760  1
  Pr  Pr2  1  0.77048851  0.99291210  0.89138670  1
  Pr  Pr3  1  0.24567025  0.99160775  0.14951337  1
  Mn  Mn4  1  0.27476336  0.56978553  0.58486947  1
  Mn  Mn5  1  0.69725859  0.45561194  0.38310129  1
  Mn  Mn6  1  0.99535198  0.98648682  0.00523857  1
  Mn  Mn7  1  0.79095100  0.97975995  0.59880804  1
  Mn  Mn8  1  0.20717572  0.93177483  0.42170669  1
  Mn  Mn9  1  0.50074165  0.52641610  0.00839286  1
  Sb  Sb10  1  0.88827409  0.99951370  0.44375826  1
  Sb  Sb11  1  0.10691345  0.03284854  0.55238739  1
  Sb  Sb12  1  0.03092768  0.51815118  0.80961135  1
  Sb  Sb13  1  0.96591047  0.52062201  0.19198221  1
  Sb  Sb14  1  0.40232405  0.50367535  0.47106421  1
  Sb  Sb15  1  0.61211444  0.44716715  0.56701528  1
  Sb  Sb16  1  0.53440233  0.99161802  0.82345938  1
  Sb  Sb17  1  0.46577255  0.02405848  0.17857232  1
  S  S18  1  0.93342694  0.99760754  0.78964643  1
  S  S19  1  0.06061997  0.01621391  0.18815175  1
  S  S20  1  0.41768123  0.97995253  0.98886783  1
  S  S21  1  0.58399413  0.02813863  0.02308523  1
  S  S22  1  0.17671460  0.01651371  0.89405876  1
  S  S23  1  0.83392001  0.04643265  0.11683889  1
  S  S24  1  0.09126525  0.49182499  0.65290458  1
  S  S25  1  0.89133923  0.52802838  0.33110696  1
  S  S26  1  0.73097318  0.96010124  0.30699832  1
  S  S27  1  0.26182011  0.94063169  0.68109088  1
  S  S28  1  0.15823922  0.38079424  0.43736194  1
  S  S29  1  0.82772401  0.45217971  0.54202219  1
  S  S30  1  0.44723470  0.49466772  0.82087877  1
  S  S31  1  0.55983117  0.48693171  0.19571993  1
  S  S32  1  0.92305817  0.51874657  0.98927083  1
  S  S33  1  0.09353926  0.57664115  0.01344149  1
  S  S34  1  0.68239687  0.50146106  0.90542674  1
  S  S35  1  0.33890745  0.46267533  0.11055750  1
  S  S36  1  0.59738960  0.97282191  0.65694419  1
  S  S37  1  0.42365485  0.96116205  0.37141729  1
  S  S38  1  0.25177081  0.44934176  0.30010645  1
  S  S39  1  0.77088721  0.41749909  0.70417442  1
  S  S40  1  0.66269952  0.97049708  0.44489351  1
  S  S41  1  0.33354894  0.04229579  0.55996692  1
