# generated using pymatgen
data_Pr2Mn3(SbS3)4
_symmetry_space_group_name_H-M   'P 1'
_cell_length_a   20.02960800
_cell_length_b   3.90410600
_cell_length_c   14.95364829
_cell_angle_alpha   90.00000000
_cell_angle_beta   126.33350609
_cell_angle_gamma   90.00000000
_symmetry_Int_Tables_number   1
_chemical_formula_structural   Pr2Mn3(SbS3)4
_chemical_formula_sum   'Pr4 Mn6 Sb8 S24'
_cell_volume   942.00006694
_cell_formula_units_Z   2
loop_
 _symmetry_equiv_pos_site_id
 _symmetry_equiv_pos_as_xyz
  1  'x, y, z'
loop_
 _atom_site_type_symbol
 _atom_site_label
 _atom_site_symmetry_multiplicity
 _atom_site_fract_x
 _atom_site_fract_y
 _atom_site_fract_z
 _atom_site_occupancy
  Pr  Pr0  1  0.26080268  0.51398026  0.86434848  1
  Pr  Pr1  1  0.72728331  0.55165913  0.12756096  1
  Pr  Pr2  1  0.77038662  0.99329803  0.89098502  1
  Pr  Pr3  1  0.24589894  0.99170999  0.14962717  1
  Mn  Mn4  1  0.27503133  0.56889944  0.58513442  1
  Mn  Mn5  1  0.69736371  0.45368946  0.38351636  1
  Mn  Mn6  1  0.99519344  0.98659495  0.00505512  1
  Mn  Mn7  1  0.79101315  0.97967785  0.59871305  1
  Mn  Mn8  1  0.20701670  0.93132295  0.42150062  1
  Mn  Mn9  1  0.50107193  0.52658767  0.00890602  1
  Sb  Sb10  1  0.88816076  0.99975551  0.44377679  1
  Sb  Sb11  1  0.10681107  0.03314283  0.55223162  1
  Sb  Sb12  1  0.03080023  0.51778992  0.80942784  1
  Sb  Sb13  1  0.96607694  0.52092371  0.19218883  1
  Sb  Sb14  1  0.40224916  0.50398469  0.47104934  1
  Sb  Sb15  1  0.61214623  0.44700787  0.56724070  1
  Sb  Sb16  1  0.53431444  0.99159314  0.82326010  1
  Sb  Sb17  1  0.46573929  0.02447102  0.17840731  1
  S  S18  1  0.93344165  0.99765275  0.78985980  1
  S  S19  1  0.06043359  0.01498270  0.18794122  1
  S  S20  1  0.41758321  0.98043406  0.98856967  1
  S  S21  1  0.58419423  0.02788615  0.02296118  1
  S  S22  1  0.17685132  0.01637407  0.89399618  1
  S  S23  1  0.83399646  0.04517812  0.11697072  1
  S  S24  1  0.09101384  0.49238687  0.65306576  1
  S  S25  1  0.89138661  0.52797150  0.33112829  1
  S  S26  1  0.73153220  0.96025137  0.30742879  1
  S  S27  1  0.26170016  0.94028086  0.68111224  1
  S  S28  1  0.15830282  0.38152237  0.43753965  1
  S  S29  1  0.82738397  0.45214174  0.54149964  1
  S  S30  1  0.44751083  0.49408547  0.82136344  1
  S  S31  1  0.55960527  0.48706150  0.19569741  1
  S  S32  1  0.92304805  0.51880683  0.98902035  1
  S  S33  1  0.09346465  0.57690197  0.01334700  1
  S  S34  1  0.68209252  0.50064640  0.90499473  1
  S  S35  1  0.33911886  0.46185440  0.11079757  1
  S  S36  1  0.59721190  0.97359622  0.65669083  1
  S  S37  1  0.42358884  0.96177717  0.37150008  1
  S  S38  1  0.25170255  0.44788082  0.30009690  1
  S  S39  1  0.77114991  0.41729212  0.70454805  1
  S  S40  1  0.66311344  0.97093360  0.44526778  1
  S  S41  1  0.33322796  0.04403628  0.55961439  1
