# generated using pymatgen
data_Pr2Mn3(SbS3)4
_symmetry_space_group_name_H-M   'P 1'
_cell_length_a   20.02960800
_cell_length_b   3.90410600
_cell_length_c   14.95364829
_cell_angle_alpha   90.00000000
_cell_angle_beta   126.33350609
_cell_angle_gamma   90.00000000
_symmetry_Int_Tables_number   1
_chemical_formula_structural   Pr2Mn3(SbS3)4
_chemical_formula_sum   'Pr4 Mn6 Sb8 S24'
_cell_volume   942.00006694
_cell_formula_units_Z   2
loop_
 _symmetry_equiv_pos_site_id
 _symmetry_equiv_pos_as_xyz
  1  'x, y, z'
loop_
 _atom_site_type_symbol
 _atom_site_label
 _atom_site_symmetry_multiplicity
 _atom_site_fract_x
 _atom_site_fract_y
 _atom_site_fract_z
 _atom_site_occupancy
  Pr  Pr0  1  0.26074909  0.51384685  0.86431685  1
  Pr  Pr1  1  0.72748456  0.55151478  0.12765146  1
  Pr  Pr2  1  0.77024490  0.99343982  0.89063158  1
  Pr  Pr3  1  0.24603175  0.99189786  0.14972349  1
  Mn  Mn4  1  0.27548544  0.56808832  0.58555732  1
  Mn  Mn5  1  0.69741754  0.45191904  0.38399171  1
  Mn  Mn6  1  0.99508786  0.98664695  0.00484787  1
  Mn  Mn7  1  0.79101340  0.97973907  0.59849604  1
  Mn  Mn8  1  0.20691002  0.93098566  0.42131041  1
  Mn  Mn9  1  0.50132537  0.52700307  0.00934326  1
  Sb  Sb10  1  0.88804797  0.00032983  0.44376848  1
  Sb  Sb11  1  0.10683734  0.03323890  0.55224731  1
  Sb  Sb12  1  0.03069364  0.51771315  0.80928168  1
  Sb  Sb13  1  0.96620965  0.52128366  0.19227518  1
  Sb  Sb14  1  0.40220945  0.50417619  0.47103965  1
  Sb  Sb15  1  0.61222172  0.44643847  0.56750737  1
  Sb  Sb16  1  0.53429687  0.99166341  0.82305837  1
  Sb  Sb17  1  0.46569831  0.02495125  0.17823530  1
  S  S18  1  0.93339282  0.99839361  0.79013426  1
  S  S19  1  0.06012978  0.01360312  0.18763140  1
  S  S20  1  0.41745699  0.98110077  0.98825672  1
  S  S21  1  0.58425657  0.02835627  0.02271192  1
  S  S22  1  0.17689399  0.01650092  0.89364701  1
  S  S23  1  0.83404736  0.04369792  0.11717965  1
  S  S24  1  0.09073177  0.49177068  0.65318793  1
  S  S25  1  0.89124049  0.52809260  0.33097742  1
  S  S26  1  0.73183751  0.96035874  0.30767590  1
  S  S27  1  0.26166813  0.94048945  0.68115051  1
  S  S28  1  0.15837727  0.38301328  0.43781765  1
  S  S29  1  0.82693473  0.45158932  0.54086925  1
  S  S30  1  0.44777231  0.49349007  0.82190737  1
  S  S31  1  0.55938785  0.48700383  0.19567609  1
  S  S32  1  0.92311951  0.51896229  0.98899059  1
  S  S33  1  0.09341915  0.57747257  0.01347101  1
  S  S34  1  0.68171809  0.49917981  0.90449902  1
  S  S35  1  0.33929052  0.46116174  0.11098460  1
  S  S36  1  0.59719464  0.97406092  0.65672444  1
  S  S37  1  0.42344233  0.96240051  0.37159004  1
  S  S38  1  0.25181107  0.44668985  0.30039743  1
  S  S39  1  0.77136379  0.41641449  0.70483187  1
  S  S40  1  0.66354668  0.97112500  0.44568833  1
  S  S41  1  0.33293676  0.04607870  0.55933295  1
