# generated using pymatgen
data_Pr2Mn3(SbS3)4
_symmetry_space_group_name_H-M   'P 1'
_cell_length_a   20.02960800
_cell_length_b   3.90410600
_cell_length_c   14.95364829
_cell_angle_alpha   90.00000000
_cell_angle_beta   126.33350609
_cell_angle_gamma   90.00000000
_symmetry_Int_Tables_number   1
_chemical_formula_structural   Pr2Mn3(SbS3)4
_chemical_formula_sum   'Pr4 Mn6 Sb8 S24'
_cell_volume   942.00006694
_cell_formula_units_Z   2
loop_
 _symmetry_equiv_pos_site_id
 _symmetry_equiv_pos_as_xyz
  1  'x, y, z'
loop_
 _atom_site_type_symbol
 _atom_site_label
 _atom_site_symmetry_multiplicity
 _atom_site_fract_x
 _atom_site_fract_y
 _atom_site_fract_z
 _atom_site_occupancy
  Pr  Pr0  1  0.26993654  0.49765791  0.86683118  1
  Pr  Pr1  1  0.73378675  0.50988413  0.13334011  1
  Pr  Pr2  1  0.76326996  0.02526581  0.86161641  1
  Pr  Pr3  1  0.23382375  0.99531033  0.13151317  1
  Mn  Mn4  1  0.29373638  0.47854978  0.59705721  1
  Mn  Mn5  1  0.68654476  0.46282153  0.36489177  1
  Mn  Mn6  1  0.00608529  0.99040527  0.01240562  1
  Mn  Mn7  1  0.79855487  0.00171763  0.61890233  1
  Mn  Mn8  1  0.19737106  0.97792038  0.37012171  1
  Mn  Mn9  1  0.48759709  0.46756804  0.98656283  1
  Sb  Sb10  1  0.88925039  0.98595717  0.45172077  1
  Sb  Sb11  1  0.10929181  0.97829893  0.54454502  1
  Sb  Sb12  1  0.03510177  0.52233376  0.81867839  1
  Sb  Sb13  1  0.96552447  0.49858831  0.18965811  1
  Sb  Sb14  1  0.39258495  0.49919048  0.44794022  1
  Sb  Sb15  1  0.60568529  0.47242031  0.54817075  1
  Sb  Sb16  1  0.53380073  0.98487395  0.80879236  1
  Sb  Sb17  1  0.46526371  0.02069996  0.19081396  1
  S  S18  1  0.93697395  0.02396414  0.80825890  1
  S  S19  1  0.06431379  0.98833710  0.19878606  1
  S  S20  1  0.42144576  0.95490080  0.99258225  1
  S  S21  1  0.58441833  0.02862162  0.01328643  1
  S  S22  1  0.17035701  0.05664760  0.90011581  1
  S  S23  1  0.82773136  0.04740195  0.10233532  1
  S  S24  1  0.09076269  0.50741123  0.64702761  1
  S  S25  1  0.91612482  0.48298913  0.35932899  1
  S  S26  1  0.73673728  0.97866479  0.30058503  1
  S  S27  1  0.26135876  0.00040858  0.71155880  1
  S  S28  1  0.16503787  0.51572169  0.43157570  1
  S  S29  1  0.81820328  0.48151005  0.54712369  1
  S  S30  1  0.43153877  0.47715035  0.79664840  1
  S  S31  1  0.55484124  0.52044251  0.18110730  1
  S  S32  1  0.91719525  0.49309211  0.98952207  1
  S  S33  1  0.09074185  0.49400889  0.03275473  1
  S  S34  1  0.66450451  0.55014101  0.89379599  1
  S  S35  1  0.32628537  0.49616224  0.09310725  1
  S  S36  1  0.59543326  0.00259445  0.65344505  1
  S  S37  1  0.39995102  0.98121601  0.34379940  1
  S  S38  1  0.24284905  0.46780809  0.31594730  1
  S  S39  1  0.76030536  0.52328205  0.68850148  1
  S  S40  1  0.66531133  0.00133315  0.45010981  1
  S  S41  1  0.33129201  0.98168383  0.55546601  1
