# generated using pymatgen
data_Pr2Mn3(SbS3)4
_symmetry_space_group_name_H-M   'P 1'
_cell_length_a   20.02960800
_cell_length_b   3.90410600
_cell_length_c   14.95364829
_cell_angle_alpha   90.00000000
_cell_angle_beta   126.33350609
_cell_angle_gamma   90.00000000
_symmetry_Int_Tables_number   1
_chemical_formula_structural   Pr2Mn3(SbS3)4
_chemical_formula_sum   'Pr4 Mn6 Sb8 S24'
_cell_volume   942.00006694
_cell_formula_units_Z   2
loop_
 _symmetry_equiv_pos_site_id
 _symmetry_equiv_pos_as_xyz
  1  'x, y, z'
loop_
 _atom_site_type_symbol
 _atom_site_label
 _atom_site_symmetry_multiplicity
 _atom_site_fract_x
 _atom_site_fract_y
 _atom_site_fract_z
 _atom_site_occupancy
  Pr  Pr0  1  0.26063799  0.51358812  0.86414269  1
  Pr  Pr1  1  0.72770515  0.55175091  0.12773190  1
  Pr  Pr2  1  0.77006892  0.99364595  0.89033795  1
  Pr  Pr3  1  0.24612429  0.99182765  0.14982580  1
  Mn  Mn4  1  0.27604766  0.56746489  0.58604243  1
  Mn  Mn5  1  0.69740337  0.44975058  0.38435976  1
  Mn  Mn6  1  0.99494120  0.98652471  0.00457570  1
  Mn  Mn7  1  0.79097620  0.97983389  0.59821999  1
  Mn  Mn8  1  0.20687151  0.93115354  0.42110949  1
  Mn  Mn9  1  0.50155870  0.52677448  0.00977325  1
  Sb  Sb10  1  0.88798975  0.00101851  0.44377039  1
  Sb  Sb11  1  0.10694832  0.03349681  0.55234165  1
  Sb  Sb12  1  0.03058276  0.51772887  0.80912882  1
  Sb  Sb13  1  0.96635348  0.52144205  0.19236040  1
  Sb  Sb14  1  0.40219711  0.50457158  0.47107240  1
  Sb  Sb15  1  0.61227004  0.44600679  0.56776268  1
  Sb  Sb16  1  0.53414516  0.99155099  0.82276586  1
  Sb  Sb17  1  0.46563493  0.02529692  0.17810566  1
  S  S18  1  0.93344015  0.99919396  0.79046682  1
  S  S19  1  0.05981771  0.01279032  0.18730158  1
  S  S20  1  0.41742302  0.98152565  0.98781086  1
  S  S21  1  0.58419083  0.02910192  0.02259987  1
  S  S22  1  0.17704594  0.01612092  0.89353339  1
  S  S23  1  0.83410714  0.04299537  0.11758957  1
  S  S24  1  0.09049619  0.49094829  0.65328780  1
  S  S25  1  0.89102883  0.52779290  0.33071971  1
  S  S26  1  0.73198726  0.96087075  0.30775139  1
  S  S27  1  0.26160952  0.94001929  0.68110468  1
  S  S28  1  0.15835433  0.38455596  0.43808562  1
  S  S29  1  0.82656133  0.45213624  0.54021042  1
  S  S30  1  0.44794461  0.49293315  0.82226203  1
  S  S31  1  0.55927665  0.48724192  0.19570953  1
  S  S32  1  0.92307339  0.51892738  0.98904315  1
  S  S33  1  0.09326129  0.57796737  0.01352351  1
  S  S34  1  0.68145852  0.49758779  0.90407317  1
  S  S35  1  0.33933000  0.46020104  0.11115708  1
  S  S36  1  0.59719756  0.97458743  0.65672590  1
  S  S37  1  0.42330886  0.96296324  0.37179237  1
  S  S38  1  0.25191836  0.44525229  0.30078229  1
  S  S39  1  0.77177731  0.41558092  0.70514766  1
  S  S40  1  0.66409532  0.97126824  0.44630258  1
  S  S41  1  0.33264947  0.04758583  0.55902701  1
