# generated using pymatgen
data_Pr2Mn3(SbS3)4
_symmetry_space_group_name_H-M   'P 1'
_cell_length_a   20.02960800
_cell_length_b   3.90410600
_cell_length_c   14.95364829
_cell_angle_alpha   90.00000000
_cell_angle_beta   126.33350609
_cell_angle_gamma   90.00000000
_symmetry_Int_Tables_number   1
_chemical_formula_structural   Pr2Mn3(SbS3)4
_chemical_formula_sum   'Pr4 Mn6 Sb8 S24'
_cell_volume   942.00006694
_cell_formula_units_Z   2
loop_
 _symmetry_equiv_pos_site_id
 _symmetry_equiv_pos_as_xyz
  1  'x, y, z'
loop_
 _atom_site_type_symbol
 _atom_site_label
 _atom_site_symmetry_multiplicity
 _atom_site_fract_x
 _atom_site_fract_y
 _atom_site_fract_z
 _atom_site_occupancy
  Pr  Pr0  1  0.26051411  0.51345578  0.86396573  1
  Pr  Pr1  1  0.72784423  0.55172825  0.12770441  1
  Pr  Pr2  1  0.76995912  0.99397730  0.89011150  1
  Pr  Pr3  1  0.24618117  0.99198184  0.14994924  1
  Mn  Mn4  1  0.27651385  0.56673519  0.58641462  1
  Mn  Mn5  1  0.69745835  0.44725251  0.38478415  1
  Mn  Mn6  1  0.99476898  0.98697400  0.00426113  1
  Mn  Mn7  1  0.79091097  0.98009695  0.59800958  1
  Mn  Mn8  1  0.20685977  0.93139366  0.42080430  1
  Mn  Mn9  1  0.50179700  0.52644432  0.01015131  1
  Sb  Sb10  1  0.88792700  0.00167961  0.44374187  1
  Sb  Sb11  1  0.10707992  0.03356890  0.55248464  1
  Sb  Sb12  1  0.03045640  0.51765901  0.80897784  1
  Sb  Sb13  1  0.96643814  0.52179088  0.19236845  1
  Sb  Sb14  1  0.40215373  0.50462102  0.47098557  1
  Sb  Sb15  1  0.61233591  0.44552561  0.56799942  1
  Sb  Sb16  1  0.53392237  0.99166291  0.82242929  1
  Sb  Sb17  1  0.46560314  0.02553840  0.17808517  1
  S  S18  1  0.93352125  0.00007796  0.79078448  1
  S  S19  1  0.05942941  0.01231813  0.18669269  1
  S  S20  1  0.41731612  0.98200116  0.98716476  1
  S  S21  1  0.58416886  0.02981348  0.02259335  1
  S  S22  1  0.17716546  0.01566575  0.89321718  1
  S  S23  1  0.83419469  0.04288792  0.11800927  1
  S  S24  1  0.09035047  0.48980870  0.65342100  1
  S  S25  1  0.89077056  0.52729223  0.33054482  1
  S  S26  1  0.73207980  0.96132493  0.30771713  1
  S  S27  1  0.26144885  0.94004324  0.68103835  1
  S  S28  1  0.15822648  0.38581249  0.43821691  1
  S  S29  1  0.82618544  0.45319656  0.53951636  1
  S  S30  1  0.44794327  0.49275728  0.82253266  1
  S  S31  1  0.55919624  0.48789403  0.19555625  1
  S  S32  1  0.92297794  0.51824497  0.98902664  1
  S  S33  1  0.09308740  0.57826200  0.01360399  1
  S  S34  1  0.68119932  0.49566567  0.90379580  1
  S  S35  1  0.33927866  0.45993087  0.11137831  1
  S  S36  1  0.59721275  0.97473278  0.65710579  1
  S  S37  1  0.42316505  0.96359992  0.37185446  1
  S  S38  1  0.25176672  0.44430409  0.30090048  1
  S  S39  1  0.77210438  0.41486067  0.70544013  1
  S  S40  1  0.66478683  0.97168550  0.44713250  1
  S  S41  1  0.33242189  0.04900700  0.55891780  1
