# generated using pymatgen
data_Pr2Mn3(SbS3)4
_symmetry_space_group_name_H-M   'P 1'
_cell_length_a   20.02960800
_cell_length_b   3.90410600
_cell_length_c   14.95364829
_cell_angle_alpha   90.00000000
_cell_angle_beta   126.33350609
_cell_angle_gamma   90.00000000
_symmetry_Int_Tables_number   1
_chemical_formula_structural   Pr2Mn3(SbS3)4
_chemical_formula_sum   'Pr4 Mn6 Sb8 S24'
_cell_volume   942.00006694
_cell_formula_units_Z   2
loop_
 _symmetry_equiv_pos_site_id
 _symmetry_equiv_pos_as_xyz
  1  'x, y, z'
loop_
 _atom_site_type_symbol
 _atom_site_label
 _atom_site_symmetry_multiplicity
 _atom_site_fract_x
 _atom_site_fract_y
 _atom_site_fract_z
 _atom_site_occupancy
  Pr  Pr0  1  0.26043724  0.51331523  0.86386900  1
  Pr  Pr1  1  0.72795903  0.55152649  0.12762089  1
  Pr  Pr2  1  0.76987645  0.99421206  0.88995134  1
  Pr  Pr3  1  0.24622012  0.99231029  0.15003459  1
  Mn  Mn4  1  0.27687680  0.56533493  0.58678885  1
  Mn  Mn5  1  0.69747379  0.44500905  0.38508222  1
  Mn  Mn6  1  0.99468201  0.98737635  0.00408280  1
  Mn  Mn7  1  0.79082749  0.98049444  0.59770588  1
  Mn  Mn8  1  0.20688329  0.93124018  0.42061188  1
  Mn  Mn9  1  0.50186163  0.52603156  0.01048398  1
  Sb  Sb10  1  0.88792215  0.00228451  0.44379932  1
  Sb  Sb11  1  0.10727428  0.03377681  0.55272077  1
  Sb  Sb12  1  0.03032673  0.51763780  0.80882714  1
  Sb  Sb13  1  0.96639551  0.52220794  0.19230905  1
  Sb  Sb14  1  0.40209348  0.50437030  0.47095065  1
  Sb  Sb15  1  0.61239224  0.44521374  0.56816526  1
  Sb  Sb16  1  0.53375547  0.99158053  0.82203655  1
  Sb  Sb17  1  0.46551843  0.02572026  0.17797258  1
  S  S18  1  0.93366395  0.00178063  0.79096936  1
  S  S19  1  0.05930793  0.01153035  0.18636557  1
  S  S20  1  0.41728608  0.98178484  0.98650123  1
  S  S21  1  0.58407229  0.03044534  0.02255748  1
  S  S22  1  0.17734346  0.01531661  0.89308624  1
  S  S23  1  0.83424869  0.04239717  0.11851173  1
  S  S24  1  0.09012097  0.48916469  0.65344827  1
  S  S25  1  0.89055397  0.52697036  0.33033867  1
  S  S26  1  0.73211518  0.96234535  0.30767370  1
  S  S27  1  0.26106850  0.93976286  0.68073777  1
  S  S28  1  0.15827883  0.38709376  0.43842063  1
  S  S29  1  0.82586068  0.45435202  0.53900772  1
  S  S30  1  0.44811847  0.49245455  0.82280961  1
  S  S31  1  0.55925572  0.48891046  0.19547532  1
  S  S32  1  0.92297637  0.51758318  0.98916601  1
  S  S33  1  0.09300385  0.57782432  0.01355590  1
  S  S34  1  0.68100656  0.49399361  0.90383479  1
  S  S35  1  0.33929215  0.46020931  0.11170216  1
  S  S36  1  0.59736329  0.97474030  0.65773323  1
  S  S37  1  0.42303538  0.96412162  0.37192329  1
  S  S38  1  0.25167002  0.44334109  0.30102515  1
  S  S39  1  0.77235392  0.41441260  0.70568965  1
  S  S40  1  0.66561965  0.97180251  0.44800033  1
  S  S41  1  0.33206917  0.05033515  0.55880741  1
