# generated using pymatgen
data_Pr2Mn3(SbS3)4
_symmetry_space_group_name_H-M   'P 1'
_cell_length_a   20.02960800
_cell_length_b   3.90410600
_cell_length_c   14.95364829
_cell_angle_alpha   90.00000000
_cell_angle_beta   126.33350609
_cell_angle_gamma   90.00000000
_symmetry_Int_Tables_number   1
_chemical_formula_structural   Pr2Mn3(SbS3)4
_chemical_formula_sum   'Pr4 Mn6 Sb8 S24'
_cell_volume   942.00006694
_cell_formula_units_Z   2
loop_
 _symmetry_equiv_pos_site_id
 _symmetry_equiv_pos_as_xyz
  1  'x, y, z'
loop_
 _atom_site_type_symbol
 _atom_site_label
 _atom_site_symmetry_multiplicity
 _atom_site_fract_x
 _atom_site_fract_y
 _atom_site_fract_z
 _atom_site_occupancy
  Pr  Pr0  1  0.26035563  0.51296704  0.86369491  1
  Pr  Pr1  1  0.72812737  0.55110055  0.12758398  1
  Pr  Pr2  1  0.76979773  0.99449931  0.88983051  1
  Pr  Pr3  1  0.24624751  0.99251666  0.15000397  1
  Mn  Mn4  1  0.27719326  0.56442192  0.58716748  1
  Mn  Mn5  1  0.69751162  0.44244381  0.38529323  1
  Mn  Mn6  1  0.99470802  0.98805095  0.00392985  1
  Mn  Mn7  1  0.79076370  0.98107822  0.59757247  1
  Mn  Mn8  1  0.20692446  0.93104245  0.42034060  1
  Mn  Mn9  1  0.50179203  0.52588232  0.01080682  1
  Sb  Sb10  1  0.88794530  0.00269751  0.44382386  1
  Sb  Sb11  1  0.10740831  0.03394288  0.55288170  1
  Sb  Sb12  1  0.03027674  0.51751899  0.80871445  1
  Sb  Sb13  1  0.96629460  0.52263514  0.19212660  1
  Sb  Sb14  1  0.40204441  0.50386425  0.47085442  1
  Sb  Sb15  1  0.61241630  0.44491286  0.56832379  1
  Sb  Sb16  1  0.53361241  0.99141549  0.82175693  1
  Sb  Sb17  1  0.46545553  0.02575258  0.17778624  1
  S  S18  1  0.93382268  0.00325911  0.79109961  1
  S  S19  1  0.05929747  0.01092329  0.18619141  1
  S  S20  1  0.41722967  0.98136149  0.98573872  1
  S  S21  1  0.58419839  0.03019439  0.02279757  1
  S  S22  1  0.17740761  0.01495451  0.89279406  1
  S  S23  1  0.83424094  0.04186564  0.11907998  1
  S  S24  1  0.08986175  0.48829902  0.65348148  1
  S  S25  1  0.89016612  0.52638675  0.33010853  1
  S  S26  1  0.73204616  0.96331248  0.30749885  1
  S  S27  1  0.26075771  0.94010866  0.68051333  1
  S  S28  1  0.15837201  0.38805513  0.43861804  1
  S  S29  1  0.82555700  0.45554453  0.53857233  1
  S  S30  1  0.44834003  0.49235780  0.82303500  1
  S  S31  1  0.55934191  0.48882948  0.19537031  1
  S  S32  1  0.92291918  0.51711393  0.98929653  1
  S  S33  1  0.09287318  0.57762696  0.01344320  1
  S  S34  1  0.68086760  0.49351619  0.90381439  1
  S  S35  1  0.33926805  0.46082269  0.11218421  1
  S  S36  1  0.59770005  0.97426803  0.65863819  1
  S  S37  1  0.42288994  0.96487953  0.37206539  1
  S  S38  1  0.25152588  0.44148516  0.30101420  1
  S  S39  1  0.77266831  0.41440571  0.70595518  1
  S  S40  1  0.66623805  0.97150066  0.44863907  1
  S  S41  1  0.33178173  0.05184240  0.55887541  1
