# generated using pymatgen
data_Pr2Mn3(SbS3)4
_symmetry_space_group_name_H-M   'P 1'
_cell_length_a   20.02960800
_cell_length_b   3.90410600
_cell_length_c   14.95364829
_cell_angle_alpha   90.00000000
_cell_angle_beta   126.33350609
_cell_angle_gamma   90.00000000
_symmetry_Int_Tables_number   1
_chemical_formula_structural   Pr2Mn3(SbS3)4
_chemical_formula_sum   'Pr4 Mn6 Sb8 S24'
_cell_volume   942.00006694
_cell_formula_units_Z   2
loop_
 _symmetry_equiv_pos_site_id
 _symmetry_equiv_pos_as_xyz
  1  'x, y, z'
loop_
 _atom_site_type_symbol
 _atom_site_label
 _atom_site_symmetry_multiplicity
 _atom_site_fract_x
 _atom_site_fract_y
 _atom_site_fract_z
 _atom_site_occupancy
  Pr  Pr0  1  0.26037130  0.51275784  0.86357437  1
  Pr  Pr1  1  0.72830375  0.55057229  0.12755799  1
  Pr  Pr2  1  0.76973505  0.99468505  0.88984852  1
  Pr  Pr3  1  0.24626296  0.99297727  0.14991245  1
  Mn  Mn4  1  0.27751169  0.56323343  0.58754944  1
  Mn  Mn5  1  0.69754395  0.44013485  0.38548465  1
  Mn  Mn6  1  0.99472711  0.98866609  0.00378594  1
  Mn  Mn7  1  0.79079396  0.98187512  0.59749265  1
  Mn  Mn8  1  0.20686585  0.93095354  0.41989737  1
  Mn  Mn9  1  0.50170085  0.52522948  0.01112854  1
  Sb  Sb10  1  0.88795378  0.00340176  0.44383389  1
  Sb  Sb11  1  0.10754058  0.03402597  0.55297157  1
  Sb  Sb12  1  0.03013632  0.51762615  0.80845603  1
  Sb  Sb13  1  0.96621484  0.52264953  0.19191926  1
  Sb  Sb14  1  0.40199111  0.50316063  0.47079411  1
  Sb  Sb15  1  0.61245718  0.44428739  0.56854138  1
  Sb  Sb16  1  0.53343775  0.99138800  0.82144062  1
  Sb  Sb17  1  0.46541239  0.02574032  0.17768017  1
  S  S18  1  0.93379131  0.00425062  0.79093390  1
  S  S19  1  0.05927502  0.01017707  0.18608766  1
  S  S20  1  0.41715595  0.98149342  0.98498355  1
  S  S21  1  0.58442642  0.03060682  0.02321868  1
  S  S22  1  0.17754059  0.01441398  0.89237162  1
  S  S23  1  0.83413955  0.04130233  0.11942339  1
  S  S24  1  0.08957407  0.48692083  0.65359263  1
  S  S25  1  0.88983442  0.52645839  0.32996457  1
  S  S26  1  0.73199076  0.96405352  0.30736391  1
  S  S27  1  0.26056107  0.94131052  0.68054664  1
  S  S28  1  0.15835884  0.38958485  0.43867083  1
  S  S29  1  0.82529721  0.45615667  0.53800090  1
  S  S30  1  0.44847258  0.49207404  0.82314435  1
  S  S31  1  0.55951094  0.48924054  0.19538187  1
  S  S32  1  0.92274179  0.51709628  0.98933387  1
  S  S33  1  0.09243729  0.57743788  0.01315142  1
  S  S34  1  0.68074694  0.49281358  0.90366404  1
  S  S35  1  0.33947694  0.46129459  0.11272160  1
  S  S36  1  0.59801787  0.97415416  0.65946712  1
  S  S37  1  0.42290356  0.96606698  0.37231970  1
  S  S38  1  0.25147311  0.43987791  0.30095190  1
  S  S39  1  0.77280503  0.41490690  0.70616516  1
  S  S40  1  0.66671805  0.97128817  0.44900440  1
  S  S41  1  0.33141716  0.05331012  0.55882548  1
