# generated using pymatgen
data_Pr2Mn3(SbS3)4
_symmetry_space_group_name_H-M   'P 1'
_cell_length_a   20.02960800
_cell_length_b   3.90410600
_cell_length_c   14.95364829
_cell_angle_alpha   90.00000000
_cell_angle_beta   126.33350609
_cell_angle_gamma   90.00000000
_symmetry_Int_Tables_number   1
_chemical_formula_structural   Pr2Mn3(SbS3)4
_chemical_formula_sum   'Pr4 Mn6 Sb8 S24'
_cell_volume   942.00006694
_cell_formula_units_Z   2
loop_
 _symmetry_equiv_pos_site_id
 _symmetry_equiv_pos_as_xyz
  1  'x, y, z'
loop_
 _atom_site_type_symbol
 _atom_site_label
 _atom_site_symmetry_multiplicity
 _atom_site_fract_x
 _atom_site_fract_y
 _atom_site_fract_z
 _atom_site_occupancy
  Pr  Pr0  1  0.26037797  0.51229506  0.86346795  1
  Pr  Pr1  1  0.72850327  0.54995421  0.12756017  1
  Pr  Pr2  1  0.76960286  0.99447453  0.88977960  1
  Pr  Pr3  1  0.24626720  0.99335742  0.14987384  1
  Mn  Mn4  1  0.27768960  0.56194476  0.58786441  1
  Mn  Mn5  1  0.69756071  0.43743866  0.38574331  1
  Mn  Mn6  1  0.99473274  0.98979719  0.00357027  1
  Mn  Mn7  1  0.79077598  0.98264696  0.59739252  1
  Mn  Mn8  1  0.20687868  0.93076717  0.41940044  1
  Mn  Mn9  1  0.50167568  0.52396959  0.01140171  1
  Sb  Sb10  1  0.88797914  0.00405761  0.44383293  1
  Sb  Sb11  1  0.10763549  0.03425917  0.55300308  1
  Sb  Sb12  1  0.03013701  0.51769554  0.80829716  1
  Sb  Sb13  1  0.96615259  0.52289908  0.19167290  1
  Sb  Sb14  1  0.40200123  0.50272915  0.47075617  1
  Sb  Sb15  1  0.61248876  0.44355073  0.56872968  1
  Sb  Sb16  1  0.53333044  0.99152387  0.82124740  1
  Sb  Sb17  1  0.46535279  0.02598058  0.17747801  1
  S  S18  1  0.93385531  0.00484411  0.79090732  1
  S  S19  1  0.05925316  0.00934003  0.18599368  1
  S  S20  1  0.41708383  0.98144880  0.98430376  1
  S  S21  1  0.58456241  0.03150859  0.02351702  1
  S  S22  1  0.17769115  0.01399146  0.89204315  1
  S  S23  1  0.83415199  0.04074968  0.11987759  1
  S  S24  1  0.08939476  0.48573306  0.65383693  1
  S  S25  1  0.88942000  0.52652646  0.32976597  1
  S  S26  1  0.73183541  0.96557841  0.30712447  1
  S  S27  1  0.26052615  0.94180461  0.68052562  1
  S  S28  1  0.15834569  0.39106106  0.43868349  1
  S  S29  1  0.82517878  0.45591490  0.53759436  1
  S  S30  1  0.44872595  0.49279090  0.82324619  1
  S  S31  1  0.55957195  0.48971440  0.19538398  1
  S  S32  1  0.92273652  0.51727590  0.98939177  1
  S  S33  1  0.09186863  0.57702657  0.01278841  1
  S  S34  1  0.68053270  0.49160457  0.90343341  1
  S  S35  1  0.33971115  0.46191645  0.11330503  1
  S  S36  1  0.59826656  0.97384642  0.66028202  1
  S  S37  1  0.42294103  0.96703224  0.37265099  1
  S  S38  1  0.25141020  0.43813696  0.30088047  1
  S  S39  1  0.77298052  0.41562780  0.70654628  1
  S  S40  1  0.66720837  0.97205359  0.44942529  1
  S  S41  1  0.33116009  0.05438314  0.55882016  1
