# generated using pymatgen
data_Pr2Mn3(SbS3)4
_symmetry_space_group_name_H-M   'P 1'
_cell_length_a   20.02960800
_cell_length_b   3.90410600
_cell_length_c   14.95364829
_cell_angle_alpha   90.00000000
_cell_angle_beta   126.33350609
_cell_angle_gamma   90.00000000
_symmetry_Int_Tables_number   1
_chemical_formula_structural   Pr2Mn3(SbS3)4
_chemical_formula_sum   'Pr4 Mn6 Sb8 S24'
_cell_volume   942.00006694
_cell_formula_units_Z   2
loop_
 _symmetry_equiv_pos_site_id
 _symmetry_equiv_pos_as_xyz
  1  'x, y, z'
loop_
 _atom_site_type_symbol
 _atom_site_label
 _atom_site_symmetry_multiplicity
 _atom_site_fract_x
 _atom_site_fract_y
 _atom_site_fract_z
 _atom_site_occupancy
  Pr  Pr0  1  0.26035656  0.51216604  0.86337160  1
  Pr  Pr1  1  0.72872360  0.54969121  0.12755156  1
  Pr  Pr2  1  0.76946235  0.99424999  0.88975363  1
  Pr  Pr3  1  0.24632327  0.99347412  0.14988418  1
  Mn  Mn4  1  0.27788585  0.56081724  0.58820320  1
  Mn  Mn5  1  0.69755445  0.43482338  0.38594851  1
  Mn  Mn6  1  0.99468860  0.99084519  0.00323426  1
  Mn  Mn7  1  0.79071749  0.98336897  0.59729076  1
  Mn  Mn8  1  0.20683461  0.93096931  0.41878856  1
  Mn  Mn9  1  0.50167741  0.52239557  0.01166257  1
  Sb  Sb10  1  0.88796848  0.00462104  0.44372870  1
  Sb  Sb11  1  0.10763332  0.03429409  0.55299034  1
  Sb  Sb12  1  0.03019758  0.51779457  0.80812387  1
  Sb  Sb13  1  0.96609615  0.52340467  0.19133273  1
  Sb  Sb14  1  0.40208706  0.50254826  0.47076283  1
  Sb  Sb15  1  0.61246955  0.44283175  0.56888226  1
  Sb  Sb16  1  0.53313082  0.99171860  0.82098899  1
  Sb  Sb17  1  0.46536396  0.02615989  0.17724118  1
  S  S18  1  0.93382756  0.00611299  0.79065478  1
  S  S19  1  0.05930069  0.00846369  0.18583269  1
  S  S20  1  0.41694903  0.98188602  0.98359991  1
  S  S21  1  0.58463766  0.03199453  0.02375607  1
  S  S22  1  0.17781223  0.01329773  0.89181747  1
  S  S23  1  0.83414719  0.04043657  0.12028782  1
  S  S24  1  0.08919447  0.48464216  0.65401977  1
  S  S25  1  0.88914436  0.52652017  0.32970758  1
  S  S26  1  0.73171041  0.96630911  0.30686810  1
  S  S27  1  0.26061824  0.94223949  0.68055601  1
  S  S28  1  0.15822850  0.39222951  0.43852170  1
  S  S29  1  0.82512561  0.45541915  0.53727264  1
  S  S30  1  0.44880560  0.49318848  0.82332438  1
  S  S31  1  0.55951522  0.49009607  0.19536572  1
  S  S32  1  0.92280623  0.51717872  0.98936756  1
  S  S33  1  0.09136156  0.57637572  0.01243874  1
  S  S34  1  0.68037230  0.49041596  0.90333816  1
  S  S35  1  0.33991653  0.46166773  0.11394284  1
  S  S36  1  0.59864654  0.97418965  0.66127135  1
  S  S37  1  0.42297291  0.96855697  0.37285353  1
  S  S38  1  0.25144576  0.43636353  0.30119666  1
  S  S39  1  0.77311586  0.41644528  0.70673751  1
  S  S40  1  0.66755071  0.97278897  0.44955792  1
  S  S41  1  0.33108570  0.05507628  0.55903268  1
