# generated using pymatgen
data_Pr2Mn3(SbS3)4
_symmetry_space_group_name_H-M   'P 1'
_cell_length_a   20.02960800
_cell_length_b   3.90410600
_cell_length_c   14.95364829
_cell_angle_alpha   90.00000000
_cell_angle_beta   126.33350609
_cell_angle_gamma   90.00000000
_symmetry_Int_Tables_number   1
_chemical_formula_structural   Pr2Mn3(SbS3)4
_chemical_formula_sum   'Pr4 Mn6 Sb8 S24'
_cell_volume   942.00006694
_cell_formula_units_Z   2
loop_
 _symmetry_equiv_pos_site_id
 _symmetry_equiv_pos_as_xyz
  1  'x, y, z'
loop_
 _atom_site_type_symbol
 _atom_site_label
 _atom_site_symmetry_multiplicity
 _atom_site_fract_x
 _atom_site_fract_y
 _atom_site_fract_z
 _atom_site_occupancy
  Pr  Pr0  1  0.26040884  0.51178198  0.86336750  1
  Pr  Pr1  1  0.72889910  0.54968398  0.12748903  1
  Pr  Pr2  1  0.76929076  0.99408342  0.88974689  1
  Pr  Pr3  1  0.24646037  0.99355326  0.14989066  1
  Mn  Mn4  1  0.27812553  0.55996066  0.58852338  1
  Mn  Mn5  1  0.69750906  0.43302053  0.38611490  1
  Mn  Mn6  1  0.99457310  0.99201464  0.00279467  1
  Mn  Mn7  1  0.79076016  0.98390715  0.59718989  1
  Mn  Mn8  1  0.20672451  0.93071825  0.41830421  1
  Mn  Mn9  1  0.50173426  0.52119395  0.01212286  1
  Sb  Sb10  1  0.88793940  0.00526657  0.44364238  1
  Sb  Sb11  1  0.10770265  0.03458876  0.55304156  1
  Sb  Sb12  1  0.03034604  0.51799836  0.80798840  1
  Sb  Sb13  1  0.96605686  0.52393465  0.19104114  1
  Sb  Sb14  1  0.40221587  0.50213451  0.47077184  1
  Sb  Sb15  1  0.61241099  0.44187320  0.56899434  1
  Sb  Sb16  1  0.53296772  0.99194000  0.82084301  1
  Sb  Sb17  1  0.46541039  0.02606620  0.17703948  1
  S  S18  1  0.93368261  0.00731676  0.79029124  1
  S  S19  1  0.05928978  0.00800187  0.18572346  1
  S  S20  1  0.41684348  0.98252176  0.98297075  1
  S  S21  1  0.58477076  0.03292880  0.02412764  1
  S  S22  1  0.17776181  0.01264389  0.89142928  1
  S  S23  1  0.83427392  0.04041808  0.12078241  1
  S  S24  1  0.08891260  0.48377423  0.65415878  1
  S  S25  1  0.88903087  0.52641016  0.32962624  1
  S  S26  1  0.73152435  0.96692082  0.30671996  1
  S  S27  1  0.26057010  0.94353904  0.68045282  1
  S  S28  1  0.15819994  0.39316936  0.43843413  1
  S  S29  1  0.82515796  0.45458575  0.53699429  1
  S  S30  1  0.44872361  0.49365862  0.82336206  1
  S  S31  1  0.55942181  0.49015607  0.19517203  1
  S  S32  1  0.92274916  0.51668512  0.98926044  1
  S  S33  1  0.09081984  0.57525366  0.01217647  1
  S  S34  1  0.68025490  0.48951752  0.90313789  1
  S  S35  1  0.34021649  0.46104796  0.11460110  1
  S  S36  1  0.59886847  0.97451879  0.66208321  1
  S  S37  1  0.42310558  0.97025205  0.37307264  1
  S  S38  1  0.25151257  0.43439615  0.30142643  1
  S  S39  1  0.77311978  0.41614444  0.70674043  1
  S  S40  1  0.66785564  0.97298062  0.44957825  1
  S  S41  1  0.33097706  0.05514373  0.55906387  1
