# generated using pymatgen
data_Pr2Mn3(SbS3)4
_symmetry_space_group_name_H-M   'P 1'
_cell_length_a   20.02960800
_cell_length_b   3.90410600
_cell_length_c   14.95364829
_cell_angle_alpha   90.00000000
_cell_angle_beta   126.33350609
_cell_angle_gamma   90.00000000
_symmetry_Int_Tables_number   1
_chemical_formula_structural   Pr2Mn3(SbS3)4
_chemical_formula_sum   'Pr4 Mn6 Sb8 S24'
_cell_volume   942.00006694
_cell_formula_units_Z   2
loop_
 _symmetry_equiv_pos_site_id
 _symmetry_equiv_pos_as_xyz
  1  'x, y, z'
loop_
 _atom_site_type_symbol
 _atom_site_label
 _atom_site_symmetry_multiplicity
 _atom_site_fract_x
 _atom_site_fract_y
 _atom_site_fract_z
 _atom_site_occupancy
  Pr  Pr0  1  0.26046475  0.51137533  0.86339982  1
  Pr  Pr1  1  0.72906002  0.54995013  0.12737224  1
  Pr  Pr2  1  0.76911679  0.99418272  0.88969655  1
  Pr  Pr3  1  0.24654506  0.99352347  0.14979497  1
  Mn  Mn4  1  0.27842832  0.55945564  0.58894645  1
  Mn  Mn5  1  0.69756346  0.43155215  0.38637095  1
  Mn  Mn6  1  0.99464538  0.99317727  0.00250204  1
  Mn  Mn7  1  0.79077864  0.98349743  0.59701834  1
  Mn  Mn8  1  0.20658559  0.93021438  0.41778776  1
  Mn  Mn9  1  0.50176457  0.51998037  0.01248319  1
  Sb  Sb10  1  0.88787010  0.00588348  0.44353142  1
  Sb  Sb11  1  0.10782068  0.03532139  0.55309891  1
  Sb  Sb12  1  0.03041396  0.51852355  0.80776200  1
  Sb  Sb13  1  0.96606804  0.52422925  0.19081905  1
  Sb  Sb14  1  0.40232425  0.50183018  0.47076367  1
  Sb  Sb15  1  0.61240801  0.44107233  0.56914130  1
  Sb  Sb16  1  0.53280918  0.99197294  0.82067555  1
  Sb  Sb17  1  0.46543949  0.02598460  0.17685182  1
  S  S18  1  0.93366509  0.00865271  0.79009807  1
  S  S19  1  0.05935923  0.00693267  0.18562945  1
  S  S20  1  0.41665834  0.98320541  0.98224147  1
  S  S21  1  0.58485726  0.03415297  0.02436380  1
  S  S22  1  0.17772286  0.01260926  0.89123981  1
  S  S23  1  0.83441714  0.04019235  0.12127673  1
  S  S24  1  0.08863621  0.48300035  0.65422074  1
  S  S25  1  0.88884910  0.52594384  0.32941084  1
  S  S26  1  0.73141760  0.96691483  0.30656602  1
  S  S27  1  0.26050387  0.94482971  0.68035489  1
  S  S28  1  0.15805299  0.39398570  0.43834983  1
  S  S29  1  0.82516006  0.45350247  0.53664048  1
  S  S30  1  0.44876775  0.49403362  0.82334498  1
  S  S31  1  0.55952550  0.49034286  0.19517356  1
  S  S32  1  0.92275751  0.51601850  0.98913565  1
  S  S33  1  0.09044307  0.57381198  0.01214669  1
  S  S34  1  0.68013211  0.48869926  0.90298065  1
  S  S35  1  0.34044381  0.46081511  0.11516875  1
  S  S36  1  0.59891781  0.97490999  0.66287249  1
  S  S37  1  0.42338565  0.97198950  0.37341511  1
  S  S38  1  0.25148562  0.43283528  0.30157701  1
  S  S39  1  0.77322017  0.41498649  0.70666828  1
  S  S40  1  0.66808703  0.97333570  0.44964774  1
  S  S41  1  0.33088630  0.05490939  0.55906552  1
