# generated using pymatgen
data_Pr2Mn3(SbS3)4
_symmetry_space_group_name_H-M   'P 1'
_cell_length_a   20.02960800
_cell_length_b   3.90410600
_cell_length_c   14.95364829
_cell_angle_alpha   90.00000000
_cell_angle_beta   126.33350609
_cell_angle_gamma   90.00000000
_symmetry_Int_Tables_number   1
_chemical_formula_structural   Pr2Mn3(SbS3)4
_chemical_formula_sum   'Pr4 Mn6 Sb8 S24'
_cell_volume   942.00006694
_cell_formula_units_Z   2
loop_
 _symmetry_equiv_pos_site_id
 _symmetry_equiv_pos_as_xyz
  1  'x, y, z'
loop_
 _atom_site_type_symbol
 _atom_site_label
 _atom_site_symmetry_multiplicity
 _atom_site_fract_x
 _atom_site_fract_y
 _atom_site_fract_z
 _atom_site_occupancy
  Pr  Pr0  1  0.26038222  0.51117043  0.86330172  1
  Pr  Pr1  1  0.72924583  0.55004924  0.12724875  1
  Pr  Pr2  1  0.76900015  0.99445257  0.88966189  1
  Pr  Pr3  1  0.24661451  0.99353737  0.14972966  1
  Mn  Mn4  1  0.27873188  0.55884169  0.58930204  1
  Mn  Mn5  1  0.69757799  0.42996944  0.38659041  1
  Mn  Mn6  1  0.99465365  0.99388716  0.00209235  1
  Mn  Mn7  1  0.79089360  0.98295172  0.59689815  1
  Mn  Mn8  1  0.20649163  0.92972587  0.41739350  1
  Mn  Mn9  1  0.50173528  0.51907083  0.01264252  1
  Sb  Sb10  1  0.88775457  0.00640545  0.44334470  1
  Sb  Sb11  1  0.10802364  0.03601092  0.55333268  1
  Sb  Sb12  1  0.03056988  0.51902205  0.80761387  1
  Sb  Sb13  1  0.96609546  0.52466806  0.19067071  1
  Sb  Sb14  1  0.40242141  0.50149018  0.47079778  1
  Sb  Sb15  1  0.61238514  0.44032697  0.56927285  1
  Sb  Sb16  1  0.53263817  0.99217725  0.82049609  1
  Sb  Sb17  1  0.46550562  0.02605199  0.17674592  1
  S  S18  1  0.93372548  0.00916837  0.78990256  1
  S  S19  1  0.05953093  0.00617726  0.18575701  1
  S  S20  1  0.41638051  0.98369172  0.98157722  1
  S  S21  1  0.58478962  0.03468801  0.02451907  1
  S  S22  1  0.17764036  0.01254254  0.89122321  1
  S  S23  1  0.83454496  0.03993393  0.12176340  1
  S  S24  1  0.08857274  0.48239573  0.65450768  1
  S  S25  1  0.88866659  0.52542160  0.32922138  1
  S  S26  1  0.73123554  0.96731428  0.30643959  1
  S  S27  1  0.26060908  0.94659897  0.68027746  1
  S  S28  1  0.15802727  0.39494808  0.43832695  1
  S  S29  1  0.82522664  0.45332203  0.53634153  1
  S  S30  1  0.44883636  0.49462609  0.82326838  1
  S  S31  1  0.55958924  0.49087212  0.19519701  1
  S  S32  1  0.92271718  0.51586194  0.98901682  1
  S  S33  1  0.09019609  0.57295591  0.01228683  1
  S  S34  1  0.68006569  0.48854850  0.90265602  1
  S  S35  1  0.34061313  0.46104121  0.11556029  1
  S  S36  1  0.59894057  0.97539362  0.66366125  1
  S  S37  1  0.42362729  0.97388051  0.37372009  1
  S  S38  1  0.25148584  0.43125153  0.30175780  1
  S  S39  1  0.77316636  0.41416042  0.70642710  1
  S  S40  1  0.66828122  0.97406435  0.44962107  1
  S  S41  1  0.33082675  0.05465074  0.55911724  1
