# generated using pymatgen
data_Pr2Mn3(SbS3)4
_symmetry_space_group_name_H-M   'P 1'
_cell_length_a   20.02960800
_cell_length_b   3.90410600
_cell_length_c   14.95364829
_cell_angle_alpha   90.00000000
_cell_angle_beta   126.33350609
_cell_angle_gamma   90.00000000
_symmetry_Int_Tables_number   1
_chemical_formula_structural   Pr2Mn3(SbS3)4
_chemical_formula_sum   'Pr4 Mn6 Sb8 S24'
_cell_volume   942.00006694
_cell_formula_units_Z   2
loop_
 _symmetry_equiv_pos_site_id
 _symmetry_equiv_pos_as_xyz
  1  'x, y, z'
loop_
 _atom_site_type_symbol
 _atom_site_label
 _atom_site_symmetry_multiplicity
 _atom_site_fract_x
 _atom_site_fract_y
 _atom_site_fract_z
 _atom_site_occupancy
  Pr  Pr0  1  0.27001155  0.49764097  0.86694666  1
  Pr  Pr1  1  0.73383495  0.51021247  0.13325755  1
  Pr  Pr2  1  0.76336722  0.02543638  0.86171114  1
  Pr  Pr3  1  0.23383075  0.99496875  0.13147667  1
  Mn  Mn4  1  0.29395920  0.47892714  0.59743544  1
  Mn  Mn5  1  0.68660619  0.46252513  0.36478508  1
  Mn  Mn6  1  0.00593989  0.98999306  0.01219416  1
  Mn  Mn7  1  0.79842118  0.00079866  0.61883656  1
  Mn  Mn8  1  0.19717175  0.97864120  0.36977299  1
  Mn  Mn9  1  0.48752058  0.46783519  0.98638114  1
  Sb  Sb10  1  0.88916729  0.98622671  0.45180277  1
  Sb  Sb11  1  0.10923443  0.97838009  0.54455126  1
  Sb  Sb12  1  0.03513878  0.52285091  0.81870677  1
  Sb  Sb13  1  0.96566244  0.49854624  0.18977663  1
  Sb  Sb14  1  0.39256736  0.49936883  0.44785547  1
  Sb  Sb15  1  0.60568830  0.47296638  0.54810661  1
  Sb  Sb16  1  0.53376072  0.98429349  0.80876195  1
  Sb  Sb17  1  0.46524468  0.01994708  0.19065220  1
  S  S18  1  0.93682894  0.02474979  0.80819609  1
  S  S19  1  0.06437230  0.98889591  0.19889648  1
  S  S20  1  0.42136487  0.95440582  0.99241262  1
  S  S21  1  0.58462616  0.02725987  0.01355708  1
  S  S22  1  0.17011861  0.05629733  0.90009636  1
  S  S23  1  0.82758281  0.04648572  0.10218671  1
  S  S24  1  0.09068872  0.50755141  0.64674205  1
  S  S25  1  0.91631243  0.48245776  0.35942250  1
  S  S26  1  0.73716809  0.98000590  0.30118572  1
  S  S27  1  0.26142873  0.00040408  0.71191570  1
  S  S28  1  0.16531502  0.51612993  0.43191344  1
  S  S29  1  0.81819536  0.48187124  0.54714279  1
  S  S30  1  0.43152299  0.47713144  0.79673492  1
  S  S31  1  0.55491375  0.52055856  0.18101585  1
  S  S32  1  0.91751658  0.49385976  0.98949922  1
  S  S33  1  0.09094516  0.49360599  0.03274634  1
  S  S34  1  0.66445992  0.55019645  0.89400789  1
  S  S35  1  0.32627310  0.49520482  0.09317696  1
  S  S36  1  0.59513846  0.00227850  0.65297498  1
  S  S37  1  0.39968807  0.98217834  0.34355315  1
  S  S38  1  0.24287522  0.46697847  0.31605852  1
  S  S39  1  0.76039261  0.52329931  0.68843531  1
  S  S40  1  0.66522913  0.00146371  0.45005501  1
  S  S41  1  0.33141078  0.98091400  0.55559386  1
