# generated using pymatgen
data_Pr2Mn3(SbS3)4
_symmetry_space_group_name_H-M   'P 1'
_cell_length_a   20.02960800
_cell_length_b   3.90410600
_cell_length_c   14.95364829
_cell_angle_alpha   90.00000000
_cell_angle_beta   126.33350609
_cell_angle_gamma   90.00000000
_symmetry_Int_Tables_number   1
_chemical_formula_structural   Pr2Mn3(SbS3)4
_chemical_formula_sum   'Pr4 Mn6 Sb8 S24'
_cell_volume   942.00006694
_cell_formula_units_Z   2
loop_
 _symmetry_equiv_pos_site_id
 _symmetry_equiv_pos_as_xyz
  1  'x, y, z'
loop_
 _atom_site_type_symbol
 _atom_site_label
 _atom_site_symmetry_multiplicity
 _atom_site_fract_x
 _atom_site_fract_y
 _atom_site_fract_z
 _atom_site_occupancy
  Pr  Pr0  1  0.26036222  0.51080367  0.86333133  1
  Pr  Pr1  1  0.72948833  0.54977086  0.12722753  1
  Pr  Pr2  1  0.76885557  0.99449051  0.88960106  1
  Pr  Pr3  1  0.24660806  0.99337901  0.14963288  1
  Mn  Mn4  1  0.27908415  0.55867874  0.58971609  1
  Mn  Mn5  1  0.69759779  0.42893320  0.38679240  1
  Mn  Mn6  1  0.99470039  0.99414404  0.00189822  1
  Mn  Mn7  1  0.79108508  0.98225979  0.59686700  1
  Mn  Mn8  1  0.20635272  0.92951912  0.41698363  1
  Mn  Mn9  1  0.50174283  0.51768669  0.01270345  1
  Sb  Sb10  1  0.88761990  0.00734008  0.44308745  1
  Sb  Sb11  1  0.10819532  0.03665101  0.55362840  1
  Sb  Sb12  1  0.03074040  0.51902563  0.80753234  1
  Sb  Sb13  1  0.96610553  0.52464731  0.19051058  1
  Sb  Sb14  1  0.40260866  0.50135315  0.47092203  1
  Sb  Sb15  1  0.61246402  0.43960568  0.56940979  1
  Sb  Sb16  1  0.53254323  0.99255886  0.82046698  1
  Sb  Sb17  1  0.46562369  0.02615264  0.17667009  1
  S  S18  1  0.93385053  0.01018787  0.78986361  1
  S  S19  1  0.05977246  0.00516324  0.18595425  1
  S  S20  1  0.41614075  0.98448703  0.98119079  1
  S  S21  1  0.58467408  0.03517373  0.02470384  1
  S  S22  1  0.17760108  0.01280472  0.89117725  1
  S  S23  1  0.83447748  0.03904109  0.12216102  1
  S  S24  1  0.08845032  0.48144248  0.65458558  1
  S  S25  1  0.88846456  0.52514842  0.32911512  1
  S  S26  1  0.73107145  0.96755127  0.30636049  1
  S  S27  1  0.26066989  0.94795884  0.68032549  1
  S  S28  1  0.15794472  0.39621918  0.43832967  1
  S  S29  1  0.82537303  0.45290429  0.53622779  1
  S  S30  1  0.44884255  0.49474848  0.82300887  1
  S  S31  1  0.55960161  0.49134333  0.19523389  1
  S  S32  1  0.92273992  0.51599747  0.98901983  1
  S  S33  1  0.08986929  0.57187389  0.01228961  1
  S  S34  1  0.67997163  0.48803668  0.90225740  1
  S  S35  1  0.34079576  0.46058565  0.11595725  1
  S  S36  1  0.59883923  0.97582290  0.66440764  1
  S  S37  1  0.42387278  0.97520881  0.37408104  1
  S  S38  1  0.25134862  0.43020757  0.30180690  1
  S  S39  1  0.77301025  0.41376226  0.70626538  1
  S  S40  1  0.66844436  0.97517830  0.44959837  1
  S  S41  1  0.33070784  0.05447115  0.55927330  1
