# generated using pymatgen
data_Pr2Mn3(SbS3)4
_symmetry_space_group_name_H-M   'P 1'
_cell_length_a   20.02960800
_cell_length_b   3.90410600
_cell_length_c   14.95364829
_cell_angle_alpha   90.00000000
_cell_angle_beta   126.33350609
_cell_angle_gamma   90.00000000
_symmetry_Int_Tables_number   1
_chemical_formula_structural   Pr2Mn3(SbS3)4
_chemical_formula_sum   'Pr4 Mn6 Sb8 S24'
_cell_volume   942.00006694
_cell_formula_units_Z   2
loop_
 _symmetry_equiv_pos_site_id
 _symmetry_equiv_pos_as_xyz
  1  'x, y, z'
loop_
 _atom_site_type_symbol
 _atom_site_label
 _atom_site_symmetry_multiplicity
 _atom_site_fract_x
 _atom_site_fract_y
 _atom_site_fract_z
 _atom_site_occupancy
  Pr  Pr0  1  0.26039554  0.51020200  0.86341914  1
  Pr  Pr1  1  0.72967639  0.54984044  0.12721442  1
  Pr  Pr2  1  0.76875712  0.99451435  0.88947736  1
  Pr  Pr3  1  0.24654687  0.99327337  0.14949381  1
  Mn  Mn4  1  0.27943174  0.55845274  0.58999846  1
  Mn  Mn5  1  0.69764525  0.42790982  0.38697951  1
  Mn  Mn6  1  0.99472249  0.99434169  0.00170801  1
  Mn  Mn7  1  0.79123770  0.98170714  0.59694063  1
  Mn  Mn8  1  0.20617268  0.92945101  0.41648603  1
  Mn  Mn9  1  0.50183063  0.51621376  0.01285051  1
  Sb  Sb10  1  0.88746265  0.00836437  0.44290408  1
  Sb  Sb11  1  0.10832292  0.03708041  0.55385968  1
  Sb  Sb12  1  0.03093186  0.51876967  0.80742802  1
  Sb  Sb13  1  0.96617712  0.52445639  0.19037120  1
  Sb  Sb14  1  0.40282456  0.50110947  0.47102438  1
  Sb  Sb15  1  0.61259510  0.43911593  0.56965978  1
  Sb  Sb16  1  0.53255785  0.99295275  0.82048466  1
  Sb  Sb17  1  0.46571814  0.02641338  0.17660711  1
  S  S18  1  0.93400189  0.01069200  0.79000588  1
  S  S19  1  0.05987929  0.00481290  0.18601162  1
  S  S20  1  0.41587426  0.98481122  0.98075233  1
  S  S21  1  0.58442304  0.03552974  0.02465096  1
  S  S22  1  0.17768707  0.01271852  0.89102632  1
  S  S23  1  0.83430206  0.03865097  0.12256186  1
  S  S24  1  0.08833972  0.48012768  0.65488471  1
  S  S25  1  0.88846484  0.52453381  0.32916945  1
  S  S26  1  0.73071102  0.96740663  0.30607125  1
  S  S27  1  0.26059586  0.94925768  0.68042270  1
  S  S28  1  0.15793993  0.39759281  0.43845443  1
  S  S29  1  0.82547400  0.45249807  0.53604162  1
  S  S30  1  0.44876291  0.49422665  0.82256472  1
  S  S31  1  0.55965999  0.49147082  0.19528834  1
  S  S32  1  0.92295019  0.51601949  0.98913303  1
  S  S33  1  0.08962727  0.57087189  0.01244501  1
  S  S34  1  0.67996759  0.48750276  0.90191686  1
  S  S35  1  0.34099655  0.46038923  0.11642509  1
  S  S36  1  0.59874943  0.97560860  0.66519677  1
  S  S37  1  0.42408544  0.97656403  0.37427426  1
  S  S38  1  0.25112715  0.42984138  0.30175139  1
  S  S39  1  0.77285955  0.41371230  0.70595163  1
  S  S40  1  0.66847847  0.97602295  0.44962815  1
  S  S41  1  0.33068681  0.05479459  0.55963014  1
