# generated using pymatgen
data_Pr2Mn3(SbS3)4
_symmetry_space_group_name_H-M   'P 1'
_cell_length_a   20.02960800
_cell_length_b   3.90410600
_cell_length_c   14.95364829
_cell_angle_alpha   90.00000000
_cell_angle_beta   126.33350609
_cell_angle_gamma   90.00000000
_symmetry_Int_Tables_number   1
_chemical_formula_structural   Pr2Mn3(SbS3)4
_chemical_formula_sum   'Pr4 Mn6 Sb8 S24'
_cell_volume   942.00006694
_cell_formula_units_Z   2
loop_
 _symmetry_equiv_pos_site_id
 _symmetry_equiv_pos_as_xyz
  1  'x, y, z'
loop_
 _atom_site_type_symbol
 _atom_site_label
 _atom_site_symmetry_multiplicity
 _atom_site_fract_x
 _atom_site_fract_y
 _atom_site_fract_z
 _atom_site_occupancy
  Pr  Pr0  1  0.26039815  0.50987669  0.86340310  1
  Pr  Pr1  1  0.72987602  0.54997100  0.12716836  1
  Pr  Pr2  1  0.76864855  0.99471955  0.88932603  1
  Pr  Pr3  1  0.24643473  0.99311802  0.14934712  1
  Mn  Mn4  1  0.27984326  0.55866041  0.59021536  1
  Mn  Mn5  1  0.69770396  0.42695862  0.38708726  1
  Mn  Mn6  1  0.99470555  0.99361253  0.00151623  1
  Mn  Mn7  1  0.79149659  0.98161502  0.59713459  1
  Mn  Mn8  1  0.20602538  0.92921841  0.41610303  1
  Mn  Mn9  1  0.50181012  0.51491015  0.01273757  1
  Sb  Sb10  1  0.88733269  0.00927483  0.44270649  1
  Sb  Sb11  1  0.10849081  0.03754906  0.55415000  1
  Sb  Sb12  1  0.03114716  0.51863506  0.80732702  1
  Sb  Sb13  1  0.96621104  0.52396029  0.19023668  1
  Sb  Sb14  1  0.40298386  0.50085163  0.47105678  1
  Sb  Sb15  1  0.61273948  0.43845390  0.56989587  1
  Sb  Sb16  1  0.53255168  0.99297413  0.82048301  1
  Sb  Sb17  1  0.46579760  0.02680357  0.17658375  1
  S  S18  1  0.93428436  0.01077501  0.79022316  1
  S  S19  1  0.05991750  0.00475482  0.18593285  1
  S  S20  1  0.41564400  0.98495073  0.98034271  1
  S  S21  1  0.58435144  0.03609193  0.02466484  1
  S  S22  1  0.17794679  0.01172785  0.89097938  1
  S  S23  1  0.83420542  0.03856217  0.12286488  1
  S  S24  1  0.08816770  0.47878119  0.65505800  1
  S  S25  1  0.88835361  0.52364305  0.32904213  1
  S  S26  1  0.73045110  0.96656726  0.30591827  1
  S  S27  1  0.26055338  0.94988996  0.68037169  1
  S  S28  1  0.15780379  0.39865200  0.43842068  1
  S  S29  1  0.82562102  0.45194706  0.53592394  1
  S  S30  1  0.44858129  0.49392930  0.82213340  1
  S  S31  1  0.55964825  0.49173372  0.19538535  1
  S  S32  1  0.92310680  0.51616698  0.98918427  1
  S  S33  1  0.08936824  0.56955045  0.01245961  1
  S  S34  1  0.67991147  0.48730187  0.90148905  1
  S  S35  1  0.34120370  0.45969910  0.11699147  1
  S  S36  1  0.59842353  0.97566316  0.66573112  1
  S  S37  1  0.42426907  0.97751688  0.37430887  1
  S  S38  1  0.25101122  0.42923337  0.30181331  1
  S  S39  1  0.77252450  0.41384345  0.70563971  1
  S  S40  1  0.66831685  0.97736300  0.44945904  1
  S  S41  1  0.33067194  0.05456951  0.55988637  1
