# generated using pymatgen
data_Pr2Mn3(SbS3)4
_symmetry_space_group_name_H-M   'P 1'
_cell_length_a   20.02960800
_cell_length_b   3.90410600
_cell_length_c   14.95364829
_cell_angle_alpha   90.00000000
_cell_angle_beta   126.33350609
_cell_angle_gamma   90.00000000
_symmetry_Int_Tables_number   1
_chemical_formula_structural   Pr2Mn3(SbS3)4
_chemical_formula_sum   'Pr4 Mn6 Sb8 S24'
_cell_volume   942.00006694
_cell_formula_units_Z   2
loop_
 _symmetry_equiv_pos_site_id
 _symmetry_equiv_pos_as_xyz
  1  'x, y, z'
loop_
 _atom_site_type_symbol
 _atom_site_label
 _atom_site_symmetry_multiplicity
 _atom_site_fract_x
 _atom_site_fract_y
 _atom_site_fract_z
 _atom_site_occupancy
  Pr  Pr0  1  0.26036610  0.50962735  0.86342646  1
  Pr  Pr1  1  0.73008035  0.55036141  0.12708077  1
  Pr  Pr2  1  0.76867385  0.99497640  0.88932717  1
  Pr  Pr3  1  0.24623388  0.99289822  0.14914215  1
  Mn  Mn4  1  0.28027398  0.55886361  0.59047982  1
  Mn  Mn5  1  0.69783581  0.42631166  0.38727493  1
  Mn  Mn6  1  0.99469343  0.99299178  0.00141142  1
  Mn  Mn7  1  0.79175270  0.98147093  0.59740022  1
  Mn  Mn8  1  0.20599581  0.92939526  0.41585620  1
  Mn  Mn9  1  0.50192051  0.51393249  0.01283825  1
  Sb  Sb10  1  0.88727274  0.00993193  0.44266412  1
  Sb  Sb11  1  0.10857612  0.03773172  0.55440018  1
  Sb  Sb12  1  0.03129920  0.51853677  0.80719797  1
  Sb  Sb13  1  0.96629040  0.52380214  0.19010471  1
  Sb  Sb14  1  0.40309852  0.50062134  0.47101363  1
  Sb  Sb15  1  0.61295186  0.43767188  0.57016485  1
  Sb  Sb16  1  0.53246927  0.99275232  0.82038330  1
  Sb  Sb17  1  0.46589045  0.02692866  0.17654075  1
  S  S18  1  0.93465100  0.01102009  0.79037703  1
  S  S19  1  0.05984201  0.00451416  0.18572544  1
  S  S20  1  0.41531425  0.98566696  0.97985795  1
  S  S21  1  0.58425150  0.03678629  0.02460284  1
  S  S22  1  0.17818085  0.01081219  0.89092904  1
  S  S23  1  0.83402441  0.03805268  0.12301072  1
  S  S24  1  0.08809398  0.47678775  0.65511416  1
  S  S25  1  0.88835287  0.52266200  0.32907739  1
  S  S26  1  0.73013389  0.96514439  0.30568968  1
  S  S27  1  0.26065419  0.95003363  0.68043094  1
  S  S28  1  0.15766188  0.39957013  0.43839915  1
  S  S29  1  0.82576323  0.45151905  0.53557557  1
  S  S30  1  0.44846048  0.49313326  0.82167004  1
  S  S31  1  0.55968850  0.49206523  0.19555722  1
  S  S32  1  0.92318564  0.51715482  0.98916738  1
  S  S33  1  0.08927081  0.56882585  0.01267775  1
  S  S34  1  0.67987099  0.48712203  0.90108303  1
  S  S35  1  0.34151684  0.45950150  0.11744715  1
  S  S36  1  0.59813650  0.97587234  0.66626625  1
  S  S37  1  0.42424872  0.97930792  0.37406615  1
  S  S38  1  0.25099808  0.42910255  0.30204695  1
  S  S39  1  0.77220792  0.41394324  0.70537933  1
  S  S40  1  0.66819901  0.97799728  0.44935142  1
  S  S41  1  0.33052038  0.05421331  0.55993977  1
