# generated using pymatgen
data_Pr2Mn3(SbS3)4
_symmetry_space_group_name_H-M   'P 1'
_cell_length_a   20.02960800
_cell_length_b   3.90410600
_cell_length_c   14.95364829
_cell_angle_alpha   90.00000000
_cell_angle_beta   126.33350609
_cell_angle_gamma   90.00000000
_symmetry_Int_Tables_number   1
_chemical_formula_structural   Pr2Mn3(SbS3)4
_chemical_formula_sum   'Pr4 Mn6 Sb8 S24'
_cell_volume   942.00006694
_cell_formula_units_Z   2
loop_
 _symmetry_equiv_pos_site_id
 _symmetry_equiv_pos_as_xyz
  1  'x, y, z'
loop_
 _atom_site_type_symbol
 _atom_site_label
 _atom_site_symmetry_multiplicity
 _atom_site_fract_x
 _atom_site_fract_y
 _atom_site_fract_z
 _atom_site_occupancy
  Pr  Pr0  1  0.26030262  0.50932110  0.86345983  1
  Pr  Pr1  1  0.73023934  0.55096281  0.12695517  1
  Pr  Pr2  1  0.76879603  0.99502254  0.88936690  1
  Pr  Pr3  1  0.24603555  0.99269363  0.14882839  1
  Mn  Mn4  1  0.28066082  0.55919890  0.59061958  1
  Mn  Mn5  1  0.69796418  0.42607282  0.38740804  1
  Mn  Mn6  1  0.99464662  0.99193830  0.00134179  1
  Mn  Mn7  1  0.79197587  0.98094741  0.59759303  1
  Mn  Mn8  1  0.20602644  0.92953395  0.41565052  1
  Mn  Mn9  1  0.50209117  0.51306143  0.01301540  1
  Sb  Sb10  1  0.88723435  0.01041661  0.44265074  1
  Sb  Sb11  1  0.10868237  0.03768352  0.55457112  1
  Sb  Sb12  1  0.03136741  0.51860516  0.80703288  1
  Sb  Sb13  1  0.96635855  0.52347065  0.19001177  1
  Sb  Sb14  1  0.40327515  0.50057246  0.47108421  1
  Sb  Sb15  1  0.61319192  0.43669687  0.57035632  1
  Sb  Sb16  1  0.53231595  0.99255998  0.82029783  1
  Sb  Sb17  1  0.46597657  0.02689934  0.17653461  1
  S  S18  1  0.93498855  0.01158894  0.79055360  1
  S  S19  1  0.05973352  0.00451362  0.18559420  1
  S  S20  1  0.41511276  0.98606119  0.97941758  1
  S  S21  1  0.58408290  0.03714474  0.02450962  1
  S  S22  1  0.17849431  0.00960795  0.89090590  1
  S  S23  1  0.83384848  0.03778716  0.12309000  1
  S  S24  1  0.08810466  0.47511236  0.65514587  1
  S  S25  1  0.88839653  0.52290971  0.32909610  1
  S  S26  1  0.73009287  0.96423532  0.30571390  1
  S  S27  1  0.26078604  0.95056881  0.68044066  1
  S  S28  1  0.15764546  0.40049275  0.43848921  1
  S  S29  1  0.82583041  0.45123849  0.53518763  1
  S  S30  1  0.44832032  0.49197768  0.82138315  1
  S  S31  1  0.55973106  0.49285186  0.19567012  1
  S  S32  1  0.92338415  0.51814014  0.98924549  1
  S  S33  1  0.08922876  0.56808587  0.01288073  1
  S  S34  1  0.67981915  0.48724121  0.90081005  1
  S  S35  1  0.34178847  0.45899985  0.11772086  1
  S  S36  1  0.59793508  0.97613265  0.66670935  1
  S  S37  1  0.42405013  0.98075982  0.37368918  1
  S  S38  1  0.25092869  0.42844790  0.30227002  1
  S  S39  1  0.77197869  0.41447040  0.70521526  1
  S  S40  1  0.66809198  0.97867018  0.44931395  1
  S  S41  1  0.33043001  0.05430715  0.56019556  1
