# generated using pymatgen
data_Pr2Mn3(SbS3)4
_symmetry_space_group_name_H-M   'P 1'
_cell_length_a   20.02960800
_cell_length_b   3.90410600
_cell_length_c   14.95364829
_cell_angle_alpha   90.00000000
_cell_angle_beta   126.33350609
_cell_angle_gamma   90.00000000
_symmetry_Int_Tables_number   1
_chemical_formula_structural   Pr2Mn3(SbS3)4
_chemical_formula_sum   'Pr4 Mn6 Sb8 S24'
_cell_volume   942.00006694
_cell_formula_units_Z   2
loop_
 _symmetry_equiv_pos_site_id
 _symmetry_equiv_pos_as_xyz
  1  'x, y, z'
loop_
 _atom_site_type_symbol
 _atom_site_label
 _atom_site_symmetry_multiplicity
 _atom_site_fract_x
 _atom_site_fract_y
 _atom_site_fract_z
 _atom_site_occupancy
  Pr  Pr0  1  0.26020800  0.50938476  0.86343904  1
  Pr  Pr1  1  0.73038795  0.55148133  0.12693098  1
  Pr  Pr2  1  0.76890738  0.99502502  0.88934860  1
  Pr  Pr3  1  0.24590047  0.99230819  0.14856126  1
  Mn  Mn4  1  0.28097668  0.55924770  0.59073272  1
  Mn  Mn5  1  0.69794271  0.42564877  0.38736503  1
  Mn  Mn6  1  0.99453034  0.99065092  0.00110971  1
  Mn  Mn7  1  0.79217240  0.98045239  0.59783278  1
  Mn  Mn8  1  0.20596169  0.92929823  0.41534990  1
  Mn  Mn9  1  0.50232772  0.51166656  0.01319947  1
  Sb  Sb10  1  0.88724392  0.01117267  0.44261088  1
  Sb  Sb11  1  0.10878368  0.03766576  0.55473405  1
  Sb  Sb12  1  0.03135600  0.51880588  0.80690481  1
  Sb  Sb13  1  0.96638325  0.52287981  0.18992700  1
  Sb  Sb14  1  0.40348570  0.50063922  0.47120675  1
  Sb  Sb15  1  0.61337688  0.43591111  0.57047516  1
  Sb  Sb16  1  0.53213550  0.99232970  0.82015106  1
  Sb  Sb17  1  0.46600283  0.02679258  0.17652618  1
  S  S18  1  0.93527035  0.01214285  0.79068486  1
  S  S19  1  0.05951005  0.00475478  0.18557122  1
  S  S20  1  0.41501595  0.98650694  0.97906877  1
  S  S21  1  0.58398804  0.03663542  0.02450533  1
  S  S22  1  0.17886749  0.00851406  0.89080154  1
  S  S23  1  0.83361567  0.03711978  0.12313721  1
  S  S24  1  0.08796342  0.47360620  0.65496567  1
  S  S25  1  0.88846535  0.52285493  0.32916920  1
  S  S26  1  0.72997649  0.96360128  0.30570965  1
  S  S27  1  0.26098968  0.95134726  0.68069258  1
  S  S28  1  0.15771220  0.40149249  0.43859206  1
  S  S29  1  0.82576555  0.45130430  0.53486542  1
  S  S30  1  0.44814309  0.49180258  0.82117350  1
  S  S31  1  0.55984324  0.49301299  0.19559978  1
  S  S32  1  0.92355640  0.51862384  0.98934468  1
  S  S33  1  0.08918708  0.56707557  0.01308618  1
  S  S34  1  0.67967898  0.48717440  0.90052746  1
  S  S35  1  0.34210295  0.45888579  0.11806020  1
  S  S36  1  0.59784439  0.97684853  0.66721290  1
  S  S37  1  0.42389867  0.98131579  0.37355512  1
  S  S38  1  0.25090552  0.42715549  0.30258916  1
  S  S39  1  0.77183876  0.41504114  0.70504112  1
  S  S40  1  0.66792679  0.97875372  0.44932469  1
  S  S41  1  0.33045811  0.05434262  0.56043441  1
