# generated using pymatgen
data_Pr2Mn3(SbS3)4
_symmetry_space_group_name_H-M   'P 1'
_cell_length_a   20.02960800
_cell_length_b   3.90410600
_cell_length_c   14.95364829
_cell_angle_alpha   90.00000000
_cell_angle_beta   126.33350609
_cell_angle_gamma   90.00000000
_symmetry_Int_Tables_number   1
_chemical_formula_structural   Pr2Mn3(SbS3)4
_chemical_formula_sum   'Pr4 Mn6 Sb8 S24'
_cell_volume   942.00006694
_cell_formula_units_Z   2
loop_
 _symmetry_equiv_pos_site_id
 _symmetry_equiv_pos_as_xyz
  1  'x, y, z'
loop_
 _atom_site_type_symbol
 _atom_site_label
 _atom_site_symmetry_multiplicity
 _atom_site_fract_x
 _atom_site_fract_y
 _atom_site_fract_z
 _atom_site_occupancy
  Pr  Pr0  1  0.26005209  0.50928116  0.86331857  1
  Pr  Pr1  1  0.73051331  0.55220846  0.12686162  1
  Pr  Pr2  1  0.76902691  0.99447233  0.88939717  1
  Pr  Pr3  1  0.24585426  0.99183485  0.14844248  1
  Mn  Mn4  1  0.28125205  0.55956825  0.59084497  1
  Mn  Mn5  1  0.69784319  0.42535467  0.38736214  1
  Mn  Mn6  1  0.99434793  0.98884033  0.00089909  1
  Mn  Mn7  1  0.79237336  0.98001064  0.59818302  1
  Mn  Mn8  1  0.20603872  0.92912154  0.41517226  1
  Mn  Mn9  1  0.50255655  0.51052253  0.01338322  1
  Sb  Sb10  1  0.88724870  0.01201859  0.44255769  1
  Sb  Sb11  1  0.10889981  0.03763903  0.55487227  1
  Sb  Sb12  1  0.03137392  0.51880035  0.80686745  1
  Sb  Sb13  1  0.96645589  0.52203034  0.18995827  1
  Sb  Sb14  1  0.40374735  0.50091275  0.47144529  1
  Sb  Sb15  1  0.61352324  0.43557287  0.57055834  1
  Sb  Sb16  1  0.53197745  0.99176678  0.82002283  1
  Sb  Sb17  1  0.46611725  0.02693599  0.17654019  1
  S  S18  1  0.93528594  0.01208716  0.79065503  1
  S  S19  1  0.05940682  0.00483691  0.18554077  1
  S  S20  1  0.41495396  0.98642080  0.97881253  1
  S  S21  1  0.58386238  0.03617425  0.02428697  1
  S  S22  1  0.17929046  0.00702306  0.89074062  1
  S  S23  1  0.83347204  0.03658849  0.12302779  1
  S  S24  1  0.08803272  0.47156326  0.65505145  1
  S  S25  1  0.88854218  0.52217130  0.32911079  1
  S  S26  1  0.72985347  0.96278335  0.30577914  1
  S  S27  1  0.26116760  0.95179650  0.68087752  1
  S  S28  1  0.15803960  0.40266296  0.43896900  1
  S  S29  1  0.82575183  0.45140456  0.53453420  1
  S  S30  1  0.44808095  0.49142074  0.82105361  1
  S  S31  1  0.55996915  0.49341210  0.19559008  1
  S  S32  1  0.92377156  0.51939777  0.98931206  1
  S  S33  1  0.08907935  0.56546735  0.01315450  1
  S  S34  1  0.67964852  0.48637279  0.90031230  1
  S  S35  1  0.34225784  0.45960177  0.11838620  1
  S  S36  1  0.59781494  0.97763289  0.66771693  1
  S  S37  1  0.42377509  0.98186892  0.37337400  1
  S  S38  1  0.25080050  0.42632352  0.30287552  1
  S  S39  1  0.77179391  0.41630732  0.70487503  1
  S  S40  1  0.66769010  0.97924937  0.44931384  1
  S  S41  1  0.33068040  0.05473645  0.56076986  1
