# generated using pymatgen
data_Pr2Mn3(SbS3)4
_symmetry_space_group_name_H-M   'P 1'
_cell_length_a   20.02960800
_cell_length_b   3.90410600
_cell_length_c   14.95364829
_cell_angle_alpha   90.00000000
_cell_angle_beta   126.33350609
_cell_angle_gamma   90.00000000
_symmetry_Int_Tables_number   1
_chemical_formula_structural   Pr2Mn3(SbS3)4
_chemical_formula_sum   'Pr4 Mn6 Sb8 S24'
_cell_volume   942.00006694
_cell_formula_units_Z   2
loop_
 _symmetry_equiv_pos_site_id
 _symmetry_equiv_pos_as_xyz
  1  'x, y, z'
loop_
 _atom_site_type_symbol
 _atom_site_label
 _atom_site_symmetry_multiplicity
 _atom_site_fract_x
 _atom_site_fract_y
 _atom_site_fract_z
 _atom_site_occupancy
  Pr  Pr0  1  0.25988537  0.50887987  0.86316715  1
  Pr  Pr1  1  0.73063878  0.55259708  0.12671573  1
  Pr  Pr2  1  0.76915339  0.99387833  0.88939428  1
  Pr  Pr3  1  0.24578186  0.99109567  0.14834700  1
  Mn  Mn4  1  0.28151156  0.55984032  0.59081784  1
  Mn  Mn5  1  0.69763085  0.42517395  0.38727916  1
  Mn  Mn6  1  0.99421229  0.98758623  0.00084194  1
  Mn  Mn7  1  0.79248252  0.97962523  0.59841141  1
  Mn  Mn8  1  0.20615389  0.92878567  0.41503701  1
  Mn  Mn9  1  0.50261127  0.50899982  0.01338578  1
  Sb  Sb10  1  0.88720849  0.01291971  0.44253361  1
  Sb  Sb11  1  0.10902790  0.03759869  0.55511021  1
  Sb  Sb12  1  0.03123374  0.51907707  0.80666904  1
  Sb  Sb13  1  0.96652691  0.52106825  0.18997501  1
  Sb  Sb14  1  0.40388981  0.50098378  0.47166005  1
  Sb  Sb15  1  0.61356543  0.43549593  0.57059022  1
  Sb  Sb16  1  0.53183637  0.99112694  0.81986143  1
  Sb  Sb17  1  0.46621877  0.02718992  0.17652782  1
  S  S18  1  0.93520621  0.01203848  0.79053611  1
  S  S19  1  0.05931087  0.00465956  0.18552197  1
  S  S20  1  0.41485715  0.98683605  0.97860849  1
  S  S21  1  0.58373396  0.03569324  0.02423141  1
  S  S22  1  0.17975681  0.00559567  0.89078586  1
  S  S23  1  0.83324140  0.03597785  0.12295675  1
  S  S24  1  0.08800422  0.46962815  0.65528509  1
  S  S25  1  0.88862141  0.52203430  0.32897436  1
  S  S26  1  0.72985129  0.96198537  0.30596850  1
  S  S27  1  0.26131376  0.95203235  0.68088011  1
  S  S28  1  0.15839018  0.40356756  0.43938423  1
  S  S29  1  0.82575886  0.45159523  0.53420954  1
  S  S30  1  0.44792942  0.49062080  0.82090838  1
  S  S31  1  0.56013652  0.49371099  0.19571432  1
  S  S32  1  0.92389307  0.51969861  0.98917461  1
  S  S33  1  0.08892376  0.56356328  0.01306512  1
  S  S34  1  0.67958593  0.48532957  0.90011854  1
  S  S35  1  0.34237071  0.46106863  0.11864067  1
  S  S36  1  0.59770347  0.97794634  0.66784509  1
  S  S37  1  0.42354414  0.98326255  0.37323689  1
  S  S38  1  0.25086385  0.42583602  0.30327389  1
  S  S39  1  0.77166642  0.41754788  0.70469719  1
  S  S40  1  0.66734351  0.97963885  0.44920142  1
  S  S41  1  0.33083996  0.05554406  0.56089947  1
