# generated using pymatgen
data_Pr2Mn3(SbS3)4
_symmetry_space_group_name_H-M   'P 1'
_cell_length_a   20.02960800
_cell_length_b   3.90410600
_cell_length_c   14.95364829
_cell_angle_alpha   90.00000000
_cell_angle_beta   126.33350609
_cell_angle_gamma   90.00000000
_symmetry_Int_Tables_number   1
_chemical_formula_structural   Pr2Mn3(SbS3)4
_chemical_formula_sum   'Pr4 Mn6 Sb8 S24'
_cell_volume   942.00006694
_cell_formula_units_Z   2
loop_
 _symmetry_equiv_pos_site_id
 _symmetry_equiv_pos_as_xyz
  1  'x, y, z'
loop_
 _atom_site_type_symbol
 _atom_site_label
 _atom_site_symmetry_multiplicity
 _atom_site_fract_x
 _atom_site_fract_y
 _atom_site_fract_z
 _atom_site_occupancy
  Pr  Pr0  1  0.25969943  0.50873284  0.86300674  1
  Pr  Pr1  1  0.73072469  0.55291799  0.12651549  1
  Pr  Pr2  1  0.76927940  0.99352620  0.88935543  1
  Pr  Pr3  1  0.24566777  0.99028461  0.14825331  1
  Mn  Mn4  1  0.28184856  0.56009298  0.59082691  1
  Mn  Mn5  1  0.69743526  0.42508192  0.38723238  1
  Mn  Mn6  1  0.99415209  0.98603015  0.00098971  1
  Mn  Mn7  1  0.79253141  0.97918019  0.59858213  1
  Mn  Mn8  1  0.20620718  0.92819196  0.41487597  1
  Mn  Mn9  1  0.50264911  0.50777332  0.01341781  1
  Sb  Sb10  1  0.88718348  0.01351243  0.44256623  1
  Sb  Sb11  1  0.10919155  0.03746898  0.55542961  1
  Sb  Sb12  1  0.03116148  0.51903319  0.80643865  1
  Sb  Sb13  1  0.96656107  0.52027699  0.18993930  1
  Sb  Sb14  1  0.40389539  0.50089954  0.47177960  1
  Sb  Sb15  1  0.61360691  0.43544007  0.57070676  1
  Sb  Sb16  1  0.53172911  0.99034803  0.81973665  1
  Sb  Sb17  1  0.46633569  0.02758145  0.17659443  1
  S  S18  1  0.93503525  0.01196978  0.79024020  1
  S  S19  1  0.05933992  0.00410492  0.18571054  1
  S  S20  1  0.41476604  0.98768146  0.97849769  1
  S  S21  1  0.58360228  0.03503753  0.02414671  1
  S  S22  1  0.18001299  0.00485715  0.89067519  1
  S  S23  1  0.83300549  0.03493781  0.12292484  1
  S  S24  1  0.08796725  0.46766399  0.65565061  1
  S  S25  1  0.88863351  0.52196766  0.32900460  1
  S  S26  1  0.72992068  0.96101012  0.30626806  1
  S  S27  1  0.26145892  0.95137875  0.68086839  1
  S  S28  1  0.15878188  0.40544292  0.43971264  1
  S  S29  1  0.82578977  0.45176875  0.53389937  1
  S  S30  1  0.44776324  0.49048852  0.82093346  1
  S  S31  1  0.56039887  0.49382033  0.19600778  1
  S  S32  1  0.92412201  0.52008136  0.98925108  1
  S  S33  1  0.08865910  0.56150947  0.01282817  1
  S  S34  1  0.67968000  0.48466646  0.90014336  1
  S  S35  1  0.34247029  0.46219161  0.11878910  1
  S  S36  1  0.59767618  0.97833333  0.66800930  1
  S  S37  1  0.42337796  0.98451341  0.37309787  1
  S  S38  1  0.25093545  0.42576601  0.30376829  1
  S  S39  1  0.77153214  0.41912613  0.70432209  1
  S  S40  1  0.66706756  0.97978563  0.44906967  1
  S  S41  1  0.33096710  0.05601942  0.56089043  1
