# generated using pymatgen
data_Pr2Mn3(SbS3)4
_symmetry_space_group_name_H-M   'P 1'
_cell_length_a   20.02960800
_cell_length_b   3.90410600
_cell_length_c   14.95364829
_cell_angle_alpha   90.00000000
_cell_angle_beta   126.33350609
_cell_angle_gamma   90.00000000
_symmetry_Int_Tables_number   1
_chemical_formula_structural   Pr2Mn3(SbS3)4
_chemical_formula_sum   'Pr4 Mn6 Sb8 S24'
_cell_volume   942.00006694
_cell_formula_units_Z   2
loop_
 _symmetry_equiv_pos_site_id
 _symmetry_equiv_pos_as_xyz
  1  'x, y, z'
loop_
 _atom_site_type_symbol
 _atom_site_label
 _atom_site_symmetry_multiplicity
 _atom_site_fract_x
 _atom_site_fract_y
 _atom_site_fract_z
 _atom_site_occupancy
  Pr  Pr0  1  0.25951599  0.50847559  0.86283242  1
  Pr  Pr1  1  0.73082519  0.55320451  0.12639095  1
  Pr  Pr2  1  0.76933433  0.99357770  0.88924267  1
  Pr  Pr3  1  0.24549288  0.98973157  0.14809653  1
  Mn  Mn4  1  0.28214696  0.56009501  0.59093503  1
  Mn  Mn5  1  0.69729719  0.42486918  0.38714947  1
  Mn  Mn6  1  0.99399499  0.98446356  0.00094003  1
  Mn  Mn7  1  0.79258473  0.97927218  0.59864822  1
  Mn  Mn8  1  0.20619911  0.92749714  0.41468775  1
  Mn  Mn9  1  0.50266458  0.50681404  0.01337378  1
  Sb  Sb10  1  0.88713397  0.01394367  0.44262145  1
  Sb  Sb11  1  0.10939486  0.03718333  0.55572313  1
  Sb  Sb12  1  0.03103203  0.51904239  0.80621295  1
  Sb  Sb13  1  0.96653065  0.51939688  0.18993428  1
  Sb  Sb14  1  0.40398994  0.50068846  0.47199367  1
  Sb  Sb15  1  0.61365402  0.43511373  0.57088283  1
  Sb  Sb16  1  0.53164004  0.98947909  0.81953095  1
  Sb  Sb17  1  0.46645529  0.02797795  0.17671683  1
  S  S18  1  0.93479915  0.01169033  0.79006495  1
  S  S19  1  0.05930692  0.00352204  0.18568732  1
  S  S20  1  0.41463364  0.98815281  0.97829456  1
  S  S21  1  0.58357986  0.03447776  0.02420411  1
  S  S22  1  0.18030707  0.00426665  0.89050729  1
  S  S23  1  0.83291024  0.03351404  0.12272436  1
  S  S24  1  0.08789752  0.46594981  0.65594454  1
  S  S25  1  0.88858542  0.52225237  0.32894484  1
  S  S26  1  0.73003593  0.95990779  0.30653627  1
  S  S27  1  0.26169256  0.95073714  0.68118453  1
  S  S28  1  0.15909682  0.40686579  0.43991742  1
  S  S29  1  0.82587347  0.45193888  0.53349839  1
  S  S30  1  0.44759500  0.49085884  0.82089209  1
  S  S31  1  0.56061893  0.49376982  0.19607474  1
  S  S32  1  0.92449861  0.52053497  0.98922586  1
  S  S33  1  0.08839510  0.55949878  0.01256251  1
  S  S34  1  0.67989516  0.48407466  0.90024683  1
  S  S35  1  0.34256803  0.46290252  0.11901612  1
  S  S36  1  0.59773803  0.97816103  0.66820628  1
  S  S37  1  0.42330357  0.98634196  0.37309367  1
  S  S38  1  0.25092111  0.42644261  0.30415717  1
  S  S39  1  0.77141086  0.42110701  0.70397854  1
  S  S40  1  0.66681249  0.97957943  0.44894929  1
  S  S41  1  0.33110049  0.05614331  0.56107908  1
