# generated using pymatgen
data_Pr2Mn3(SbS3)4
_symmetry_space_group_name_H-M   'P 1'
_cell_length_a   20.02960800
_cell_length_b   3.90410600
_cell_length_c   14.95364829
_cell_angle_alpha   90.00000000
_cell_angle_beta   126.33350609
_cell_angle_gamma   90.00000000
_symmetry_Int_Tables_number   1
_chemical_formula_structural   Pr2Mn3(SbS3)4
_chemical_formula_sum   'Pr4 Mn6 Sb8 S24'
_cell_volume   942.00006694
_cell_formula_units_Z   2
loop_
 _symmetry_equiv_pos_site_id
 _symmetry_equiv_pos_as_xyz
  1  'x, y, z'
loop_
 _atom_site_type_symbol
 _atom_site_label
 _atom_site_symmetry_multiplicity
 _atom_site_fract_x
 _atom_site_fract_y
 _atom_site_fract_z
 _atom_site_occupancy
  Pr  Pr0  1  0.27010416  0.49714239  0.86711433  1
  Pr  Pr1  1  0.73393427  0.51061710  0.13326296  1
  Pr  Pr2  1  0.76344533  0.02545163  0.86185068  1
  Pr  Pr3  1  0.23379013  0.99515045  0.13141854  1
  Mn  Mn4  1  0.29420059  0.47911637  0.59787906  1
  Mn  Mn5  1  0.68666836  0.46212741  0.36474196  1
  Mn  Mn6  1  0.00582673  0.98955819  0.01197192  1
  Mn  Mn7  1  0.79835120  0.00044250  0.61884939  1
  Mn  Mn8  1  0.19708188  0.97866961  0.36955935  1
  Mn  Mn9  1  0.48748771  0.46805028  0.98624489  1
  Sb  Sb10  1  0.88908771  0.98652232  0.45184408  1
  Sb  Sb11  1  0.10920316  0.97846255  0.54458388  1
  Sb  Sb12  1  0.03520815  0.52334251  0.81879199  1
  Sb  Sb13  1  0.96586587  0.49860890  0.18986435  1
  Sb  Sb14  1  0.39252186  0.49946126  0.44783944  1
  Sb  Sb15  1  0.60565077  0.47328784  0.54800271  1
  Sb  Sb16  1  0.53376750  0.98379143  0.80880219  1
  Sb  Sb17  1  0.46525994  0.01907578  0.19061080  1
  S  S18  1  0.93669641  0.02529778  0.80819013  1
  S  S19  1  0.06448727  0.98937503  0.19891375  1
  S  S20  1  0.42113779  0.95413579  0.99217754  1
  S  S21  1  0.58473812  0.02594256  0.01375776  1
  S  S22  1  0.16986134  0.05643848  0.90006617  1
  S  S23  1  0.82738888  0.04529578  0.10208512  1
  S  S24  1  0.09052923  0.50779234  0.64652299  1
  S  S25  1  0.91642923  0.48201027  0.35932494  1
  S  S26  1  0.73744952  0.98113559  0.30165184  1
  S  S27  1  0.26141131  0.00069181  0.71215367  1
  S  S28  1  0.16557326  0.51607024  0.43229626  1
  S  S29  1  0.81807122  0.48275080  0.54712588  1
  S  S30  1  0.43145516  0.47738477  0.79684488  1
  S  S31  1  0.55487799  0.52081971  0.18080001  1
  S  S32  1  0.91775981  0.49461106  0.98940322  1
  S  S33  1  0.09118887  0.49262901  0.03269262  1
  S  S34  1  0.66424901  0.55071858  0.89400368  1
  S  S35  1  0.32629299  0.49467984  0.09320156  1
  S  S36  1  0.59491407  0.00161002  0.65259759  1
  S  S37  1  0.39960277  0.98312781  0.34352215  1
  S  S38  1  0.24274924  0.46622367  0.31589471  1
  S  S39  1  0.76042866  0.52388595  0.68847406  1
  S  S40  1  0.66514425  0.00153511  0.45006116  1
  S  S41  1  0.33147591  0.98017723  0.55565741  1
