# generated using pymatgen
data_Pr2Mn3(SbS3)4
_symmetry_space_group_name_H-M   'P 1'
_cell_length_a   20.02960800
_cell_length_b   3.90410600
_cell_length_c   14.95364829
_cell_angle_alpha   90.00000000
_cell_angle_beta   126.33350609
_cell_angle_gamma   90.00000000
_symmetry_Int_Tables_number   1
_chemical_formula_structural   Pr2Mn3(SbS3)4
_chemical_formula_sum   'Pr4 Mn6 Sb8 S24'
_cell_volume   942.00006694
_cell_formula_units_Z   2
loop_
 _symmetry_equiv_pos_site_id
 _symmetry_equiv_pos_as_xyz
  1  'x, y, z'
loop_
 _atom_site_type_symbol
 _atom_site_label
 _atom_site_symmetry_multiplicity
 _atom_site_fract_x
 _atom_site_fract_y
 _atom_site_fract_z
 _atom_site_occupancy
  Pr  Pr0  1  0.25934335  0.50812647  0.86263708  1
  Pr  Pr1  1  0.73087492  0.55350130  0.12628756  1
  Pr  Pr2  1  0.76943187  0.99326789  0.88914346  1
  Pr  Pr3  1  0.24529866  0.98949778  0.14787321  1
  Mn  Mn4  1  0.28256915  0.56064264  0.59118835  1
  Mn  Mn5  1  0.69718178  0.42461990  0.38710395  1
  Mn  Mn6  1  0.99392743  0.98295167  0.00085845  1
  Mn  Mn7  1  0.79271682  0.97951822  0.59881004  1
  Mn  Mn8  1  0.20613334  0.92645199  0.41447104  1
  Mn  Mn9  1  0.50260638  0.50591563  0.01332044  1
  Sb  Sb10  1  0.88711811  0.01411601  0.44271186  1
  Sb  Sb11  1  0.10955776  0.03691122  0.55591185  1
  Sb  Sb12  1  0.03088244  0.51897766  0.80597849  1
  Sb  Sb13  1  0.96661436  0.51869466  0.19003106  1
  Sb  Sb14  1  0.40405869  0.50072578  0.47219192  1
  Sb  Sb15  1  0.61371840  0.43467517  0.57111329  1
  Sb  Sb16  1  0.53156227  0.98901693  0.81939303  1
  Sb  Sb17  1  0.46654225  0.02859275  0.17687128  1
  S  S18  1  0.93452081  0.01155198  0.78997084  1
  S  S19  1  0.05927835  0.00321640  0.18575395  1
  S  S20  1  0.41464147  0.98883890  0.97822156  1
  S  S21  1  0.58361403  0.03429530  0.02444179  1
  S  S22  1  0.18051639  0.00414782  0.89057263  1
  S  S23  1  0.83283802  0.03213304  0.12250172  1
  S  S24  1  0.08780562  0.46487693  0.65602876  1
  S  S25  1  0.88844755  0.52321209  0.32896043  1
  S  S26  1  0.73015633  0.95884888  0.30681376  1
  S  S27  1  0.26180236  0.95046842  0.68132583  1
  S  S28  1  0.15944668  0.40801396  0.44020951  1
  S  S29  1  0.82589578  0.45202344  0.53327061  1
  S  S30  1  0.44738620  0.49160180  0.82079613  1
  S  S31  1  0.56083961  0.49363277  0.19619152  1
  S  S32  1  0.92496432  0.52074777  0.98947875  1
  S  S33  1  0.08820738  0.55819489  0.01242917  1
  S  S34  1  0.67998865  0.48305932  0.90010953  1
  S  S35  1  0.34268643  0.46318794  0.11927819  1
  S  S36  1  0.59785183  0.97767994  0.66827359  1
  S  S37  1  0.42312177  0.98828509  0.37292147  1
  S  S38  1  0.25085881  0.42731086  0.30460383  1
  S  S39  1  0.77137560  0.42307085  0.70369948  1
  S  S40  1  0.66649299  0.97923901  0.44882507  1
  S  S41  1  0.33122068  0.05610132  0.56118462  1
