# generated using pymatgen
data_Pr2Mn3(SbS3)4
_symmetry_space_group_name_H-M   'P 1'
_cell_length_a   20.02960800
_cell_length_b   3.90410600
_cell_length_c   14.95364829
_cell_angle_alpha   90.00000000
_cell_angle_beta   126.33350609
_cell_angle_gamma   90.00000000
_symmetry_Int_Tables_number   1
_chemical_formula_structural   Pr2Mn3(SbS3)4
_chemical_formula_sum   'Pr4 Mn6 Sb8 S24'
_cell_volume   942.00006694
_cell_formula_units_Z   2
loop_
 _symmetry_equiv_pos_site_id
 _symmetry_equiv_pos_as_xyz
  1  'x, y, z'
loop_
 _atom_site_type_symbol
 _atom_site_label
 _atom_site_symmetry_multiplicity
 _atom_site_fract_x
 _atom_site_fract_y
 _atom_site_fract_z
 _atom_site_occupancy
  Pr  Pr0  1  0.25918295  0.50798828  0.86250151  1
  Pr  Pr1  1  0.73078679  0.55366950  0.12606277  1
  Pr  Pr2  1  0.76959823  0.99313945  0.88909263  1
  Pr  Pr3  1  0.24516051  0.98936092  0.14772671  1
  Mn  Mn4  1  0.28293724  0.56131581  0.59155038  1
  Mn  Mn5  1  0.69698517  0.42435487  0.38695116  1
  Mn  Mn6  1  0.99390673  0.98171337  0.00092749  1
  Mn  Mn7  1  0.79286495  0.97897420  0.59904413  1
  Mn  Mn8  1  0.20610478  0.92565237  0.41428387  1
  Mn  Mn9  1  0.50253502  0.50510914  0.01317667  1
  Sb  Sb10  1  0.88712617  0.01425407  0.44272817  1
  Sb  Sb11  1  0.10976622  0.03633369  0.55613027  1
  Sb  Sb12  1  0.03076550  0.51866685  0.80582640  1
  Sb  Sb13  1  0.96663828  0.51806720  0.19003153  1
  Sb  Sb14  1  0.40402876  0.50062177  0.47227949  1
  Sb  Sb15  1  0.61369652  0.43449816  0.57115119  1
  Sb  Sb16  1  0.53144254  0.98851236  0.81912719  1
  Sb  Sb17  1  0.46663229  0.02905657  0.17706016  1
  S  S18  1  0.93423695  0.01133786  0.78990582  1
  S  S19  1  0.05933020  0.00267724  0.18596390  1
  S  S20  1  0.41466548  0.98958248  0.97805013  1
  S  S21  1  0.58364583  0.03350973  0.02466150  1
  S  S22  1  0.18082069  0.00482186  0.89074643  1
  S  S23  1  0.83281163  0.03080112  0.12227082  1
  S  S24  1  0.08770466  0.46374640  0.65600958  1
  S  S25  1  0.88836646  0.52332519  0.32881068  1
  S  S26  1  0.73022161  0.95792105  0.30712564  1
  S  S27  1  0.26189901  0.94988341  0.68156256  1
  S  S28  1  0.15983350  0.40889222  0.44056609  1
  S  S29  1  0.82614892  0.45267547  0.53324783  1
  S  S30  1  0.44724795  0.49235006  0.82092626  1
  S  S31  1  0.56113963  0.49353938  0.19649756  1
  S  S32  1  0.92519708  0.52019370  0.98960299  1
  S  S33  1  0.08803524  0.55714839  0.01223374  1
  S  S34  1  0.68002142  0.48226734  0.90002483  1
  S  S35  1  0.34263395  0.46329002  0.11950659  1
  S  S36  1  0.59799245  0.97657875  0.66843818  1
  S  S37  1  0.42287860  0.98934763  0.37255592  1
  S  S38  1  0.25091273  0.42807723  0.30522358  1
  S  S39  1  0.77126337  0.42477836  0.70349683  1
  S  S40  1  0.66615038  0.97921997  0.44864553  1
  S  S41  1  0.33131135  0.05617608  0.56129439  1
