# generated using pymatgen
data_Pr2Mn3(SbS3)4
_symmetry_space_group_name_H-M   'P 1'
_cell_length_a   20.02960800
_cell_length_b   3.90410600
_cell_length_c   14.95364829
_cell_angle_alpha   90.00000000
_cell_angle_beta   126.33350609
_cell_angle_gamma   90.00000000
_symmetry_Int_Tables_number   1
_chemical_formula_structural   Pr2Mn3(SbS3)4
_chemical_formula_sum   'Pr4 Mn6 Sb8 S24'
_cell_volume   942.00006694
_cell_formula_units_Z   2
loop_
 _symmetry_equiv_pos_site_id
 _symmetry_equiv_pos_as_xyz
  1  'x, y, z'
loop_
 _atom_site_type_symbol
 _atom_site_label
 _atom_site_symmetry_multiplicity
 _atom_site_fract_x
 _atom_site_fract_y
 _atom_site_fract_z
 _atom_site_occupancy
  Pr  Pr0  1  0.25902848  0.50791648  0.86233815  1
  Pr  Pr1  1  0.73066630  0.55414826  0.12581494  1
  Pr  Pr2  1  0.76971355  0.99319477  0.88901964  1
  Pr  Pr3  1  0.24501008  0.98921129  0.14753119  1
  Mn  Mn4  1  0.28336073  0.56216604  0.59189151  1
  Mn  Mn5  1  0.69677583  0.42360858  0.38669133  1
  Mn  Mn6  1  0.99389915  0.98054684  0.00103711  1
  Mn  Mn7  1  0.79300907  0.97812946  0.59919007  1
  Mn  Mn8  1  0.20603469  0.92472845  0.41409689  1
  Mn  Mn9  1  0.50250816  0.50376514  0.01312462  1
  Sb  Sb10  1  0.88718000  0.01470492  0.44284041  1
  Sb  Sb11  1  0.10993879  0.03576224  0.55627017  1
  Sb  Sb12  1  0.03058716  0.51829252  0.80570715  1
  Sb  Sb13  1  0.96665554  0.51720415  0.18999084  1
  Sb  Sb14  1  0.40401982  0.50076427  0.47240312  1
  Sb  Sb15  1  0.61369423  0.43422361  0.57113682  1
  Sb  Sb16  1  0.53128300  0.98849337  0.81878339  1
  Sb  Sb17  1  0.46666635  0.02938278  0.17722151  1
  S  S18  1  0.93394097  0.01149291  0.78973165  1
  S  S19  1  0.05934193  0.00192846  0.18620326  1
  S  S20  1  0.41457047  0.98991260  0.97793880  1
  S  S21  1  0.58369183  0.03210918  0.02496808  1
  S  S22  1  0.18101478  0.00538079  0.89092091  1
  S  S23  1  0.83286650  0.03019450  0.12218766  1
  S  S24  1  0.08753794  0.46279007  0.65591552  1
  S  S25  1  0.88838837  0.52315532  0.32871667  1
  S  S26  1  0.73033236  0.95665502  0.30756898  1
  S  S27  1  0.26186000  0.94944386  0.68156888  1
  S  S28  1  0.15989172  0.40929464  0.44060021  1
  S  S29  1  0.82628323  0.45366073  0.53317449  1
  S  S30  1  0.44705899  0.49336429  0.82080935  1
  S  S31  1  0.56151433  0.49369870  0.19672174  1
  S  S32  1  0.92542726  0.51877069  0.98975068  1
  S  S33  1  0.08799611  0.55601593  0.01210214  1
  S  S34  1  0.68010303  0.48172444  0.89975488  1
  S  S35  1  0.34251366  0.46336391  0.11973323  1
  S  S36  1  0.59812769  0.97535063  0.66855536  1
  S  S37  1  0.42263903  0.98999277  0.37213548  1
  S  S38  1  0.25092513  0.42919865  0.30577343  1
  S  S39  1  0.77106781  0.42691296  0.70327357  1
  S  S40  1  0.66573826  0.97882009  0.44835629  1
  S  S41  1  0.33136928  0.05680326  0.56141096  1
