# generated using pymatgen
data_Pr2Mn3(SbS3)4
_symmetry_space_group_name_H-M   'P 1'
_cell_length_a   20.02960800
_cell_length_b   3.90410600
_cell_length_c   14.95364829
_cell_angle_alpha   90.00000000
_cell_angle_beta   126.33350609
_cell_angle_gamma   90.00000000
_symmetry_Int_Tables_number   1
_chemical_formula_structural   Pr2Mn3(SbS3)4
_chemical_formula_sum   'Pr4 Mn6 Sb8 S24'
_cell_volume   942.00006694
_cell_formula_units_Z   2
loop_
 _symmetry_equiv_pos_site_id
 _symmetry_equiv_pos_as_xyz
  1  'x, y, z'
loop_
 _atom_site_type_symbol
 _atom_site_label
 _atom_site_symmetry_multiplicity
 _atom_site_fract_x
 _atom_site_fract_y
 _atom_site_fract_z
 _atom_site_occupancy
  Pr  Pr0  1  0.25890843  0.50759158  0.86212608  1
  Pr  Pr1  1  0.73055045  0.55451444  0.12553405  1
  Pr  Pr2  1  0.76985471  0.99320531  0.88898785  1
  Pr  Pr3  1  0.24492553  0.98913298  0.14733103  1
  Mn  Mn4  1  0.28393676  0.56326952  0.59228977  1
  Mn  Mn5  1  0.69650525  0.42295141  0.38640303  1
  Mn  Mn6  1  0.99388014  0.97943038  0.00108659  1
  Mn  Mn7  1  0.79324818  0.97773346  0.59947451  1
  Mn  Mn8  1  0.20594709  0.92399816  0.41400545  1
  Mn  Mn9  1  0.50241221  0.50259853  0.01314659  1
  Sb  Sb10  1  0.88722231  0.01487040  0.44294695  1
  Sb  Sb11  1  0.11008479  0.03518868  0.55650102  1
  Sb  Sb12  1  0.03048837  0.51792469  0.80558570  1
  Sb  Sb13  1  0.96670403  0.51630748  0.18994906  1
  Sb  Sb14  1  0.40399498  0.50095993  0.47254481  1
  Sb  Sb15  1  0.61373669  0.43396352  0.57115563  1
  Sb  Sb16  1  0.53121288  0.98856122  0.81850521  1
  Sb  Sb17  1  0.46666682  0.02958118  0.17740052  1
  S  S18  1  0.93362014  0.01130992  0.78966143  1
  S  S19  1  0.05940856  0.00106914  0.18657981  1
  S  S20  1  0.41455006  0.99078933  0.97786336  1
  S  S21  1  0.58349756  0.03053794  0.02499451  1
  S  S22  1  0.18099927  0.00622245  0.89091513  1
  S  S23  1  0.83305804  0.02982066  0.12216654  1
  S  S24  1  0.08734768  0.46253526  0.65593958  1
  S  S25  1  0.88844686  0.52318956  0.32874521  1
  S  S26  1  0.73048663  0.95534045  0.30796161  1
  S  S27  1  0.26188950  0.94958194  0.68174762  1
  S  S28  1  0.15998818  0.40981147  0.44079028  1
  S  S29  1  0.82636595  0.45493889  0.53302368  1
  S  S30  1  0.44688983  0.49443475  0.82057781  1
  S  S31  1  0.56196660  0.49402536  0.19688170  1
  S  S32  1  0.92562393  0.51808508  0.98966864  1
  S  S33  1  0.08791566  0.55470448  0.01190135  1
  S  S34  1  0.68027886  0.48132947  0.89956011  1
  S  S35  1  0.34232051  0.46345891  0.11983741  1
  S  S36  1  0.59825316  0.97358498  0.66880181  1
  S  S37  1  0.42233065  0.99038000  0.37179484  1
  S  S38  1  0.25089964  0.43063688  0.30623678  1
  S  S39  1  0.77094911  0.42850529  0.70310127  1
  S  S40  1  0.66519038  0.97840767  0.44798114  1
  S  S41  1  0.33146582  0.05710629  0.56145703  1
