# generated using pymatgen
data_Pr2Mn3(SbS3)4
_symmetry_space_group_name_H-M   'P 1'
_cell_length_a   20.02960800
_cell_length_b   3.90410600
_cell_length_c   14.95364829
_cell_angle_alpha   90.00000000
_cell_angle_beta   126.33350609
_cell_angle_gamma   90.00000000
_symmetry_Int_Tables_number   1
_chemical_formula_structural   Pr2Mn3(SbS3)4
_chemical_formula_sum   'Pr4 Mn6 Sb8 S24'
_cell_volume   942.00006694
_cell_formula_units_Z   2
loop_
 _symmetry_equiv_pos_site_id
 _symmetry_equiv_pos_as_xyz
  1  'x, y, z'
loop_
 _atom_site_type_symbol
 _atom_site_label
 _atom_site_symmetry_multiplicity
 _atom_site_fract_x
 _atom_site_fract_y
 _atom_site_fract_z
 _atom_site_occupancy
  Pr  Pr0  1  0.25882707  0.50732509  0.86187353  1
  Pr  Pr1  1  0.73046072  0.55483022  0.12526457  1
  Pr  Pr2  1  0.77002035  0.99302675  0.88895683  1
  Pr  Pr3  1  0.24487956  0.98911760  0.14718182  1
  Mn  Mn4  1  0.28436262  0.56475367  0.59260807  1
  Mn  Mn5  1  0.69631085  0.42226278  0.38610887  1
  Mn  Mn6  1  0.99379446  0.97796919  0.00107495  1
  Mn  Mn7  1  0.79338961  0.97731936  0.59977510  1
  Mn  Mn8  1  0.20588776  0.92297396  0.41383762  1
  Mn  Mn9  1  0.50231201  0.50161026  0.01317954  1
  Sb  Sb10  1  0.88732511  0.01503603  0.44309315  1
  Sb  Sb11  1  0.11024868  0.03492068  0.55675311  1
  Sb  Sb12  1  0.03032524  0.51745072  0.80545266  1
  Sb  Sb13  1  0.96669791  0.51532451  0.18986301  1
  Sb  Sb14  1  0.40398481  0.50136186  0.47258695  1
  Sb  Sb15  1  0.61375958  0.43419438  0.57115844  1
  Sb  Sb16  1  0.53114613  0.98805666  0.81819153  1
  Sb  Sb17  1  0.46672707  0.02954825  0.17748825  1
  S  S18  1  0.93347507  0.01148848  0.78981192  1
  S  S19  1  0.05942229  0.00038906  0.18689300  1
  S  S20  1  0.41457755  0.99108183  0.97781378  1
  S  S21  1  0.58326150  0.02896941  0.02500744  1
  S  S22  1  0.18097182  0.00703412  0.89094408  1
  S  S23  1  0.83309950  0.02972745  0.12192463  1
  S  S24  1  0.08726725  0.46225366  0.65600759  1
  S  S25  1  0.88854221  0.52273911  0.32869866  1
  S  S26  1  0.73061537  0.95373584  0.30824460  1
  S  S27  1  0.26190910  0.94967074  0.68200836  1
  S  S28  1  0.16012399  0.41022104  0.44100306  1
  S  S29  1  0.82667238  0.45503439  0.53305990  1
  S  S30  1  0.44693936  0.49516116  0.82051258  1
  S  S31  1  0.56238034  0.49449714  0.19729223  1
  S  S32  1  0.92586437  0.51749685  0.98956193  1
  S  S33  1  0.08780274  0.55350883  0.01171974  1
  S  S34  1  0.68051076  0.48140017  0.89962911  1
  S  S35  1  0.34222469  0.46339911  0.12001814  1
  S  S36  1  0.59839814  0.97197317  0.66898071  1
  S  S37  1  0.42204239  0.99064143  0.37156310  1
  S  S38  1  0.25091763  0.43142083  0.30652519  1
  S  S39  1  0.77069116  0.42958535  0.70274394  1
  S  S40  1  0.66467287  0.97772599  0.44764310  1
  S  S41  1  0.33161347  0.05787213  0.56151732  1
