# generated using pymatgen
data_Pr2Mn3(SbS3)4
_symmetry_space_group_name_H-M   'P 1'
_cell_length_a   20.02960800
_cell_length_b   3.90410600
_cell_length_c   14.95364829
_cell_angle_alpha   90.00000000
_cell_angle_beta   126.33350609
_cell_angle_gamma   90.00000000
_symmetry_Int_Tables_number   1
_chemical_formula_structural   Pr2Mn3(SbS3)4
_chemical_formula_sum   'Pr4 Mn6 Sb8 S24'
_cell_volume   942.00006694
_cell_formula_units_Z   2
loop_
 _symmetry_equiv_pos_site_id
 _symmetry_equiv_pos_as_xyz
  1  'x, y, z'
loop_
 _atom_site_type_symbol
 _atom_site_label
 _atom_site_symmetry_multiplicity
 _atom_site_fract_x
 _atom_site_fract_y
 _atom_site_fract_z
 _atom_site_occupancy
  Pr  Pr0  1  0.25869397  0.50725610  0.86158642  1
  Pr  Pr1  1  0.73031752  0.55490432  0.12499749  1
  Pr  Pr2  1  0.77019226  0.99280668  0.88886744  1
  Pr  Pr3  1  0.24478467  0.98924094  0.14699996  1
  Mn  Mn4  1  0.28475889  0.56594455  0.59282912  1
  Mn  Mn5  1  0.69625205  0.42123626  0.38595683  1
  Mn  Mn6  1  0.99374608  0.97632978  0.00112133  1
  Mn  Mn7  1  0.79343348  0.97727163  0.59980615  1
  Mn  Mn8  1  0.20587985  0.92211593  0.41376180  1
  Mn  Mn9  1  0.50221745  0.50049268  0.01324903  1
  Sb  Sb10  1  0.88740385  0.01506725  0.44323496  1
  Sb  Sb11  1  0.11041880  0.03464149  0.55696590  1
  Sb  Sb12  1  0.03020686  0.51688482  0.80532893  1
  Sb  Sb13  1  0.96664969  0.51480525  0.18974168  1
  Sb  Sb14  1  0.40389015  0.50217553  0.47261929  1
  Sb  Sb15  1  0.61385167  0.43406931  0.57122140  1
  Sb  Sb16  1  0.53108702  0.98776044  0.81799387  1
  Sb  Sb17  1  0.46674677  0.02940896  0.17761806  1
  S  S18  1  0.93326330  0.01159566  0.78982493  1
  S  S19  1  0.05952331  0.99943781  0.18711375  1
  S  S20  1  0.41470011  0.99145954  0.97790973  1
  S  S21  1  0.58313210  0.02708584  0.02527854  1
  S  S22  1  0.18091712  0.00689716  0.89109334  1
  S  S23  1  0.83309741  0.02929791  0.12170137  1
  S  S24  1  0.08720398  0.46214078  0.65614890  1
  S  S25  1  0.88859044  0.52234133  0.32857119  1
  S  S26  1  0.73067911  0.95162837  0.30839990  1
  S  S27  1  0.26211560  0.94936115  0.68233419  1
  S  S28  1  0.16033715  0.41061878  0.44106383  1
  S  S29  1  0.82698160  0.45513146  0.53327069  1
  S  S30  1  0.44699396  0.49599613  0.82065607  1
  S  S31  1  0.56262342  0.49446915  0.19762977  1
  S  S32  1  0.92596544  0.51675406  0.98940979  1
  S  S33  1  0.08787390  0.55320651  0.01174346  1
  S  S34  1  0.68063410  0.48128645  0.89968465  1
  S  S35  1  0.34211999  0.46299087  0.12008498  1
  S  S36  1  0.59862529  0.97082723  0.66928494  1
  S  S37  1  0.42180948  0.99110232  0.37139202  1
  S  S38  1  0.25092858  0.43251448  0.30690850  1
  S  S39  1  0.77036554  0.43026854  0.70230857  1
  S  S40  1  0.66406863  0.97728644  0.44730458  1
  S  S41  1  0.33185925  0.05897612  0.56162107  1
