# generated using pymatgen
data_Pr2Mn3(SbS3)4
_symmetry_space_group_name_H-M   'P 1'
_cell_length_a   20.02960800
_cell_length_b   3.90410600
_cell_length_c   14.95364829
_cell_angle_alpha   90.00000000
_cell_angle_beta   126.33350609
_cell_angle_gamma   90.00000000
_symmetry_Int_Tables_number   1
_chemical_formula_structural   Pr2Mn3(SbS3)4
_chemical_formula_sum   'Pr4 Mn6 Sb8 S24'
_cell_volume   942.00006694
_cell_formula_units_Z   2
loop_
 _symmetry_equiv_pos_site_id
 _symmetry_equiv_pos_as_xyz
  1  'x, y, z'
loop_
 _atom_site_type_symbol
 _atom_site_label
 _atom_site_symmetry_multiplicity
 _atom_site_fract_x
 _atom_site_fract_y
 _atom_site_fract_z
 _atom_site_occupancy
  Pr  Pr0  1  0.25856135  0.50725418  0.86131191  1
  Pr  Pr1  1  0.73023109  0.55497610  0.12483264  1
  Pr  Pr2  1  0.77036010  0.99255686  0.88876749  1
  Pr  Pr3  1  0.24474344  0.98932358  0.14685570  1
  Mn  Mn4  1  0.28506045  0.56683535  0.59293449  1
  Mn  Mn5  1  0.69610625  0.42065645  0.38563566  1
  Mn  Mn6  1  0.99378327  0.97450100  0.00132856  1
  Mn  Mn7  1  0.79348423  0.97752053  0.59971567  1
  Mn  Mn8  1  0.20593305  0.92083631  0.41363785  1
  Mn  Mn9  1  0.50212335  0.49910961  0.01338157  1
  Sb  Sb10  1  0.88748296  0.01536412  0.44335466  1
  Sb  Sb11  1  0.11047552  0.03409162  0.55706611  1
  Sb  Sb12  1  0.02996978  0.51674964  0.80505523  1
  Sb  Sb13  1  0.96659944  0.51434973  0.18954900  1
  Sb  Sb14  1  0.40381112  0.50263186  0.47267830  1
  Sb  Sb15  1  0.61386089  0.43377220  0.57114243  1
  Sb  Sb16  1  0.53111073  0.98762424  0.81783431  1
  Sb  Sb17  1  0.46676291  0.02954894  0.17765732  1
  S  S18  1  0.93300853  0.01156366  0.78990574  1
  S  S19  1  0.05952248  0.99888506  0.18741550  1
  S  S20  1  0.41488772  0.99213723  0.97805657  1
  S  S21  1  0.58302151  0.02478565  0.02531159  1
  S  S22  1  0.18100877  0.00666770  0.89131133  1
  S  S23  1  0.83306972  0.02872411  0.12172797  1
  S  S24  1  0.08723127  0.46246070  0.65648312  1
  S  S25  1  0.88861161  0.52215268  0.32853095  1
  S  S26  1  0.73077058  0.94957748  0.30846920  1
  S  S27  1  0.26241485  0.94934682  0.68275569  1
  S  S28  1  0.16048602  0.41127540  0.44120473  1
  S  S29  1  0.82709676  0.45480136  0.53337119  1
  S  S30  1  0.44695795  0.49660879  0.82068398  1
  S  S31  1  0.56275326  0.49466808  0.19788050  1
  S  S32  1  0.92604127  0.51562437  0.98934512  1
  S  S33  1  0.08808114  0.55306689  0.01193093  1
  S  S34  1  0.68062266  0.48161812  0.89964449  1
  S  S35  1  0.34213739  0.46262191  0.12017679  1
  S  S36  1  0.59880445  0.96967999  0.66950129  1
  S  S37  1  0.42166885  0.99203400  0.37132110  1
  S  S38  1  0.25082169  0.43373154  0.30708512  1
  S  S39  1  0.76996727  0.43131427  0.70177943  1
  S  S40  1  0.66347979  0.97639803  0.44697408  1
  S  S41  1  0.33200209  0.05994873  0.56164025  1
