# generated using pymatgen
data_Pr2Mn3(SbS3)4
_symmetry_space_group_name_H-M   'P 1'
_cell_length_a   20.02960800
_cell_length_b   3.90410600
_cell_length_c   14.95364829
_cell_angle_alpha   90.00000000
_cell_angle_beta   126.33350609
_cell_angle_gamma   90.00000000
_symmetry_Int_Tables_number   1
_chemical_formula_structural   Pr2Mn3(SbS3)4
_chemical_formula_sum   'Pr4 Mn6 Sb8 S24'
_cell_volume   942.00006694
_cell_formula_units_Z   2
loop_
 _symmetry_equiv_pos_site_id
 _symmetry_equiv_pos_as_xyz
  1  'x, y, z'
loop_
 _atom_site_type_symbol
 _atom_site_label
 _atom_site_symmetry_multiplicity
 _atom_site_fract_x
 _atom_site_fract_y
 _atom_site_fract_z
 _atom_site_occupancy
  Pr  Pr0  1  0.25843894  0.50702104  0.86109178  1
  Pr  Pr1  1  0.73017527  0.55495368  0.12475261  1
  Pr  Pr2  1  0.77054409  0.99221562  0.88875030  1
  Pr  Pr3  1  0.24475577  0.98923882  0.14683575  1
  Mn  Mn4  1  0.28525859  0.56776925  0.59287060  1
  Mn  Mn5  1  0.69585712  0.42037140  0.38520151  1
  Mn  Mn6  1  0.99378921  0.97298562  0.00135895  1
  Mn  Mn7  1  0.79345077  0.97816122  0.59970739  1
  Mn  Mn8  1  0.20596554  0.92010982  0.41339228  1
  Mn  Mn9  1  0.50183572  0.49772858  0.01333679  1
  Sb  Sb10  1  0.88747026  0.01569834  0.44333516  1
  Sb  Sb11  1  0.11052789  0.03346388  0.55727500  1
  Sb  Sb12  1  0.02971733  0.51664863  0.80483087  1
  Sb  Sb13  1  0.96656528  0.51411157  0.18937954  1
  Sb  Sb14  1  0.40367160  0.50311424  0.47278823  1
  Sb  Sb15  1  0.61379213  0.43352692  0.57086618  1
  Sb  Sb16  1  0.53111824  0.98753267  0.81759339  1
  Sb  Sb17  1  0.46679893  0.03008428  0.17779493  1
  S  S18  1  0.93274440  0.01233222  0.78993486  1
  S  S19  1  0.05970873  0.99910607  0.18779233  1
  S  S20  1  0.41495575  0.99311663  0.97813028  1
  S  S21  1  0.58273884  0.02320351  0.02506909  1
  S  S22  1  0.18104756  0.00648985  0.89145374  1
  S  S23  1  0.83302973  0.02853422  0.12172684  1
  S  S24  1  0.08717964  0.46257841  0.65670007  1
  S  S25  1  0.88869368  0.52259019  0.32860275  1
  S  S26  1  0.73090813  0.94817067  0.30851873  1
  S  S27  1  0.26275222  0.94935153  0.68323137  1
  S  S28  1  0.16051453  0.41140409  0.44141111  1
  S  S29  1  0.82731940  0.45457331  0.53350369  1
  S  S30  1  0.44674725  0.49714788  0.82054681  1
  S  S31  1  0.56281289  0.49450118  0.19818180  1
  S  S32  1  0.92599946  0.51432373  0.98920317  1
  S  S33  1  0.08814938  0.55284496  0.01207497  1
  S  S34  1  0.68061512  0.48167489  0.89970538  1
  S  S35  1  0.34222891  0.46191713  0.12040759  1
  S  S36  1  0.59881882  0.96866221  0.66957240  1
  S  S37  1  0.42156508  0.99247446  0.37127455  1
  S  S38  1  0.25059767  0.43483572  0.30685386  1
  S  S39  1  0.76949899  0.43268415  0.70124428  1
  S  S40  1  0.66288283  0.97517473  0.44645910  1
  S  S41  1  0.33213592  0.06114763  0.56174063  1
