# generated using pymatgen
data_Pr2Mn3(SbS3)4
_symmetry_space_group_name_H-M   'P 1'
_cell_length_a   20.02960800
_cell_length_b   3.90410600
_cell_length_c   14.95364829
_cell_angle_alpha   90.00000000
_cell_angle_beta   126.33350609
_cell_angle_gamma   90.00000000
_symmetry_Int_Tables_number   1
_chemical_formula_structural   Pr2Mn3(SbS3)4
_chemical_formula_sum   'Pr4 Mn6 Sb8 S24'
_cell_volume   942.00006694
_cell_formula_units_Z   2
loop_
 _symmetry_equiv_pos_site_id
 _symmetry_equiv_pos_as_xyz
  1  'x, y, z'
loop_
 _atom_site_type_symbol
 _atom_site_label
 _atom_site_symmetry_multiplicity
 _atom_site_fract_x
 _atom_site_fract_y
 _atom_site_fract_z
 _atom_site_occupancy
  Pr  Pr0  1  0.25829744  0.50676510  0.86077990  1
  Pr  Pr1  1  0.73006519  0.55488492  0.12463475  1
  Pr  Pr2  1  0.77073073  0.99188693  0.88869182  1
  Pr  Pr3  1  0.24470375  0.98915635  0.14665936  1
  Mn  Mn4  1  0.28528171  0.56861223  0.59269487  1
  Mn  Mn5  1  0.69555111  0.42050641  0.38480752  1
  Mn  Mn6  1  0.99379711  0.97147385  0.00138003  1
  Mn  Mn7  1  0.79337876  0.97868375  0.59963835  1
  Mn  Mn8  1  0.20604104  0.91925374  0.41314808  1
  Mn  Mn9  1  0.50161760  0.49713291  0.01316327  1
  Sb  Sb10  1  0.88750458  0.01624563  0.44340495  1
  Sb  Sb11  1  0.11058903  0.03294169  0.55744573  1
  Sb  Sb12  1  0.02955842  0.51653382  0.80462160  1
  Sb  Sb13  1  0.96661303  0.51410099  0.18927794  1
  Sb  Sb14  1  0.40346636  0.50364463  0.47289426  1
  Sb  Sb15  1  0.61360511  0.43338723  0.57054807  1
  Sb  Sb16  1  0.53113684  0.98759786  0.81743132  1
  Sb  Sb17  1  0.46679168  0.03039075  0.17778323  1
  S  S18  1  0.93269262  0.01339758  0.79021203  1
  S  S19  1  0.05998422  0.99875420  0.18829604  1
  S  S20  1  0.41500207  0.99445999  0.97814579  1
  S  S21  1  0.58247097  0.02277530  0.02472043  1
  S  S22  1  0.18118919  0.00643490  0.89185671  1
  S  S23  1  0.83288248  0.02839753  0.12151138  1
  S  S24  1  0.08700698  0.46233774  0.65668949  1
  S  S25  1  0.88866623  0.52245456  0.32870705  1
  S  S26  1  0.73098380  0.94698383  0.30838713  1
  S  S27  1  0.26301583  0.94928292  0.68366735  1
  S  S28  1  0.16062587  0.41195094  0.44153546  1
  S  S29  1  0.82759858  0.45405882  0.53365948  1
  S  S30  1  0.44653282  0.49784946  0.82026848  1
  S  S31  1  0.56300003  0.49477849  0.19850011  1
  S  S32  1  0.92582250  0.51260951  0.98883633  1
  S  S33  1  0.08819347  0.55231576  0.01215284  1
  S  S34  1  0.68040045  0.48166088  0.89958684  1
  S  S35  1  0.34221233  0.46115265  0.12057959  1
  S  S36  1  0.59885419  0.96813394  0.66947648  1
  S  S37  1  0.42158164  0.99319803  0.37129667  1
  S  S38  1  0.25040830  0.43576305  0.30661999  1
  S  S39  1  0.76912580  0.43409878  0.70076897  1
  S  S40  1  0.66254768  0.97401274  0.44595888  1
  S  S41  1  0.33227136  0.06240024  0.56165275  1
