# generated using pymatgen
data_Pr2Mn3(SbS3)4
_symmetry_space_group_name_H-M   'P 1'
_cell_length_a   20.02960800
_cell_length_b   3.90410600
_cell_length_c   14.95364829
_cell_angle_alpha   90.00000000
_cell_angle_beta   126.33350609
_cell_angle_gamma   90.00000000
_symmetry_Int_Tables_number   1
_chemical_formula_structural   Pr2Mn3(SbS3)4
_chemical_formula_sum   'Pr4 Mn6 Sb8 S24'
_cell_volume   942.00006694
_cell_formula_units_Z   2
loop_
 _symmetry_equiv_pos_site_id
 _symmetry_equiv_pos_as_xyz
  1  'x, y, z'
loop_
 _atom_site_type_symbol
 _atom_site_label
 _atom_site_symmetry_multiplicity
 _atom_site_fract_x
 _atom_site_fract_y
 _atom_site_fract_z
 _atom_site_occupancy
  Pr  Pr0  1  0.25811385  0.50669524  0.86041318  1
  Pr  Pr1  1  0.72997347  0.55502124  0.12453797  1
  Pr  Pr2  1  0.77089669  0.99162622  0.88855227  1
  Pr  Pr3  1  0.24475177  0.98898979  0.14656785  1
  Mn  Mn4  1  0.28533639  0.56958474  0.59254559  1
  Mn  Mn5  1  0.69536277  0.42096042  0.38447113  1
  Mn  Mn6  1  0.99376819  0.97013539  0.00137111  1
  Mn  Mn7  1  0.79340882  0.97927464  0.59963685  1
  Mn  Mn8  1  0.20616411  0.91877783  0.41295416  1
  Mn  Mn9  1  0.50140825  0.49683257  0.01303102  1
  Sb  Sb10  1  0.88754290  0.01679135  0.44348654  1
  Sb  Sb11  1  0.11065415  0.03224448  0.55753648  1
  Sb  Sb12  1  0.02933237  0.51628645  0.80440587  1
  Sb  Sb13  1  0.96666237  0.51404796  0.18922368  1
  Sb  Sb14  1  0.40327909  0.50399249  0.47300205  1
  Sb  Sb15  1  0.61350905  0.43310560  0.57034449  1
  Sb  Sb16  1  0.53115955  0.98765001  0.81738302  1
  Sb  Sb17  1  0.46670630  0.03033414  0.17767458  1
  S  S18  1  0.93275650  0.01395692  0.79062159  1
  S  S19  1  0.06023268  0.99830606  0.18883942  1
  S  S20  1  0.41493637  0.99559904  0.97814378  1
  S  S21  1  0.58212957  0.02236586  0.02417298  1
  S  S22  1  0.18137132  0.00650039  0.89239351  1
  S  S23  1  0.83272029  0.02821997  0.12130918  1
  S  S24  1  0.08687961  0.46168957  0.65690605  1
  S  S25  1  0.88875940  0.52192918  0.32917110  1
  S  S26  1  0.73098319  0.94634638  0.30827734  1
  S  S27  1  0.26326220  0.94945225  0.68399769  1
  S  S28  1  0.16056204  0.41179625  0.44157396  1
  S  S29  1  0.82777135  0.45347705  0.53375683  1
  S  S30  1  0.44629465  0.49957990  0.82012194  1
  S  S31  1  0.56301740  0.49485742  0.19873611  1
  S  S32  1  0.92558711  0.51093595  0.98852898  1
  S  S33  1  0.08819826  0.55197912  0.01211194  1
  S  S34  1  0.68028779  0.48119037  0.89937218  1
  S  S35  1  0.34221691  0.46017554  0.12078352  1
  S  S36  1  0.59894750  0.96840960  0.66954378  1
  S  S37  1  0.42163453  0.99428143  0.37145412  1
  S  S38  1  0.25028825  0.43728470  0.30668845  1
  S  S39  1  0.76878622  0.43482410  0.70053282  1
  S  S40  1  0.66203731  0.97285593  0.44531059  1
  S  S41  1  0.33235824  0.06365692  0.56164230  1
