# generated using pymatgen
data_Pr2Mn3(SbS3)4
_symmetry_space_group_name_H-M   'P 1'
_cell_length_a   20.02960800
_cell_length_b   3.90410600
_cell_length_c   14.95364829
_cell_angle_alpha   90.00000000
_cell_angle_beta   126.33350609
_cell_angle_gamma   90.00000000
_symmetry_Int_Tables_number   1
_chemical_formula_structural   Pr2Mn3(SbS3)4
_chemical_formula_sum   'Pr4 Mn6 Sb8 S24'
_cell_volume   942.00006694
_cell_formula_units_Z   2
loop_
 _symmetry_equiv_pos_site_id
 _symmetry_equiv_pos_as_xyz
  1  'x, y, z'
loop_
 _atom_site_type_symbol
 _atom_site_label
 _atom_site_symmetry_multiplicity
 _atom_site_fract_x
 _atom_site_fract_y
 _atom_site_fract_z
 _atom_site_occupancy
  Pr  Pr0  1  0.27016077  0.49669108  0.86725670  1
  Pr  Pr1  1  0.73398054  0.51112274  0.13318312  1
  Pr  Pr2  1  0.76354944  0.02552465  0.86203443  1
  Pr  Pr3  1  0.23373765  0.99541361  0.13133278  1
  Mn  Mn4  1  0.29455757  0.47904972  0.59827534  1
  Mn  Mn5  1  0.68664010  0.46167865  0.36459739  1
  Mn  Mn6  1  0.00569313  0.98905546  0.01175532  1
  Mn  Mn7  1  0.79814395  0.00009027  0.61871294  1
  Mn  Mn8  1  0.19696130  0.97906303  0.36932790  1
  Mn  Mn9  1  0.48747048  0.46805829  0.98609239  1
  Sb  Sb10  1  0.88897917  0.98678987  0.45183442  1
  Sb  Sb11  1  0.10917006  0.97851924  0.54462881  1
  Sb  Sb12  1  0.03525433  0.52399551  0.81891679  1
  Sb  Sb13  1  0.96607416  0.49877540  0.18991883  1
  Sb  Sb14  1  0.39252634  0.49957494  0.44782709  1
  Sb  Sb15  1  0.60560328  0.47344493  0.54784065  1
  Sb  Sb16  1  0.53377972  0.98321070  0.80884689  1
  Sb  Sb17  1  0.46521995  0.01816149  0.19053974  1
  S  S18  1  0.93648726  0.02515566  0.80816360  1
  S  S19  1  0.06456934  0.98974411  0.19890494  1
  S  S20  1  0.42092869  0.95389549  0.99185912  1
  S  S21  1  0.58481825  0.02539284  0.01402191  1
  S  S22  1  0.16969131  0.05616464  0.90003522  1
  S  S23  1  0.82727046  0.04443467  0.10216732  1
  S  S24  1  0.09041411  0.50816989  0.64638488  1
  S  S25  1  0.91652623  0.48148551  0.35932910  1
  S  S26  1  0.73771937  0.98236520  0.30207509  1
  S  S27  1  0.26140215  0.00095853  0.71237078  1
  S  S28  1  0.16572396  0.51611463  0.43264350  1
  S  S29  1  0.81785667  0.48357968  0.54702161  1
  S  S30  1  0.43137974  0.47774531  0.79674582  1
  S  S31  1  0.55488571  0.52123745  0.18061770  1
  S  S32  1  0.91785321  0.49536329  0.98921879  1
  S  S33  1  0.09134445  0.49140269  0.03252196  1
  S  S34  1  0.66408408  0.55111412  0.89393862  1
  S  S35  1  0.32624411  0.49380859  0.09324755  1
  S  S36  1  0.59472607  0.00070731  0.65240096  1
  S  S37  1  0.39959320  0.98377940  0.34357513  1
  S  S38  1  0.24259539  0.46576778  0.31567789  1
  S  S39  1  0.76041274  0.52417116  0.68848774  1
  S  S40  1  0.66497603  0.00181097  0.44996347  1
  S  S41  1  0.33161944  0.97938209  0.55569116  1
