# generated using pymatgen
data_Pr2Mn3(SbS3)4
_symmetry_space_group_name_H-M   'P 1'
_cell_length_a   20.02960800
_cell_length_b   3.90410600
_cell_length_c   14.95364829
_cell_angle_alpha   90.00000000
_cell_angle_beta   126.33350609
_cell_angle_gamma   90.00000000
_symmetry_Int_Tables_number   1
_chemical_formula_structural   Pr2Mn3(SbS3)4
_chemical_formula_sum   'Pr4 Mn6 Sb8 S24'
_cell_volume   942.00006694
_cell_formula_units_Z   2
loop_
 _symmetry_equiv_pos_site_id
 _symmetry_equiv_pos_as_xyz
  1  'x, y, z'
loop_
 _atom_site_type_symbol
 _atom_site_label
 _atom_site_symmetry_multiplicity
 _atom_site_fract_x
 _atom_site_fract_y
 _atom_site_fract_z
 _atom_site_occupancy
  Pr  Pr0  1  0.25799208  0.50687387  0.86003027  1
  Pr  Pr1  1  0.72984422  0.55491656  0.12445640  1
  Pr  Pr2  1  0.77108029  0.99119612  0.88847124  1
  Pr  Pr3  1  0.24477063  0.98882760  0.14641507  1
  Mn  Mn4  1  0.28548042  0.57020386  0.59250126  1
  Mn  Mn5  1  0.69523900  0.42181986  0.38430201  1
  Mn  Mn6  1  0.99375972  0.96902745  0.00138647  1
  Mn  Mn7  1  0.79346182  0.97959284  0.59957237  1
  Mn  Mn8  1  0.20628915  0.91808596  0.41271565  1
  Mn  Mn9  1  0.50123611  0.49634825  0.01289659  1
  Sb  Sb10  1  0.88759021  0.01735961  0.44359441  1
  Sb  Sb11  1  0.11067339  0.03182528  0.55762999  1
  Sb  Sb12  1  0.02907147  0.51595329  0.80422370  1
  Sb  Sb13  1  0.96672958  0.51386112  0.18925381  1
  Sb  Sb14  1  0.40307631  0.50438911  0.47305733  1
  Sb  Sb15  1  0.61349204  0.43275248  0.57020155  1
  Sb  Sb16  1  0.53118299  0.98793811  0.81733288  1
  Sb  Sb17  1  0.46658525  0.03056568  0.17756485  1
  S  S18  1  0.93298135  0.01533854  0.79105834  1
  S  S19  1  0.06035067  0.99775853  0.18955813  1
  S  S20  1  0.41491208  0.99577642  0.97813968  1
  S  S21  1  0.58180119  0.02180058  0.02364298  1
  S  S22  1  0.18142972  0.00652937  0.89279597  1
  S  S23  1  0.83268622  0.02800464  0.12121210  1
  S  S24  1  0.08676004  0.46051218  0.65715805  1
  S  S25  1  0.88892314  0.52122395  0.32963869  1
  S  S26  1  0.73101146  0.94602038  0.30815403  1
  S  S27  1  0.26350991  0.94992162  0.68450464  1
  S  S28  1  0.16054000  0.41140763  0.44144269  1
  S  S29  1  0.82801723  0.45243179  0.53393290  1
  S  S30  1  0.44602222  0.50207793  0.81982481  1
  S  S31  1  0.56307375  0.49488409  0.19891955  1
  S  S32  1  0.92535308  0.50949291  0.98806433  1
  S  S33  1  0.08799173  0.55154037  0.01198063  1
  S  S34  1  0.68018349  0.48107450  0.89893790  1
  S  S35  1  0.34214241  0.45951037  0.12074053  1
  S  S36  1  0.59904579  0.96844888  0.66974318  1
  S  S37  1  0.42169627  0.99515954  0.37162874  1
  S  S38  1  0.25020750  0.43931607  0.30672431  1
  S  S39  1  0.76843778  0.43521103  0.70035078  1
  S  S40  1  0.66159962  0.97205848  0.44479652  1
  S  S41  1  0.33228390  0.06447701  0.56151803  1
