# generated using pymatgen
data_Pr2Mn3(SbS3)4
_symmetry_space_group_name_H-M   'P 1'
_cell_length_a   20.02960800
_cell_length_b   3.90410600
_cell_length_c   14.95364829
_cell_angle_alpha   90.00000000
_cell_angle_beta   126.33350609
_cell_angle_gamma   90.00000000
_symmetry_Int_Tables_number   1
_chemical_formula_structural   Pr2Mn3(SbS3)4
_chemical_formula_sum   'Pr4 Mn6 Sb8 S24'
_cell_volume   942.00006694
_cell_formula_units_Z   2
loop_
 _symmetry_equiv_pos_site_id
 _symmetry_equiv_pos_as_xyz
  1  'x, y, z'
loop_
 _atom_site_type_symbol
 _atom_site_label
 _atom_site_symmetry_multiplicity
 _atom_site_fract_x
 _atom_site_fract_y
 _atom_site_fract_z
 _atom_site_occupancy
  Pr  Pr0  1  0.25791300  0.50665908  0.85970198  1
  Pr  Pr1  1  0.72971097  0.55474135  0.12440312  1
  Pr  Pr2  1  0.77122388  0.99073384  0.88841034  1
  Pr  Pr3  1  0.24480172  0.98860457  0.14628433  1
  Mn  Mn4  1  0.28560208  0.57037610  0.59249443  1
  Mn  Mn5  1  0.69516804  0.42284544  0.38415810  1
  Mn  Mn6  1  0.99383420  0.96833815  0.00143947  1
  Mn  Mn7  1  0.79348625  0.97943856  0.59939488  1
  Mn  Mn8  1  0.20624459  0.91792547  0.41250706  1
  Mn  Mn9  1  0.50131016  0.49633490  0.01289966  1
  Sb  Sb10  1  0.88762984  0.01787925  0.44378191  1
  Sb  Sb11  1  0.11078447  0.03181943  0.55770731  1
  Sb  Sb12  1  0.02877764  0.51561814  0.80401506  1
  Sb  Sb13  1  0.96680868  0.51352509  0.18926388  1
  Sb  Sb14  1  0.40285781  0.50478388  0.47312029  1
  Sb  Sb15  1  0.61347191  0.43238206  0.57017819  1
  Sb  Sb16  1  0.53121435  0.98815560  0.81738482  1
  Sb  Sb17  1  0.46644015  0.03078639  0.17746251  1
  S  S18  1  0.93333680  0.01667413  0.79170869  1
  S  S19  1  0.06038383  0.99744794  0.19029140  1
  S  S20  1  0.41468115  0.99606159  0.97793568  1
  S  S21  1  0.58154949  0.02124213  0.02311776  1
  S  S22  1  0.18145610  0.00681989  0.89311047  1
  S  S23  1  0.83261033  0.02731476  0.12093808  1
  S  S24  1  0.08672171  0.45956067  0.65745688  1
  S  S25  1  0.88896686  0.52073665  0.33008684  1
  S  S26  1  0.73092819  0.94535719  0.30771925  1
  S  S27  1  0.26373254  0.95049723  0.68514512  1
  S  S28  1  0.16049625  0.41138470  0.44130542  1
  S  S29  1  0.82820000  0.45161078  0.53408834  1
  S  S30  1  0.44588712  0.50420661  0.81954025  1
  S  S31  1  0.56310061  0.49488466  0.19917448  1
  S  S32  1  0.92516874  0.50855731  0.98769525  1
  S  S33  1  0.08790446  0.55150170  0.01190909  1
  S  S34  1  0.68013150  0.48109598  0.89865273  1
  S  S35  1  0.34200567  0.45801886  0.12081654  1
  S  S36  1  0.59917405  0.96804561  0.66975673  1
  S  S37  1  0.42178572  0.99595270  0.37192084  1
  S  S38  1  0.25007136  0.44182732  0.30667768  1
  S  S39  1  0.76816612  0.43610570  0.70014049  1
  S  S40  1  0.66137924  0.97158628  0.44462076  1
  S  S41  1  0.33221897  0.06576165  0.56148453  1
