# generated using pymatgen
data_Pr2Mn3(SbS3)4
_symmetry_space_group_name_H-M   'P 1'
_cell_length_a   20.02960800
_cell_length_b   3.90410600
_cell_length_c   14.95364829
_cell_angle_alpha   90.00000000
_cell_angle_beta   126.33350609
_cell_angle_gamma   90.00000000
_symmetry_Int_Tables_number   1
_chemical_formula_structural   Pr2Mn3(SbS3)4
_chemical_formula_sum   'Pr4 Mn6 Sb8 S24'
_cell_volume   942.00006694
_cell_formula_units_Z   2
loop_
 _symmetry_equiv_pos_site_id
 _symmetry_equiv_pos_as_xyz
  1  'x, y, z'
loop_
 _atom_site_type_symbol
 _atom_site_label
 _atom_site_symmetry_multiplicity
 _atom_site_fract_x
 _atom_site_fract_y
 _atom_site_fract_z
 _atom_site_occupancy
  Pr  Pr0  1  0.25785111  0.50677602  0.85944598  1
  Pr  Pr1  1  0.72958613  0.55470662  0.12432281  1
  Pr  Pr2  1  0.77138823  0.99025646  0.88835006  1
  Pr  Pr3  1  0.24471307  0.98850191  0.14606372  1
  Mn  Mn4  1  0.28560367  0.57054464  0.59239487  1
  Mn  Mn5  1  0.69505413  0.42417851  0.38392001  1
  Mn  Mn6  1  0.99414522  0.96792134  0.00162046  1
  Mn  Mn7  1  0.79351028  0.97929028  0.59919306  1
  Mn  Mn8  1  0.20618883  0.91747579  0.41220183  1
  Mn  Mn9  1  0.50127885  0.49600853  0.01269969  1
  Sb  Sb10  1  0.88769767  0.01823304  0.44400279  1
  Sb  Sb11  1  0.11083309  0.03178955  0.55772244  1
  Sb  Sb12  1  0.02852480  0.51516883  0.80381958  1
  Sb  Sb13  1  0.96693047  0.51338201  0.18941513  1
  Sb  Sb14  1  0.40265173  0.50486522  0.47321493  1
  Sb  Sb15  1  0.61341290  0.43217424  0.57009947  1
  Sb  Sb16  1  0.53122322  0.98834496  0.81742259  1
  Sb  Sb17  1  0.46629549  0.03097456  0.17740404  1
  S  S18  1  0.93371547  0.01766023  0.79247179  1
  S  S19  1  0.06049374  0.99774060  0.19090180  1
  S  S20  1  0.41450171  0.99616133  0.97782680  1
  S  S21  1  0.58151675  0.02066580  0.02277026  1
  S  S22  1  0.18158625  0.00749297  0.89339741  1
  S  S23  1  0.83260845  0.02624968  0.12079116  1
  S  S24  1  0.08680016  0.45875776  0.65794087  1
  S  S25  1  0.88907022  0.52046656  0.33061623  1
  S  S26  1  0.73085923  0.94453672  0.30728614  1
  S  S27  1  0.26395557  0.95079186  0.68584039  1
  S  S28  1  0.16040132  0.41147851  0.44124142  1
  S  S29  1  0.82820627  0.45055736  0.53405259  1
  S  S30  1  0.44582001  0.50603336  0.81923231  1
  S  S31  1  0.56329119  0.49462549  0.19949018  1
  S  S32  1  0.92498412  0.50795904  0.98735877  1
  S  S33  1  0.08782496  0.55215632  0.01189859  1
  S  S34  1  0.68014913  0.48176459  0.89851704  1
  S  S35  1  0.34187886  0.45713550  0.12083777  1
  S  S36  1  0.59934383  0.96842638  0.66982516  1
  S  S37  1  0.42180757  0.99694682  0.37204872  1
  S  S38  1  0.24974130  0.44427335  0.30628321  1
  S  S39  1  0.76805192  0.43666501  0.70003989  1
  S  S40  1  0.66112456  0.97108568  0.44434362  1
  S  S41  1  0.33206243  0.06652277  0.56129669  1
