# generated using pymatgen
data_Pr2Mn3(SbS3)4
_symmetry_space_group_name_H-M   'P 1'
_cell_length_a   20.02960800
_cell_length_b   3.90410600
_cell_length_c   14.95364829
_cell_angle_alpha   90.00000000
_cell_angle_beta   126.33350609
_cell_angle_gamma   90.00000000
_symmetry_Int_Tables_number   1
_chemical_formula_structural   Pr2Mn3(SbS3)4
_chemical_formula_sum   'Pr4 Mn6 Sb8 S24'
_cell_volume   942.00006694
_cell_formula_units_Z   2
loop_
 _symmetry_equiv_pos_site_id
 _symmetry_equiv_pos_as_xyz
  1  'x, y, z'
loop_
 _atom_site_type_symbol
 _atom_site_label
 _atom_site_symmetry_multiplicity
 _atom_site_fract_x
 _atom_site_fract_y
 _atom_site_fract_z
 _atom_site_occupancy
  Pr  Pr0  1  0.25785872  0.50710401  0.85930839  1
  Pr  Pr1  1  0.72950531  0.55468358  0.12425872  1
  Pr  Pr2  1  0.77160249  0.98985483  0.88830359  1
  Pr  Pr3  1  0.24463578  0.98816520  0.14590879  1
  Mn  Mn4  1  0.28555473  0.57062133  0.59220306  1
  Mn  Mn5  1  0.69486373  0.42537871  0.38375332  1
  Mn  Mn6  1  0.99440464  0.96785324  0.00182868  1
  Mn  Mn7  1  0.79348198  0.97856329  0.59902799  1
  Mn  Mn8  1  0.20617298  0.91700146  0.41197790  1
  Mn  Mn9  1  0.50129940  0.49603404  0.01250867  1
  Sb  Sb10  1  0.88780953  0.01875246  0.44420544  1
  Sb  Sb11  1  0.11087300  0.03183159  0.55772820  1
  Sb  Sb12  1  0.02831345  0.51478478  0.80362929  1
  Sb  Sb13  1  0.96706970  0.51326303  0.18962736  1
  Sb  Sb14  1  0.40240410  0.50522612  0.47330926  1
  Sb  Sb15  1  0.61330969  0.43216285  0.57002216  1
  Sb  Sb16  1  0.53117942  0.98849367  0.81738132  1
  Sb  Sb17  1  0.46612615  0.03120128  0.17734880  1
  S  S18  1  0.93403812  0.01892705  0.79327268  1
  S  S19  1  0.06049651  0.99812016  0.19130731  1
  S  S20  1  0.41437623  0.99727281  0.97760722  1
  S  S21  1  0.58143518  0.02053669  0.02243964  1
  S  S22  1  0.18147144  0.00793788  0.89347378  1
  S  S23  1  0.83254386  0.02510667  0.12052966  1
  S  S24  1  0.08672797  0.45829027  0.65831268  1
  S  S25  1  0.88907131  0.52007310  0.33098025  1
  S  S26  1  0.73083213  0.94402044  0.30696986  1
  S  S27  1  0.26396064  0.95091169  0.68630987  1
  S  S28  1  0.16027449  0.41075156  0.44112950  1
  S  S29  1  0.82822766  0.44938452  0.53406699  1
  S  S30  1  0.44571758  0.50739367  0.81889148  1
  S  S31  1  0.56368614  0.49479472  0.19996512  1
  S  S32  1  0.92478210  0.50730670  0.98707841  1
  S  S33  1  0.08782688  0.55238474  0.01200585  1
  S  S34  1  0.68025908  0.48241762  0.89854329  1
  S  S35  1  0.34169169  0.45624994  0.12075237  1
  S  S36  1  0.59966003  0.96901954  0.66995922  1
  S  S37  1  0.42192905  0.99842729  0.37224892  1
  S  S38  1  0.24928528  0.44714024  0.30576730  1
  S  S39  1  0.76807931  0.43700832  0.69993534  1
  S  S40  1  0.66087806  0.97059782  0.44396640  1
  S  S41  1  0.33182022  0.06730665  0.56104057  1
