# generated using pymatgen
data_Pr2Mn3(SbS3)4
_symmetry_space_group_name_H-M   'P 1'
_cell_length_a   20.02960800
_cell_length_b   3.90410600
_cell_length_c   14.95364829
_cell_angle_alpha   90.00000000
_cell_angle_beta   126.33350609
_cell_angle_gamma   90.00000000
_symmetry_Int_Tables_number   1
_chemical_formula_structural   Pr2Mn3(SbS3)4
_chemical_formula_sum   'Pr4 Mn6 Sb8 S24'
_cell_volume   942.00006694
_cell_formula_units_Z   2
loop_
 _symmetry_equiv_pos_site_id
 _symmetry_equiv_pos_as_xyz
  1  'x, y, z'
loop_
 _atom_site_type_symbol
 _atom_site_label
 _atom_site_symmetry_multiplicity
 _atom_site_fract_x
 _atom_site_fract_y
 _atom_site_fract_z
 _atom_site_occupancy
  Pr  Pr0  1  0.25791491  0.50730715  0.85923883  1
  Pr  Pr1  1  0.72940564  0.55493531  0.12420791  1
  Pr  Pr2  1  0.77179321  0.98935472  0.88824925  1
  Pr  Pr3  1  0.24450417  0.98785926  0.14574516  1
  Mn  Mn4  1  0.28547071  0.57106112  0.59206394  1
  Mn  Mn5  1  0.69466090  0.42606248  0.38355425  1
  Mn  Mn6  1  0.99465353  0.96725991  0.00212655  1
  Mn  Mn7  1  0.79348674  0.97816470  0.59890093  1
  Mn  Mn8  1  0.20609300  0.91626145  0.41170886  1
  Mn  Mn9  1  0.50125969  0.49578448  0.01230064  1
  Sb  Sb10  1  0.88790268  0.01933757  0.44444237  1
  Sb  Sb11  1  0.11086583  0.03190290  0.55777625  1
  Sb  Sb12  1  0.02819128  0.51448226  0.80353918  1
  Sb  Sb13  1  0.96725465  0.51288139  0.18986087  1
  Sb  Sb14  1  0.40227677  0.50552895  0.47354159  1
  Sb  Sb15  1  0.61328520  0.43198156  0.56998545  1
  Sb  Sb16  1  0.53116577  0.98849881  0.81743383  1
  Sb  Sb17  1  0.46600941  0.03151676  0.17727645  1
  S  S18  1  0.93421335  0.01990297  0.79388257  1
  S  S19  1  0.06053474  0.99831025  0.19153420  1
  S  S20  1  0.41439351  0.99827932  0.97746331  1
  S  S21  1  0.58136331  0.02065563  0.02207296  1
  S  S22  1  0.18153873  0.00827236  0.89351394  1
  S  S23  1  0.83266203  0.02445351  0.12058931  1
  S  S24  1  0.08668505  0.45791749  0.65872349  1
  S  S25  1  0.88898866  0.51951858  0.33122182  1
  S  S26  1  0.73092089  0.94362456  0.30671231  1
  S  S27  1  0.26388229  0.95116193  0.68675272  1
  S  S28  1  0.16021814  0.40988564  0.44096975  1
  S  S29  1  0.82815459  0.44907081  0.53403370  1
  S  S30  1  0.44566410  0.50869564  0.81875098  1
  S  S31  1  0.56413380  0.49482859  0.20036269  1
  S  S32  1  0.92464542  0.50677453  0.98686400  1
  S  S33  1  0.08765500  0.55265983  0.01183925  1
  S  S34  1  0.68017100  0.48232817  0.89846414  1
  S  S35  1  0.34149218  0.45557307  0.12053160  1
  S  S36  1  0.59990582  0.96914715  0.66995073  1
  S  S37  1  0.42211603  0.99992976  0.37252213  1
  S  S38  1  0.24898030  0.44954061  0.30533087  1
  S  S39  1  0.76829637  0.43775210  0.70020711  1
  S  S40  1  0.66064095  0.96939479  0.44368381  1
  S  S41  1  0.33160257  0.06890030  0.56094813  1
