# generated using pymatgen
data_Pr2Mn3(SbS3)4
_symmetry_space_group_name_H-M   'P 1'
_cell_length_a   20.02960800
_cell_length_b   3.90410600
_cell_length_c   14.95364829
_cell_angle_alpha   90.00000000
_cell_angle_beta   126.33350609
_cell_angle_gamma   90.00000000
_symmetry_Int_Tables_number   1
_chemical_formula_structural   Pr2Mn3(SbS3)4
_chemical_formula_sum   'Pr4 Mn6 Sb8 S24'
_cell_volume   942.00006694
_cell_formula_units_Z   2
loop_
 _symmetry_equiv_pos_site_id
 _symmetry_equiv_pos_as_xyz
  1  'x, y, z'
loop_
 _atom_site_type_symbol
 _atom_site_label
 _atom_site_symmetry_multiplicity
 _atom_site_fract_x
 _atom_site_fract_y
 _atom_site_fract_z
 _atom_site_occupancy
  Pr  Pr0  1  0.25799851  0.50754908  0.85918601  1
  Pr  Pr1  1  0.72929021  0.55518679  0.12411962  1
  Pr  Pr2  1  0.77196160  0.98891615  0.88825422  1
  Pr  Pr3  1  0.24436534  0.98774981  0.14559729  1
  Mn  Mn4  1  0.28536403  0.57120891  0.59197684  1
  Mn  Mn5  1  0.69446856  0.42611922  0.38328843  1
  Mn  Mn6  1  0.99484841  0.96685311  0.00237748  1
  Mn  Mn7  1  0.79344221  0.97787603  0.59880547  1
  Mn  Mn8  1  0.20594862  0.91537412  0.41159109  1
  Mn  Mn9  1  0.50119071  0.49609660  0.01216923  1
  Sb  Sb10  1  0.88797361  0.01975365  0.44462703  1
  Sb  Sb11  1  0.11089396  0.03195630  0.55785403  1
  Sb  Sb12  1  0.02802556  0.51388483  0.80333349  1
  Sb  Sb13  1  0.96743763  0.51261499  0.19005699  1
  Sb  Sb14  1  0.40214385  0.50567889  0.47379948  1
  Sb  Sb15  1  0.61326616  0.43206132  0.56999668  1
  Sb  Sb16  1  0.53117212  0.98848325  0.81744350  1
  Sb  Sb17  1  0.46590142  0.03195654  0.17718755  1
  S  S18  1  0.93429554  0.02092942  0.79429016  1
  S  S19  1  0.06045937  0.99853687  0.19165801  1
  S  S20  1  0.41425684  0.00006817  0.97724442  1
  S  S21  1  0.58142376  0.02035717  0.02186315  1
  S  S22  1  0.18147026  0.00871739  0.89361815  1
  S  S23  1  0.83248068  0.02412728  0.12056525  1
  S  S24  1  0.08655477  0.45720087  0.65882011  1
  S  S25  1  0.88893677  0.51913462  0.33138583  1
  S  S26  1  0.73096606  0.94314900  0.30652077  1
  S  S27  1  0.26385925  0.95145374  0.68726276  1
  S  S28  1  0.15999423  0.40971400  0.44070196  1
  S  S29  1  0.82800487  0.44864090  0.53408684  1
  S  S30  1  0.44561190  0.50995141  0.81868703  1
  S  S31  1  0.56464561  0.49518615  0.20090963  1
  S  S32  1  0.92450851  0.50645959  0.98666643  1
  S  S33  1  0.08745507  0.55366071  0.01163899  1
  S  S34  1  0.68030651  0.48176101  0.89862151  1
  S  S35  1  0.34133806  0.45475105  0.12030852  1
  S  S36  1  0.60007335  0.96897940  0.66984161  1
  S  S37  1  0.42242345  0.00041589  0.37285652  1
  S  S38  1  0.24864652  0.45152497  0.30474421  1
  S  S39  1  0.76862170  0.43860088  0.70043843  1
  S  S40  1  0.66044954  0.96939881  0.44340254  1
  S  S41  1  0.33126977  0.06993595  0.56063075  1
