# generated using pymatgen
data_Pr2Mn3(SbS3)4
_symmetry_space_group_name_H-M   'P 1'
_cell_length_a   20.02960800
_cell_length_b   3.90410600
_cell_length_c   14.95364829
_cell_angle_alpha   90.00000000
_cell_angle_beta   126.33350609
_cell_angle_gamma   90.00000000
_symmetry_Int_Tables_number   1
_chemical_formula_structural   Pr2Mn3(SbS3)4
_chemical_formula_sum   'Pr4 Mn6 Sb8 S24'
_cell_volume   942.00006694
_cell_formula_units_Z   2
loop_
 _symmetry_equiv_pos_site_id
 _symmetry_equiv_pos_as_xyz
  1  'x, y, z'
loop_
 _atom_site_type_symbol
 _atom_site_label
 _atom_site_symmetry_multiplicity
 _atom_site_fract_x
 _atom_site_fract_y
 _atom_site_fract_z
 _atom_site_occupancy
  Pr  Pr0  1  0.25808536  0.50770742  0.85900738  1
  Pr  Pr1  1  0.72918814  0.55574311  0.12402176  1
  Pr  Pr2  1  0.77205185  0.98887224  0.88823046  1
  Pr  Pr3  1  0.24433001  0.98731653  0.14553311  1
  Mn  Mn4  1  0.28522415  0.57162038  0.59165862  1
  Mn  Mn5  1  0.69434280  0.42655317  0.38313038  1
  Mn  Mn6  1  0.99492575  0.96612745  0.00248087  1
  Mn  Mn7  1  0.79335564  0.97741704  0.59865339  1
  Mn  Mn8  1  0.20571816  0.91532025  0.41137473  1
  Mn  Mn9  1  0.50108153  0.49621793  0.01197053  1
  Sb  Sb10  1  0.88807310  0.01990420  0.44484654  1
  Sb  Sb11  1  0.11089277  0.03204673  0.55790352  1
  Sb  Sb12  1  0.02788047  0.51332703  0.80312244  1
  Sb  Sb13  1  0.96752602  0.51260864  0.19026951  1
  Sb  Sb14  1  0.40201522  0.50576857  0.47401689  1
  Sb  Sb15  1  0.61322542  0.43231487  0.57003179  1
  Sb  Sb16  1  0.53115790  0.98903741  0.81738196  1
  Sb  Sb17  1  0.46578105  0.03241812  0.17711020  1
  S  S18  1  0.93419281  0.02178147  0.79436003  1
  S  S19  1  0.06033998  0.99895194  0.19171300  1
  S  S20  1  0.41409806  0.00119133  0.97700065  1
  S  S21  1  0.58148516  0.02031025  0.02168219  1
  S  S22  1  0.18137290  0.00856855  0.89355285  1
  S  S23  1  0.83218842  0.02411984  0.12041033  1
  S  S24  1  0.08642315  0.45717489  0.65890687  1
  S  S25  1  0.88883034  0.51885259  0.33135140  1
  S  S26  1  0.73108639  0.94222669  0.30632260  1
  S  S27  1  0.26382263  0.95162075  0.68778949  1
  S  S28  1  0.15993569  0.40961811  0.44043591  1
  S  S29  1  0.82792264  0.44795519  0.53415421  1
  S  S30  1  0.44564604  0.51140456  0.81869405  1
  S  S31  1  0.56514558  0.49549099  0.20127881  1
  S  S32  1  0.92429028  0.50515217  0.98630636  1
  S  S33  1  0.08720808  0.55411549  0.01152824  1
  S  S34  1  0.68054951  0.48222537  0.89893643  1
  S  S35  1  0.34101948  0.45403927  0.11988351  1
  S  S36  1  0.60023673  0.96870091  0.66969165  1
  S  S37  1  0.42252624  0.00094183  0.37297215  1
  S  S38  1  0.24838380  0.45222134  0.30420919  1
  S  S39  1  0.76879006  0.43946407  0.70052033  1
  S  S40  1  0.66029563  0.96912517  0.44315554  1
  S  S41  1  0.33093147  0.06982373  0.56033868  1
