# generated using pymatgen
data_Pr2Mn3(SbS3)4
_symmetry_space_group_name_H-M   'P 1'
_cell_length_a   20.02960800
_cell_length_b   3.90410600
_cell_length_c   14.95364829
_cell_angle_alpha   90.00000000
_cell_angle_beta   126.33350609
_cell_angle_gamma   90.00000000
_symmetry_Int_Tables_number   1
_chemical_formula_structural   Pr2Mn3(SbS3)4
_chemical_formula_sum   'Pr4 Mn6 Sb8 S24'
_cell_volume   942.00006694
_cell_formula_units_Z   2
loop_
 _symmetry_equiv_pos_site_id
 _symmetry_equiv_pos_as_xyz
  1  'x, y, z'
loop_
 _atom_site_type_symbol
 _atom_site_label
 _atom_site_symmetry_multiplicity
 _atom_site_fract_x
 _atom_site_fract_y
 _atom_site_fract_z
 _atom_site_occupancy
  Pr  Pr0  1  0.25814008  0.50781559  0.85886919  1
  Pr  Pr1  1  0.72902094  0.55630701  0.12386149  1
  Pr  Pr2  1  0.77216369  0.98882144  0.88831618  1
  Pr  Pr3  1  0.24431765  0.98691678  0.14552065  1
  Mn  Mn4  1  0.28490364  0.57215102  0.59129986  1
  Mn  Mn5  1  0.69426682  0.42689091  0.38310546  1
  Mn  Mn6  1  0.99486161  0.96493917  0.00244044  1
  Mn  Mn7  1  0.79335619  0.97708669  0.59858769  1
  Mn  Mn8  1  0.20564653  0.91526156  0.41142690  1
  Mn  Mn9  1  0.50103681  0.49584163  0.01183858  1
  Sb  Sb10  1  0.88815147  0.01984190  0.44497214  1
  Sb  Sb11  1  0.11088099  0.03214474  0.55800255  1
  Sb  Sb12  1  0.02767402  0.51274549  0.80295276  1
  Sb  Sb13  1  0.96759524  0.51275672  0.19038101  1
  Sb  Sb14  1  0.40188677  0.50571691  0.47414712  1
  Sb  Sb15  1  0.61315241  0.43258108  0.57003618  1
  Sb  Sb16  1  0.53112098  0.98955712  0.81732447  1
  Sb  Sb17  1  0.46564267  0.03284936  0.17695724  1
  S  S18  1  0.93429090  0.02200731  0.79469488  1
  S  S19  1  0.06027452  0.99901397  0.19195190  1
  S  S20  1  0.41404593  0.00286456  0.97677527  1
  S  S21  1  0.58147427  0.01982459  0.02158380  1
  S  S22  1  0.18132817  0.00857708  0.89364912  1
  S  S23  1  0.83184201  0.02379862  0.12014704  1
  S  S24  1  0.08618215  0.45707256  0.65890352  1
  S  S25  1  0.88863388  0.51851657  0.33122144  1
  S  S26  1  0.73112561  0.94149858  0.30634462  1
  S  S27  1  0.26389956  0.95204034  0.68847075  1
  S  S28  1  0.15981037  0.40908452  0.43997789  1
  S  S29  1  0.82781485  0.44699547  0.53440607  1
  S  S30  1  0.44577597  0.51386547  0.81879654  1
  S  S31  1  0.56555560  0.49595240  0.20155409  1
  S  S32  1  0.92411882  0.50426469  0.98607887  1
  S  S33  1  0.08708324  0.55364695  0.01149329  1
  S  S34  1  0.68083056  0.48186291  0.89929709  1
  S  S35  1  0.34078589  0.45269047  0.11955608  1
  S  S36  1  0.60038967  0.96878002  0.66942872  1
  S  S37  1  0.42260729  0.00128290  0.37304574  1
  S  S38  1  0.24808916  0.45318069  0.30353804  1
  S  S39  1  0.76893486  0.43978266  0.70059916  1
  S  S40  1  0.66014679  0.96889798  0.44298949  1
  S  S41  1  0.33065933  0.06974395  0.56013147  1
