# generated using pymatgen
data_Pr2Mn3(SbS3)4
_symmetry_space_group_name_H-M   'P 1'
_cell_length_a   20.02960800
_cell_length_b   3.90410600
_cell_length_c   14.95364829
_cell_angle_alpha   90.00000000
_cell_angle_beta   126.33350609
_cell_angle_gamma   90.00000000
_symmetry_Int_Tables_number   1
_chemical_formula_structural   Pr2Mn3(SbS3)4
_chemical_formula_sum   'Pr4 Mn6 Sb8 S24'
_cell_volume   942.00006694
_cell_formula_units_Z   2
loop_
 _symmetry_equiv_pos_site_id
 _symmetry_equiv_pos_as_xyz
  1  'x, y, z'
loop_
 _atom_site_type_symbol
 _atom_site_label
 _atom_site_symmetry_multiplicity
 _atom_site_fract_x
 _atom_site_fract_y
 _atom_site_fract_z
 _atom_site_occupancy
  Pr  Pr0  1  0.25811267  0.50789796  0.85872908  1
  Pr  Pr1  1  0.72887131  0.55683455  0.12371249  1
  Pr  Pr2  1  0.77215795  0.98841700  0.88830047  1
  Pr  Pr3  1  0.24434330  0.98643201  0.14556388  1
  Mn  Mn4  1  0.28464541  0.57244138  0.59103979  1
  Mn  Mn5  1  0.69427868  0.42713823  0.38304243  1
  Mn  Mn6  1  0.99483710  0.96424261  0.00221617  1
  Mn  Mn7  1  0.79339813  0.97715884  0.59863077  1
  Mn  Mn8  1  0.20543833  0.91510525  0.41143142  1
  Mn  Mn9  1  0.50110905  0.49560658  0.01185411  1
  Sb  Sb10  1  0.88822272  0.01980101  0.44505918  1
  Sb  Sb11  1  0.11080426  0.03198276  0.55809612  1
  Sb  Sb12  1  0.02748291  0.51206541  0.80280897  1
  Sb  Sb13  1  0.96768282  0.51263321  0.19053827  1
  Sb  Sb14  1  0.40169262  0.50569016  0.47421835  1
  Sb  Sb15  1  0.61313191  0.43323205  0.57005699  1
  Sb  Sb16  1  0.53108857  0.99054434  0.81729095  1
  Sb  Sb17  1  0.46551797  0.03345942  0.17671969  1
  S  S18  1  0.93426032  0.02235240  0.79481408  1
  S  S19  1  0.06026586  0.99852860  0.19222656  1
  S  S20  1  0.41415209  0.00460844  0.97670381  1
  S  S21  1  0.58154211  0.01902928  0.02153099  1
  S  S22  1  0.18131547  0.00827546  0.89360268  1
  S  S23  1  0.83160264  0.02318100  0.11992629  1
  S  S24  1  0.08594199  0.45676335  0.65880810  1
  S  S25  1  0.88845228  0.51819926  0.33105127  1
  S  S26  1  0.73123775  0.94134072  0.30628969  1
  S  S27  1  0.26411319  0.95274363  0.68912386  1
  S  S28  1  0.15961757  0.40853229  0.43951917  1
  S  S29  1  0.82773135  0.44676905  0.53464486  1
  S  S30  1  0.44595165  0.51584742  0.81901787  1
  S  S31  1  0.56591608  0.49566705  0.20198252  1
  S  S32  1  0.92399312  0.50362182  0.98564038  1
  S  S33  1  0.08685713  0.55278280  0.01124527  1
  S  S34  1  0.68111220  0.48143415  0.89974373  1
  S  S35  1  0.34053681  0.45121158  0.11912366  1
  S  S36  1  0.60058737  0.96901143  0.66930080  1
  S  S37  1  0.42271273  0.00146680  0.37302752  1
  S  S38  1  0.24782885  0.45426973  0.30296188  1
  S  S39  1  0.76913972  0.44001918  0.70058513  1
  S  S40  1  0.66004029  0.96936949  0.44275152  1
  S  S41  1  0.33027974  0.06971286  0.55978081  1
