# generated using pymatgen
data_Pr2Mn3(SbS3)4
_symmetry_space_group_name_H-M   'P 1'
_cell_length_a   20.02960800
_cell_length_b   3.90410600
_cell_length_c   14.95364829
_cell_angle_alpha   90.00000000
_cell_angle_beta   126.33350609
_cell_angle_gamma   90.00000000
_symmetry_Int_Tables_number   1
_chemical_formula_structural   Pr2Mn3(SbS3)4
_chemical_formula_sum   'Pr4 Mn6 Sb8 S24'
_cell_volume   942.00006694
_cell_formula_units_Z   2
loop_
 _symmetry_equiv_pos_site_id
 _symmetry_equiv_pos_as_xyz
  1  'x, y, z'
loop_
 _atom_site_type_symbol
 _atom_site_label
 _atom_site_symmetry_multiplicity
 _atom_site_fract_x
 _atom_site_fract_y
 _atom_site_fract_z
 _atom_site_occupancy
  Pr  Pr0  1  0.25805733  0.50787099  0.85852342  1
  Pr  Pr1  1  0.72875855  0.55703817  0.12367556  1
  Pr  Pr2  1  0.77213631  0.98796855  0.88822898  1
  Pr  Pr3  1  0.24435837  0.98579025  0.14561027  1
  Mn  Mn4  1  0.28440402  0.57228730  0.59083896  1
  Mn  Mn5  1  0.69433204  0.42770341  0.38294104  1
  Mn  Mn6  1  0.99475831  0.96377838  0.00184909  1
  Mn  Mn7  1  0.79328472  0.97685542  0.59849449  1
  Mn  Mn8  1  0.20531563  0.91507510  0.41139085  1
  Mn  Mn9  1  0.50108966  0.49566381  0.01173556  1
  Sb  Sb10  1  0.88828518  0.01966928  0.44511525  1
  Sb  Sb11  1  0.11076990  0.03158865  0.55818243  1
  Sb  Sb12  1  0.02715956  0.51138333  0.80259533  1
  Sb  Sb13  1  0.96777598  0.51282412  0.19067574  1
  Sb  Sb14  1  0.40146498  0.50545311  0.47419382  1
  Sb  Sb15  1  0.61307788  0.43403206  0.56997502  1
  Sb  Sb16  1  0.53100810  0.99140569  0.81725054  1
  Sb  Sb17  1  0.46541440  0.03394994  0.17652481  1
  S  S18  1  0.93426379  0.02236258  0.79494913  1
  S  S19  1  0.06019240  0.99822757  0.19242747  1
  S  S20  1  0.41425160  0.00581778  0.97675142  1
  S  S21  1  0.58160918  0.01831794  0.02152734  1
  S  S22  1  0.18156690  0.00765003  0.89377555  1
  S  S23  1  0.83125159  0.02282100  0.11957441  1
  S  S24  1  0.08587818  0.45683794  0.65879228  1
  S  S25  1  0.88831924  0.51781338  0.33092023  1
  S  S26  1  0.73133786  0.94069826  0.30622346  1
  S  S27  1  0.26423206  0.95357820  0.68943076  1
  S  S28  1  0.15946462  0.40821984  0.43913424  1
  S  S29  1  0.82776038  0.44684233  0.53505410  1
  S  S30  1  0.44609599  0.51765006  0.81916620  1
  S  S31  1  0.56613270  0.49575890  0.20221527  1
  S  S32  1  0.92398713  0.50360782  0.98528307  1
  S  S33  1  0.08672458  0.55140705  0.01104338  1
  S  S34  1  0.68117844  0.48065422  0.90010740  1
  S  S35  1  0.34032702  0.44949545  0.11890185  1
  S  S36  1  0.60097790  0.96979381  0.66945070  1
  S  S37  1  0.42278209  0.00123199  0.37319008  1
  S  S38  1  0.24757969  0.45565397  0.30251620  1
  S  S39  1  0.76936121  0.44031275  0.70067567  1
  S  S40  1  0.66000511  0.96976575  0.44244940  1
  S  S41  1  0.32986110  0.06959177  0.55953851  1
