# generated using pymatgen
data_Pr2Mn3(SbS3)4
_symmetry_space_group_name_H-M   'P 1'
_cell_length_a   20.02960800
_cell_length_b   3.90410600
_cell_length_c   14.95364829
_cell_angle_alpha   90.00000000
_cell_angle_beta   126.33350609
_cell_angle_gamma   90.00000000
_symmetry_Int_Tables_number   1
_chemical_formula_structural   Pr2Mn3(SbS3)4
_chemical_formula_sum   'Pr4 Mn6 Sb8 S24'
_cell_volume   942.00006694
_cell_formula_units_Z   2
loop_
 _symmetry_equiv_pos_site_id
 _symmetry_equiv_pos_as_xyz
  1  'x, y, z'
loop_
 _atom_site_type_symbol
 _atom_site_label
 _atom_site_symmetry_multiplicity
 _atom_site_fract_x
 _atom_site_fract_y
 _atom_site_fract_z
 _atom_site_occupancy
  Pr  Pr0  1  0.27012344  0.49631380  0.86729554  1
  Pr  Pr1  1  0.73402333  0.51168407  0.13312618  1
  Pr  Pr2  1  0.76361188  0.02552606  0.86219977  1
  Pr  Pr3  1  0.23369497  0.99544609  0.13127849  1
  Mn  Mn4  1  0.29491280  0.47854744  0.59862460  1
  Mn  Mn5  1  0.68660988  0.46132309  0.36446827  1
  Mn  Mn6  1  0.00554655  0.98890148  0.01154628  1
  Mn  Mn7  1  0.79798884  0.00003353  0.61851609  1
  Mn  Mn8  1  0.19683598  0.97862067  0.36914123  1
  Mn  Mn9  1  0.48747080  0.46814539  0.98591578  1
  Sb  Sb10  1  0.88884822  0.98712406  0.45178489  1
  Sb  Sb11  1  0.10906011  0.97860444  0.54463653  1
  Sb  Sb12  1  0.03524983  0.52466788  0.81904510  1
  Sb  Sb13  1  0.96626646  0.49857199  0.18997395  1
  Sb  Sb14  1  0.39257734  0.49965838  0.44792965  1
  Sb  Sb15  1  0.60553623  0.47367471  0.54766732  1
  Sb  Sb16  1  0.53386657  0.98287350  0.80895537  1
  Sb  Sb17  1  0.46526056  0.01740824  0.19054007  1
  S  S18  1  0.93626347  0.02487466  0.80801305  1
  S  S19  1  0.06467830  0.99013206  0.19879638  1
  S  S20  1  0.42078245  0.95394766  0.99170712  1
  S  S21  1  0.58473826  0.02505765  0.01426328  1
  S  S22  1  0.16951801  0.05590058  0.89986829  1
  S  S23  1  0.82717546  0.04333108  0.10232899  1
  S  S24  1  0.09036284  0.50774456  0.64622827  1
  S  S25  1  0.91661727  0.48050093  0.35937888  1
  S  S26  1  0.73796063  0.98350803  0.30242170  1
  S  S27  1  0.26136764  0.00104311  0.71252109  1
  S  S28  1  0.16578814  0.51603357  0.43295950  1
  S  S29  1  0.81765598  0.48443616  0.54688738  1
  S  S30  1  0.43124460  0.47840965  0.79664540  1
  S  S31  1  0.55489987  0.52169316  0.18062113  1
  S  S32  1  0.91793960  0.49641077  0.98904872  1
  S  S33  1  0.09161567  0.49021815  0.03264843  1
  S  S34  1  0.66396058  0.55130152  0.89394567  1
  S  S35  1  0.32615066  0.49271083  0.09310044  1
  S  S36  1  0.59446454  0.99972020  0.65214941  1
  S  S37  1  0.39955215  0.98420203  0.34358530  1
  S  S38  1  0.24249725  0.46530610  0.31548896  1
  S  S39  1  0.76035880  0.52432116  0.68853252  1
  S  S40  1  0.66476899  0.00195361  0.44962776  1
  S  S41  1  0.33181675  0.97890449  0.55581035  1
