# generated using pymatgen
data_Pr2Mn3(SbS3)4
_symmetry_space_group_name_H-M   'P 1'
_cell_length_a   20.02960800
_cell_length_b   3.90410600
_cell_length_c   14.95364829
_cell_angle_alpha   90.00000000
_cell_angle_beta   126.33350609
_cell_angle_gamma   90.00000000
_symmetry_Int_Tables_number   1
_chemical_formula_structural   Pr2Mn3(SbS3)4
_chemical_formula_sum   'Pr4 Mn6 Sb8 S24'
_cell_volume   942.00006694
_cell_formula_units_Z   2
loop_
 _symmetry_equiv_pos_site_id
 _symmetry_equiv_pos_as_xyz
  1  'x, y, z'
loop_
 _atom_site_type_symbol
 _atom_site_label
 _atom_site_symmetry_multiplicity
 _atom_site_fract_x
 _atom_site_fract_y
 _atom_site_fract_z
 _atom_site_occupancy
  Pr  Pr0  1  0.25801316  0.50754588  0.85830924  1
  Pr  Pr1  1  0.72867783  0.55726722  0.12370872  1
  Pr  Pr2  1  0.77211326  0.98756179  0.88821782  1
  Pr  Pr3  1  0.24438586  0.98525559  0.14567248  1
  Mn  Mn4  1  0.28414067  0.57239392  0.59064861  1
  Mn  Mn5  1  0.69442426  0.42857425  0.38284402  1
  Mn  Mn6  1  0.99469049  0.96358831  0.00161225  1
  Mn  Mn7  1  0.79320792  0.97678126  0.59838772  1
  Mn  Mn8  1  0.20520265  0.91544806  0.41139134  1
  Mn  Mn9  1  0.50109253  0.49563534  0.01155975  1
  Sb  Sb10  1  0.88825786  0.01970864  0.44504819  1
  Sb  Sb11  1  0.11076643  0.03107057  0.55830263  1
  Sb  Sb12  1  0.02690573  0.51080059  0.80241399  1
  Sb  Sb13  1  0.96785030  0.51295199  0.19075767  1
  Sb  Sb14  1  0.40120989  0.50535659  0.47423167  1
  Sb  Sb15  1  0.61307833  0.43492752  0.56997078  1
  Sb  Sb16  1  0.53088633  0.99232519  0.81711722  1
  Sb  Sb17  1  0.46534156  0.03413719  0.17642999  1
  S  S18  1  0.93423968  0.02232041  0.79515390  1
  S  S19  1  0.06003428  0.99737741  0.19243494  1
  S  S20  1  0.41447996  0.00636717  0.97700172  1
  S  S21  1  0.58165362  0.01723088  0.02152725  1
  S  S22  1  0.18169894  0.00729597  0.89388659  1
  S  S23  1  0.83098317  0.02374680  0.11926879  1
  S  S24  1  0.08577322  0.45679717  0.65860315  1
  S  S25  1  0.88838204  0.51709139  0.33095205  1
  S  S26  1  0.73131516  0.94006304  0.30607240  1
  S  S27  1  0.26442490  0.95404683  0.68969110  1
  S  S28  1  0.15936399  0.40745916  0.43877632  1
  S  S29  1  0.82775754  0.44671902  0.53561097  1
  S  S30  1  0.44614791  0.51880937  0.81937376  1
  S  S31  1  0.56646494  0.49611799  0.20264581  1
  S  S32  1  0.92403760  0.50335889  0.98487044  1
  S  S33  1  0.08668362  0.54971707  0.01099186  1
  S  S34  1  0.68135238  0.47994276  0.90059658  1
  S  S35  1  0.34011677  0.44823949  0.11873162  1
  S  S36  1  0.60131132  0.97045706  0.66949064  1
  S  S37  1  0.42269830  0.00104597  0.37325717  1
  S  S38  1  0.24733543  0.45637341  0.30191744  1
  S  S39  1  0.76946420  0.44081682  0.70081371  1
  S  S40  1  0.66008134  0.96937913  0.44238284  1
  S  S41  1  0.32957747  0.06921828  0.55938716  1
