# generated using pymatgen
data_Pr2Mn3(SbS3)4
_symmetry_space_group_name_H-M   'P 1'
_cell_length_a   20.02960800
_cell_length_b   3.90410600
_cell_length_c   14.95364829
_cell_angle_alpha   90.00000000
_cell_angle_beta   126.33350609
_cell_angle_gamma   90.00000000
_symmetry_Int_Tables_number   1
_chemical_formula_structural   Pr2Mn3(SbS3)4
_chemical_formula_sum   'Pr4 Mn6 Sb8 S24'
_cell_volume   942.00006694
_cell_formula_units_Z   2
loop_
 _symmetry_equiv_pos_site_id
 _symmetry_equiv_pos_as_xyz
  1  'x, y, z'
loop_
 _atom_site_type_symbol
 _atom_site_label
 _atom_site_symmetry_multiplicity
 _atom_site_fract_x
 _atom_site_fract_y
 _atom_site_fract_z
 _atom_site_occupancy
  Pr  Pr0  1  0.25797433  0.50705320  0.85812143  1
  Pr  Pr1  1  0.72860255  0.55734214  0.12374528  1
  Pr  Pr2  1  0.77206717  0.98688450  0.88809353  1
  Pr  Pr3  1  0.24441316  0.98459306  0.14561918  1
  Mn  Mn4  1  0.28408572  0.57234909  0.59059277  1
  Mn  Mn5  1  0.69460605  0.42952256  0.38291713  1
  Mn  Mn6  1  0.99461284  0.96314325  0.00132567  1
  Mn  Mn7  1  0.79307698  0.97683362  0.59834858  1
  Mn  Mn8  1  0.20504976  0.91566101  0.41136633  1
  Mn  Mn9  1  0.50108838  0.49507217  0.01145608  1
  Sb  Sb10  1  0.88821140  0.01954441  0.44498708  1
  Sb  Sb11  1  0.11075516  0.03071497  0.55842153  1
  Sb  Sb12  1  0.02666409  0.51035908  0.80224169  1
  Sb  Sb13  1  0.96791890  0.51275175  0.19084216  1
  Sb  Sb14  1  0.40098980  0.50500993  0.47428198  1
  Sb  Sb15  1  0.61310207  0.43595132  0.56998754  1
  Sb  Sb16  1  0.53074183  0.99307777  0.81697534  1
  Sb  Sb17  1  0.46531329  0.03450588  0.17624802  1
  S  S18  1  0.93436220  0.02224150  0.79536371  1
  S  S19  1  0.05996369  0.99726610  0.19253969  1
  S  S20  1  0.41448713  0.00712806  0.97713877  1
  S  S21  1  0.58165949  0.01683234  0.02143929  1
  S  S22  1  0.18180766  0.00747489  0.89393645  1
  S  S23  1  0.83076341  0.02498801  0.11891364  1
  S  S24  1  0.08563326  0.45758960  0.65845193  1
  S  S25  1  0.88863329  0.51666071  0.33103722  1
  S  S26  1  0.73133568  0.93843975  0.30577366  1
  S  S27  1  0.26467640  0.95410692  0.69001564  1
  S  S28  1  0.15935772  0.40698165  0.43850358  1
  S  S29  1  0.82766922  0.44719824  0.53606381  1
  S  S30  1  0.44590209  0.52033726  0.81929551  1
  S  S31  1  0.56675835  0.49635032  0.20311833  1
  S  S32  1  0.92405069  0.50325840  0.98452301  1
  S  S33  1  0.08659078  0.54799107  0.01076473  1
  S  S34  1  0.68157067  0.47905115  0.90102752  1
  S  S35  1  0.34001453  0.44725340  0.11828308  1
  S  S36  1  0.60174190  0.97120995  0.66940263  1
  S  S37  1  0.42267282  0.00062803  0.37356291  1
  S  S38  1  0.24703160  0.45641656  0.30145276  1
  S  S39  1  0.76943452  0.44172095  0.70065318  1
  S  S40  1  0.66017588  0.97003122  0.44241881  1
  S  S41  1  0.32927430  0.06910784  0.55925652  1
