# generated using pymatgen
data_Pr2Mn3(SbS3)4
_symmetry_space_group_name_H-M   'P 1'
_cell_length_a   20.02960800
_cell_length_b   3.90410600
_cell_length_c   14.95364829
_cell_angle_alpha   90.00000000
_cell_angle_beta   126.33350609
_cell_angle_gamma   90.00000000
_symmetry_Int_Tables_number   1
_chemical_formula_structural   Pr2Mn3(SbS3)4
_chemical_formula_sum   'Pr4 Mn6 Sb8 S24'
_cell_volume   942.00006694
_cell_formula_units_Z   2
loop_
 _symmetry_equiv_pos_site_id
 _symmetry_equiv_pos_as_xyz
  1  'x, y, z'
loop_
 _atom_site_type_symbol
 _atom_site_label
 _atom_site_symmetry_multiplicity
 _atom_site_fract_x
 _atom_site_fract_y
 _atom_site_fract_z
 _atom_site_occupancy
  Pr  Pr0  1  0.25794428  0.50657106  0.85797100  1
  Pr  Pr1  1  0.72852776  0.55717394  0.12384921  1
  Pr  Pr2  1  0.77203735  0.98621265  0.88804753  1
  Pr  Pr3  1  0.24449895  0.98381594  0.14558005  1
  Mn  Mn4  1  0.28397660  0.57229613  0.59045593  1
  Mn  Mn5  1  0.69472158  0.43047731  0.38273869  1
  Mn  Mn6  1  0.99455886  0.96274031  0.00102908  1
  Mn  Mn7  1  0.79301908  0.97632205  0.59839463  1
  Mn  Mn8  1  0.20488672  0.91545137  0.41130373  1
  Mn  Mn9  1  0.50108695  0.49450658  0.01125899  1
  Sb  Sb10  1  0.88815265  0.01919464  0.44488641  1
  Sb  Sb11  1  0.11076572  0.03050204  0.55850705  1
  Sb  Sb12  1  0.02645986  0.50999108  0.80214312  1
  Sb  Sb13  1  0.96806909  0.51239903  0.19098183  1
  Sb  Sb14  1  0.40072303  0.50481999  0.47423723  1
  Sb  Sb15  1  0.61305444  0.43695803  0.56995892  1
  Sb  Sb16  1  0.53068979  0.99387230  0.81690853  1
  Sb  Sb17  1  0.46529484  0.03481762  0.17613667  1
  S  S18  1  0.93436388  0.02199061  0.79530702  1
  S  S19  1  0.06003334  0.99719899  0.19275678  1
  S  S20  1  0.41447680  0.00773338  0.97726004  1
  S  S21  1  0.58165724  0.01632448  0.02127093  1
  S  S22  1  0.18184237  0.00744314  0.89413441  1
  S  S23  1  0.83059024  0.02608789  0.11854789  1
  S  S24  1  0.08561157  0.45781831  0.65852964  1
  S  S25  1  0.88896002  0.51597246  0.33123406  1
  S  S26  1  0.73138948  0.93683657  0.30549005  1
  S  S27  1  0.26492364  0.95313452  0.69018713  1
  S  S28  1  0.15933678  0.40637273  0.43808936  1
  S  S29  1  0.82777243  0.44826706  0.53639152  1
  S  S30  1  0.44560589  0.52150680  0.81920262  1
  S  S31  1  0.56699224  0.49648615  0.20355802  1
  S  S32  1  0.92399327  0.50313291  0.98427605  1
  S  S33  1  0.08644106  0.54626077  0.01043147  1
  S  S34  1  0.68173065  0.47852480  0.90138874  1
  S  S35  1  0.33997418  0.44650222  0.11784255  1
  S  S36  1  0.60218473  0.97200423  0.66932844  1
  S  S37  1  0.42254869  0.99989909  0.37372753  1
  S  S38  1  0.24665621  0.45697373  0.30080576  1
  S  S39  1  0.76957672  0.44325918  0.70063645  1
  S  S40  1  0.66030899  0.97121697  0.44264969  1
  S  S41  1  0.32897970  0.06888388  0.55892629  1
