# generated using pymatgen
data_Pr2Mn3(SbS3)4
_symmetry_space_group_name_H-M   'P 1'
_cell_length_a   20.02960800
_cell_length_b   3.90410600
_cell_length_c   14.95364829
_cell_angle_alpha   90.00000000
_cell_angle_beta   126.33350609
_cell_angle_gamma   90.00000000
_symmetry_Int_Tables_number   1
_chemical_formula_structural   Pr2Mn3(SbS3)4
_chemical_formula_sum   'Pr4 Mn6 Sb8 S24'
_cell_volume   942.00006694
_cell_formula_units_Z   2
loop_
 _symmetry_equiv_pos_site_id
 _symmetry_equiv_pos_as_xyz
  1  'x, y, z'
loop_
 _atom_site_type_symbol
 _atom_site_label
 _atom_site_symmetry_multiplicity
 _atom_site_fract_x
 _atom_site_fract_y
 _atom_site_fract_z
 _atom_site_occupancy
  Pr  Pr0  1  0.25794531  0.50598367  0.85784007  1
  Pr  Pr1  1  0.72849359  0.55687983  0.12405568  1
  Pr  Pr2  1  0.77197623  0.98535251  0.88796550  1
  Pr  Pr3  1  0.24457976  0.98333247  0.14553558  1
  Mn  Mn4  1  0.28383238  0.57216165  0.59031006  1
  Mn  Mn5  1  0.69482725  0.43108695  0.38248303  1
  Mn  Mn6  1  0.99444937  0.96283719  0.00073568  1
  Mn  Mn7  1  0.79297152  0.97546151  0.59853565  1
  Mn  Mn8  1  0.20481810  0.91531135  0.41133096  1
  Mn  Mn9  1  0.50114402  0.49390766  0.01112592  1
  Sb  Sb10  1  0.88815946  0.01880915  0.44470954  1
  Sb  Sb11  1  0.11076695  0.03035562  0.55853369  1
  Sb  Sb12  1  0.02634343  0.50942434  0.80207683  1
  Sb  Sb13  1  0.96823541  0.51228553  0.19107052  1
  Sb  Sb14  1  0.40046297  0.50425791  0.47418635  1
  Sb  Sb15  1  0.61304742  0.43764074  0.57002035  1
  Sb  Sb16  1  0.53059463  0.99454673  0.81689144  1
  Sb  Sb17  1  0.46529455  0.03490850  0.17615307  1
  S  S18  1  0.93440507  0.02234809  0.79508115  1
  S  S19  1  0.05996805  0.99773619  0.19285768  1
  S  S20  1  0.41443453  0.00868643  0.97728410  1
  S  S21  1  0.58160247  0.01560111  0.02128174  1
  S  S22  1  0.18185230  0.00677438  0.89420967  1
  S  S23  1  0.83045264  0.02772999  0.11811982  1
  S  S24  1  0.08554715  0.45785525  0.65859582  1
  S  S25  1  0.88923883  0.51537942  0.33126824  1
  S  S26  1  0.73142117  0.93533681  0.30514019  1
  S  S27  1  0.26497872  0.95211879  0.69020359  1
  S  S28  1  0.15936793  0.40589877  0.43778465  1
  S  S29  1  0.82793357  0.44929679  0.53682422  1
  S  S30  1  0.44541889  0.52224394  0.81920820  1
  S  S31  1  0.56722191  0.49665968  0.20414373  1
  S  S32  1  0.92385244  0.50272020  0.98393884  1
  S  S33  1  0.08637051  0.54529565  0.01016796  1
  S  S34  1  0.68183423  0.47866955  0.90186897  1
  S  S35  1  0.33993813  0.44605779  0.11752758  1
  S  S36  1  0.60263614  0.97287716  0.66935425  1
  S  S37  1  0.42238799  0.99958295  0.37394542  1
  S  S38  1  0.24634197  0.45749740  0.30030626  1
  S  S39  1  0.76966485  0.44437000  0.70045011  1
  S  S40  1  0.66038051  0.97155921  0.44270990  1
  S  S41  1  0.32877226  0.06886501  0.55874357  1
