# generated using pymatgen
data_Pr2Mn3(SbS3)4
_symmetry_space_group_name_H-M   'P 1'
_cell_length_a   20.02960800
_cell_length_b   3.90410600
_cell_length_c   14.95364829
_cell_angle_alpha   90.00000000
_cell_angle_beta   126.33350609
_cell_angle_gamma   90.00000000
_symmetry_Int_Tables_number   1
_chemical_formula_structural   Pr2Mn3(SbS3)4
_chemical_formula_sum   'Pr4 Mn6 Sb8 S24'
_cell_volume   942.00006694
_cell_formula_units_Z   2
loop_
 _symmetry_equiv_pos_site_id
 _symmetry_equiv_pos_as_xyz
  1  'x, y, z'
loop_
 _atom_site_type_symbol
 _atom_site_label
 _atom_site_symmetry_multiplicity
 _atom_site_fract_x
 _atom_site_fract_y
 _atom_site_fract_z
 _atom_site_occupancy
  Pr  Pr0  1  0.25788679  0.50527725  0.85768374  1
  Pr  Pr1  1  0.72843890  0.55660521  0.12414495  1
  Pr  Pr2  1  0.77190492  0.98448076  0.88793794  1
  Pr  Pr3  1  0.24469887  0.98302432  0.14552108  1
  Mn  Mn4  1  0.28387375  0.57224907  0.59016703  1
  Mn  Mn5  1  0.69493186  0.43218405  0.38233536  1
  Mn  Mn6  1  0.99446539  0.96312917  0.00052315  1
  Mn  Mn7  1  0.79287743  0.97456691  0.59850490  1
  Mn  Mn8  1  0.20472014  0.91536958  0.41129089  1
  Mn  Mn9  1  0.50117869  0.49319168  0.01114310  1
  Sb  Sb10  1  0.88819845  0.01867452  0.44465322  1
  Sb  Sb11  1  0.11080347  0.03061856  0.55858024  1
  Sb  Sb12  1  0.02621979  0.50893413  0.80197901  1
  Sb  Sb13  1  0.96833596  0.51225298  0.19097875  1
  Sb  Sb14  1  0.40025338  0.50381622  0.47426726  1
  Sb  Sb15  1  0.61308997  0.43856989  0.57000123  1
  Sb  Sb16  1  0.53056030  0.99555628  0.81688519  1
  Sb  Sb17  1  0.46528956  0.03503012  0.17621895  1
  S  S18  1  0.93438929  0.02318262  0.79480784  1
  S  S19  1  0.05991864  0.99741450  0.19280218  1
  S  S20  1  0.41452496  0.00989187  0.97732495  1
  S  S21  1  0.58152053  0.01504005  0.02096463  1
  S  S22  1  0.18172084  0.00620216  0.89419009  1
  S  S23  1  0.83031434  0.02912000  0.11762956  1
  S  S24  1  0.08532768  0.45760774  0.65854413  1
  S  S25  1  0.88945399  0.51504717  0.33124911  1
  S  S26  1  0.73140657  0.93455071  0.30484840  1
  S  S27  1  0.26506364  0.95068908  0.69039244  1
  S  S28  1  0.15940785  0.40551119  0.43759600  1
  S  S29  1  0.82806350  0.45003295  0.53720798  1
  S  S30  1  0.44520582  0.52312404  0.81923550  1
  S  S31  1  0.56752304  0.49695792  0.20480099  1
  S  S32  1  0.92359787  0.50196376  0.98368845  1
  S  S33  1  0.08644055  0.54469428  0.01000995  1
  S  S34  1  0.68191333  0.47853081  0.90237655  1
  S  S35  1  0.33985818  0.44565726  0.11721456  1
  S  S36  1  0.60271075  0.97325628  0.66898710  1
  S  S37  1  0.42211532  0.99956047  0.37411609  1
  S  S38  1  0.24619939  0.45763945  0.30002745  1
  S  S39  1  0.76986894  0.44533328  0.70038750  1
  S  S40  1  0.66049768  0.97210733  0.44271632  1
  S  S41  1  0.32874050  0.06873653  0.55862520  1
