# generated using pymatgen
data_Pr2Mn3(SbS3)4
_symmetry_space_group_name_H-M   'P 1'
_cell_length_a   20.02960800
_cell_length_b   3.90410600
_cell_length_c   14.95364829
_cell_angle_alpha   90.00000000
_cell_angle_beta   126.33350609
_cell_angle_gamma   90.00000000
_symmetry_Int_Tables_number   1
_chemical_formula_structural   Pr2Mn3(SbS3)4
_chemical_formula_sum   'Pr4 Mn6 Sb8 S24'
_cell_volume   942.00006694
_cell_formula_units_Z   2
loop_
 _symmetry_equiv_pos_site_id
 _symmetry_equiv_pos_as_xyz
  1  'x, y, z'
loop_
 _atom_site_type_symbol
 _atom_site_label
 _atom_site_symmetry_multiplicity
 _atom_site_fract_x
 _atom_site_fract_y
 _atom_site_fract_z
 _atom_site_occupancy
  Pr  Pr0  1  0.25783510  0.50436627  0.85753650  1
  Pr  Pr1  1  0.72836588  0.55629787  0.12412953  1
  Pr  Pr2  1  0.77182862  0.98345601  0.88785965  1
  Pr  Pr3  1  0.24484983  0.98296754  0.14558488  1
  Mn  Mn4  1  0.28394551  0.57302090  0.59009647  1
  Mn  Mn5  1  0.69503282  0.43260851  0.38215623  1
  Mn  Mn6  1  0.99447559  0.96290071  0.00037969  1
  Mn  Mn7  1  0.79276316  0.97403010  0.59827579  1
  Mn  Mn8  1  0.20461918  0.91504504  0.41110669  1
  Mn  Mn9  1  0.50122457  0.49299303  0.01120344  1
  Sb  Sb10  1  0.88815698  0.01846856  0.44454930  1
  Sb  Sb11  1  0.11079493  0.03072057  0.55866748  1
  Sb  Sb12  1  0.02618063  0.50838138  0.80195425  1
  Sb  Sb13  1  0.96850075  0.51224145  0.19094298  1
  Sb  Sb14  1  0.40011106  0.50337331  0.47437028  1
  Sb  Sb15  1  0.61310520  0.43929390  0.56988237  1
  Sb  Sb16  1  0.53054985  0.99669651  0.81678618  1
  Sb  Sb17  1  0.46527990  0.03534417  0.17628528  1
  S  S18  1  0.93431968  0.02390088  0.79446533  1
  S  S19  1  0.05997199  0.99724117  0.19283377  1
  S  S20  1  0.41458841  0.01098274  0.97745619  1
  S  S21  1  0.58144724  0.01442960  0.02049069  1
  S  S22  1  0.18154747  0.00548105  0.89409840  1
  S  S23  1  0.83025291  0.02998065  0.11733892  1
  S  S24  1  0.08510223  0.45712647  0.65838823  1
  S  S25  1  0.88972146  0.51471196  0.33134096  1
  S  S26  1  0.73127643  0.93454795  0.30446413  1
  S  S27  1  0.26531417  0.94960620  0.69054133  1
  S  S28  1  0.15907995  0.40566347  0.43710613  1
  S  S29  1  0.82824578  0.45035347  0.53768971  1
  S  S30  1  0.44514366  0.52394492  0.81937020  1
  S  S31  1  0.56770055  0.49737616  0.20528307  1
  S  S32  1  0.92339823  0.50132832  0.98360037  1
  S  S33  1  0.08641063  0.54391584  0.00996850  1
  S  S34  1  0.68193811  0.47830845  0.90287758  1
  S  S35  1  0.33976407  0.44487991  0.11678680  1
  S  S36  1  0.60275168  0.97336550  0.66864879  1
  S  S37  1  0.42202761  0.99976493  0.37434108  1
  S  S38  1  0.24619569  0.45829681  0.29982895  1
  S  S39  1  0.77014983  0.44547442  0.70039090  1
  S  S40  1  0.66075078  0.97141894  0.44281079  1
  S  S41  1  0.32864261  0.06913149  0.55838655  1
