# generated using pymatgen
data_Pr2Mn3(SbS3)4
_symmetry_space_group_name_H-M   'P 1'
_cell_length_a   20.02960800
_cell_length_b   3.90410600
_cell_length_c   14.95364829
_cell_angle_alpha   90.00000000
_cell_angle_beta   126.33350609
_cell_angle_gamma   90.00000000
_symmetry_Int_Tables_number   1
_chemical_formula_structural   Pr2Mn3(SbS3)4
_chemical_formula_sum   'Pr4 Mn6 Sb8 S24'
_cell_volume   942.00006694
_cell_formula_units_Z   2
loop_
 _symmetry_equiv_pos_site_id
 _symmetry_equiv_pos_as_xyz
  1  'x, y, z'
loop_
 _atom_site_type_symbol
 _atom_site_label
 _atom_site_symmetry_multiplicity
 _atom_site_fract_x
 _atom_site_fract_y
 _atom_site_fract_z
 _atom_site_occupancy
  Pr  Pr0  1  0.25781417  0.50344213  0.85742130  1
  Pr  Pr1  1  0.72826088  0.55585451  0.12406638  1
  Pr  Pr2  1  0.77173796  0.98252021  0.88770699  1
  Pr  Pr3  1  0.24508391  0.98265895  0.14567628  1
  Mn  Mn4  1  0.28396766  0.57390236  0.58990601  1
  Mn  Mn5  1  0.69504343  0.43291253  0.38198537  1
  Mn  Mn6  1  0.99460427  0.96309714  0.00031328  1
  Mn  Mn7  1  0.79275185  0.97347893  0.59803680  1
  Mn  Mn8  1  0.20455567  0.91490335  0.41098102  1
  Mn  Mn9  1  0.50129111  0.49286005  0.01118962  1
  Sb  Sb10  1  0.88807945  0.01820951  0.44444124  1
  Sb  Sb11  1  0.11080545  0.03077891  0.55880356  1
  Sb  Sb12  1  0.02615334  0.50801237  0.80188385  1
  Sb  Sb13  1  0.96861191  0.51250047  0.19086356  1
  Sb  Sb14  1  0.40001685  0.50294649  0.47446009  1
  Sb  Sb15  1  0.61316705  0.44018426  0.56983242  1
  Sb  Sb16  1  0.53052563  0.99752275  0.81671503  1
  Sb  Sb17  1  0.46531302  0.03573215  0.17640628  1
  S  S18  1  0.93411308  0.02412257  0.79409928  1
  S  S19  1  0.05999090  0.99702568  0.19282631  1
  S  S20  1  0.41459039  0.01229718  0.97744904  1
  S  S21  1  0.58134957  0.01360180  0.02008494  1
  S  S22  1  0.18133957  0.00539641  0.89402402  1
  S  S23  1  0.83028458  0.03032044  0.11719894  1
  S  S24  1  0.08486361  0.45674167  0.65831814  1
  S  S25  1  0.89011803  0.51372778  0.33153991  1
  S  S26  1  0.73100763  0.93501185  0.30401791  1
  S  S27  1  0.26550767  0.94831319  0.69069508  1
  S  S28  1  0.15884370  0.40568156  0.43664919  1
  S  S29  1  0.82843132  0.45068520  0.53809276  1
  S  S30  1  0.44511910  0.52520012  0.81943988  1
  S  S31  1  0.56760057  0.49776434  0.20538140  1
  S  S32  1  0.92316314  0.50113688  0.98358555  1
  S  S33  1  0.08641890  0.54319257  0.00987183  1
  S  S34  1  0.68195099  0.47834821  0.90328116  1
  S  S35  1  0.33955059  0.44412831  0.11629319  1
  S  S36  1  0.60286296  0.97274973  0.66837957  1
  S  S37  1  0.42174378  0.99961071  0.37442851  1
  S  S38  1  0.24615675  0.45919589  0.29958907  1
  S  S39  1  0.77046672  0.44580644  0.70046537  1
  S  S40  1  0.66103906  0.97153177  0.44275060  1
  S  S41  1  0.32836294  0.06964913  0.55807869  1
