# generated using pymatgen
data_Pr2Mn3(SbS3)4
_symmetry_space_group_name_H-M   'P 1'
_cell_length_a   20.02960800
_cell_length_b   3.90410600
_cell_length_c   14.95364829
_cell_angle_alpha   90.00000000
_cell_angle_beta   126.33350609
_cell_angle_gamma   90.00000000
_symmetry_Int_Tables_number   1
_chemical_formula_structural   Pr2Mn3(SbS3)4
_chemical_formula_sum   'Pr4 Mn6 Sb8 S24'
_cell_volume   942.00006694
_cell_formula_units_Z   2
loop_
 _symmetry_equiv_pos_site_id
 _symmetry_equiv_pos_as_xyz
  1  'x, y, z'
loop_
 _atom_site_type_symbol
 _atom_site_label
 _atom_site_symmetry_multiplicity
 _atom_site_fract_x
 _atom_site_fract_y
 _atom_site_fract_z
 _atom_site_occupancy
  Pr  Pr0  1  0.25786943  0.50250740  0.85739636  1
  Pr  Pr1  1  0.72814871  0.55539441  0.12410362  1
  Pr  Pr2  1  0.77162213  0.98201301  0.88754298  1
  Pr  Pr3  1  0.24525849  0.98259480  0.14580659  1
  Mn  Mn4  1  0.28403594  0.57446454  0.58986474  1
  Mn  Mn5  1  0.69502019  0.43412750  0.38180545  1
  Mn  Mn6  1  0.99478150  0.96332337  0.00023403  1
  Mn  Mn7  1  0.79268756  0.97319268  0.59784685  1
  Mn  Mn8  1  0.20444610  0.91492792  0.41080890  1
  Mn  Mn9  1  0.50134950  0.49251863  0.01124630  1
  Sb  Sb10  1  0.88801755  0.01792712  0.44440284  1
  Sb  Sb11  1  0.11083285  0.03086667  0.55889322  1
  Sb  Sb12  1  0.02619808  0.50776887  0.80180222  1
  Sb  Sb13  1  0.96874664  0.51287823  0.19081796  1
  Sb  Sb14  1  0.39996696  0.50250986  0.47449349  1
  Sb  Sb15  1  0.61323463  0.44048633  0.56975264  1
  Sb  Sb16  1  0.53049021  0.99838284  0.81664814  1
  Sb  Sb17  1  0.46529499  0.03624278  0.17654479  1
  S  S18  1  0.93386238  0.02459212  0.79371789  1
  S  S19  1  0.05989364  0.99667607  0.19267346  1
  S  S20  1  0.41461693  0.01294026  0.97744388  1
  S  S21  1  0.58127787  0.01297963  0.01976169  1
  S  S22  1  0.18104866  0.00560875  0.89397314  1
  S  S23  1  0.83025721  0.03034582  0.11710805  1
  S  S24  1  0.08442734  0.45647691  0.65824333  1
  S  S25  1  0.89053353  0.51266549  0.33175846  1
  S  S26  1  0.73101496  0.93526101  0.30387398  1
  S  S27  1  0.26572745  0.94737956  0.69099344  1
  S  S28  1  0.15884407  0.40625595  0.43645619  1
  S  S29  1  0.82845903  0.45056782  0.53844495  1
  S  S30  1  0.44494277  0.52603143  0.81937210  1
  S  S31  1  0.56754875  0.49868884  0.20576778  1
  S  S32  1  0.92305349  0.50037061  0.98364406  1
  S  S33  1  0.08637190  0.54183087  0.00972121  1
  S  S34  1  0.68195232  0.47811613  0.90356176  1
  S  S35  1  0.33942340  0.44383694  0.11596926  1
  S  S36  1  0.60295531  0.97200123  0.66815745  1
  S  S37  1  0.42139165  0.99957002  0.37452410  1
  S  S38  1  0.24593817  0.45966822  0.29940472  1
  S  S39  1  0.77071789  0.44592716  0.70046467  1
  S  S40  1  0.66133363  0.97179662  0.44258278  1
  S  S41  1  0.32804112  0.07043120  0.55769054  1
