# generated using pymatgen
data_Pr2Mn3(SbS3)4
_symmetry_space_group_name_H-M   'P 1'
_cell_length_a   20.02960800
_cell_length_b   3.90410600
_cell_length_c   14.95364829
_cell_angle_alpha   90.00000000
_cell_angle_beta   126.33350609
_cell_angle_gamma   90.00000000
_symmetry_Int_Tables_number   1
_chemical_formula_structural   Pr2Mn3(SbS3)4
_chemical_formula_sum   'Pr4 Mn6 Sb8 S24'
_cell_volume   942.00006694
_cell_formula_units_Z   2
loop_
 _symmetry_equiv_pos_site_id
 _symmetry_equiv_pos_as_xyz
  1  'x, y, z'
loop_
 _atom_site_type_symbol
 _atom_site_label
 _atom_site_symmetry_multiplicity
 _atom_site_fract_x
 _atom_site_fract_y
 _atom_site_fract_z
 _atom_site_occupancy
  Pr  Pr0  1  0.25789925  0.50169015  0.85729739  1
  Pr  Pr1  1  0.72807871  0.55509896  0.12417470  1
  Pr  Pr2  1  0.77153370  0.98152474  0.88743041  1
  Pr  Pr3  1  0.24538089  0.98251809  0.14586825  1
  Mn  Mn4  1  0.28414200  0.57472642  0.58985955  1
  Mn  Mn5  1  0.69511183  0.43526436  0.38167697  1
  Mn  Mn6  1  0.99504850  0.96381722  0.00016631  1
  Mn  Mn7  1  0.79259549  0.97337770  0.59774997  1
  Mn  Mn8  1  0.20431938  0.91405936  0.41064488  1
  Mn  Mn9  1  0.50151023  0.49203394  0.01143165  1
  Sb  Sb10  1  0.88800971  0.01788924  0.44444898  1
  Sb  Sb11  1  0.11086352  0.03102201  0.55899635  1
  Sb  Sb12  1  0.02622952  0.50761214  0.80170154  1
  Sb  Sb13  1  0.96887183  0.51324262  0.19069398  1
  Sb  Sb14  1  0.39994374  0.50229239  0.47456578  1
  Sb  Sb15  1  0.61331962  0.44085158  0.56965252  1
  Sb  Sb16  1  0.53044458  0.99943786  0.81657259  1
  Sb  Sb17  1  0.46527013  0.03634625  0.17666093  1
  S  S18  1  0.93354568  0.02525043  0.79329607  1
  S  S19  1  0.05971408  0.99670496  0.19255230  1
  S  S20  1  0.41460262  0.01378228  0.97740746  1
  S  S21  1  0.58127369  0.01261841  0.01942403  1
  S  S22  1  0.18078483  0.00487301  0.89399097  1
  S  S23  1  0.83027642  0.03057762  0.11694225  1
  S  S24  1  0.08413016  0.45611892  0.65863140  1
  S  S25  1  0.89094313  0.51122427  0.33210173  1
  S  S26  1  0.73082861  0.93535329  0.30368607  1
  S  S27  1  0.26595278  0.94698787  0.69113744  1
  S  S28  1  0.15885131  0.40675970  0.43628686  1
  S  S29  1  0.82846348  0.45076810  0.53864765  1
  S  S30  1  0.44469620  0.52671312  0.81946363  1
  S  S31  1  0.56756112  0.49916888  0.20621365  1
  S  S32  1  0.92303368  0.49990682  0.98380900  1
  S  S33  1  0.08632395  0.54054859  0.00950028  1
  S  S34  1  0.68190923  0.47781105  0.90382326  1
  S  S35  1  0.33912856  0.44308298  0.11544114  1
  S  S36  1  0.60315988  0.97172182  0.66816570  1
  S  S37  1  0.42115585  0.99998532  0.37460688  1
  S  S38  1  0.24584161  0.46043114  0.29932834  1
  S  S39  1  0.77084296  0.44608750  0.70027772  1
  S  S40  1  0.66152363  0.97206791  0.44230688  1
  S  S41  1  0.32790019  0.07095111  0.55760166  1
