# generated using pymatgen
data_Pr2Mn3(SbS3)4
_symmetry_space_group_name_H-M   'P 1'
_cell_length_a   20.02960800
_cell_length_b   3.90410600
_cell_length_c   14.95364829
_cell_angle_alpha   90.00000000
_cell_angle_beta   126.33350609
_cell_angle_gamma   90.00000000
_symmetry_Int_Tables_number   1
_chemical_formula_structural   Pr2Mn3(SbS3)4
_chemical_formula_sum   'Pr4 Mn6 Sb8 S24'
_cell_volume   942.00006694
_cell_formula_units_Z   2
loop_
 _symmetry_equiv_pos_site_id
 _symmetry_equiv_pos_as_xyz
  1  'x, y, z'
loop_
 _atom_site_type_symbol
 _atom_site_label
 _atom_site_symmetry_multiplicity
 _atom_site_fract_x
 _atom_site_fract_y
 _atom_site_fract_z
 _atom_site_occupancy
  Pr  Pr0  1  0.25796800  0.50100724  0.85721382  1
  Pr  Pr1  1  0.72808146  0.55501812  0.12421828  1
  Pr  Pr2  1  0.77140858  0.98105463  0.88730988  1
  Pr  Pr3  1  0.24556503  0.98266979  0.14600103  1
  Mn  Mn4  1  0.28431015  0.57479162  0.58996554  1
  Mn  Mn5  1  0.69507637  0.43616468  0.38138193  1
  Mn  Mn6  1  0.99527576  0.96468714  0.00014973  1
  Mn  Mn7  1  0.79255850  0.97342964  0.59762452  1
  Mn  Mn8  1  0.20418956  0.91321077  0.41047326  1
  Mn  Mn9  1  0.50165880  0.49184465  0.01151639  1
  Sb  Sb10  1  0.88804454  0.01789702  0.44455200  1
  Sb  Sb11  1  0.11099319  0.03122727  0.55921370  1
  Sb  Sb12  1  0.02628199  0.50736673  0.80157777  1
  Sb  Sb13  1  0.96903166  0.51353355  0.19067848  1
  Sb  Sb14  1  0.39989773  0.50220854  0.47454178  1
  Sb  Sb15  1  0.61343646  0.44100004  0.56964133  1
  Sb  Sb16  1  0.53045346  0.00044021  0.81659423  1
  Sb  Sb17  1  0.46525373  0.03688169  0.17679973  1
  S  S18  1  0.93321615  0.02589758  0.79268108  1
  S  S19  1  0.05943782  0.99717171  0.19244125  1
  S  S20  1  0.41462175  0.01510824  0.97745420  1
  S  S21  1  0.58115084  0.01190692  0.01913923  1
  S  S22  1  0.18073511  0.00303376  0.89388060  1
  S  S23  1  0.83023100  0.03102596  0.11666040  1
  S  S24  1  0.08372950  0.45624336  0.65892574  1
  S  S25  1  0.89138727  0.50998264  0.33250707  1
  S  S26  1  0.73061849  0.93521499  0.30338774  1
  S  S27  1  0.26631549  0.94668292  0.69140617  1
  S  S28  1  0.15868131  0.40713609  0.43587262  1
  S  S29  1  0.82852288  0.45073701  0.53882473  1
  S  S30  1  0.44441268  0.52788478  0.81958831  1
  S  S31  1  0.56758607  0.49888117  0.20682344  1
  S  S32  1  0.92295424  0.49949740  0.98401260  1
  S  S33  1  0.08619755  0.53951944  0.00925400  1
  S  S34  1  0.68173035  0.47763931  0.90405413  1
  S  S35  1  0.33886193  0.44319052  0.11500664  1
  S  S36  1  0.60325250  0.97138864  0.66812728  1
  S  S37  1  0.42101973  0.99985655  0.37485160  1
  S  S38  1  0.24574657  0.46167648  0.29926057  1
  S  S39  1  0.77094250  0.44592546  0.70018344  1
  S  S40  1  0.66159576  0.97248457  0.44201047  1
  S  S41  1  0.32781997  0.07112117  0.55740079  1
