# generated using pymatgen
data_Pr2Mn3(SbS3)4
_symmetry_space_group_name_H-M   'P 1'
_cell_length_a   20.02960800
_cell_length_b   3.90410600
_cell_length_c   14.95364829
_cell_angle_alpha   90.00000000
_cell_angle_beta   126.33350609
_cell_angle_gamma   90.00000000
_symmetry_Int_Tables_number   1
_chemical_formula_structural   Pr2Mn3(SbS3)4
_chemical_formula_sum   'Pr4 Mn6 Sb8 S24'
_cell_volume   942.00006694
_cell_formula_units_Z   2
loop_
 _symmetry_equiv_pos_site_id
 _symmetry_equiv_pos_as_xyz
  1  'x, y, z'
loop_
 _atom_site_type_symbol
 _atom_site_label
 _atom_site_symmetry_multiplicity
 _atom_site_fract_x
 _atom_site_fract_y
 _atom_site_fract_z
 _atom_site_occupancy
  Pr  Pr0  1  0.27006783  0.49609831  0.86728786  1
  Pr  Pr1  1  0.73402389  0.51219558  0.13304161  1
  Pr  Pr2  1  0.76365394  0.02535680  0.86239511  1
  Pr  Pr3  1  0.23363923  0.99553073  0.13121970  1
  Mn  Mn4  1  0.29525481  0.47801538  0.59886628  1
  Mn  Mn5  1  0.68653016  0.46090315  0.36422873  1
  Mn  Mn6  1  0.00540034  0.98870573  0.01135016  1
  Mn  Mn7  1  0.79786427  0.00025546  0.61830994  1
  Mn  Mn8  1  0.19676478  0.97856648  0.36901916  1
  Mn  Mn9  1  0.48744721  0.46818508  0.98583720  1
  Sb  Sb10  1  0.88870357  0.98732912  0.45162659  1
  Sb  Sb11  1  0.10898889  0.97879198  0.54465926  1
  Sb  Sb12  1  0.03524948  0.52539311  0.81916992  1
  Sb  Sb13  1  0.96645862  0.49863358  0.19004637  1
  Sb  Sb14  1  0.39255673  0.49969818  0.44800316  1
  Sb  Sb15  1  0.60547235  0.47394012  0.54751670  1
  Sb  Sb16  1  0.53391958  0.98266244  0.80899535  1
  Sb  Sb17  1  0.46526041  0.01698947  0.19051485  1
  S  S18  1  0.93611280  0.02504904  0.80792053  1
  S  S19  1  0.06483772  0.99065996  0.19881232  1
  S  S20  1  0.42056858  0.95433631  0.99146817  1
  S  S21  1  0.58455913  0.02553774  0.01435760  1
  S  S22  1  0.16936368  0.05556225  0.89982426  1
  S  S23  1  0.82710174  0.04250651  0.10240662  1
  S  S24  1  0.09031854  0.50678612  0.64617631  1
  S  S25  1  0.91658922  0.48000043  0.35923010  1
  S  S26  1  0.73811918  0.98466942  0.30262252  1
  S  S27  1  0.26122263  0.00152384  0.71258692  1
  S  S28  1  0.16588580  0.51631083  0.43326071  1
  S  S29  1  0.81746044  0.48538973  0.54681445  1
  S  S30  1  0.43119427  0.47833504  0.79662093  1
  S  S31  1  0.55487677  0.52232083  0.18064588  1
  S  S32  1  0.91797644  0.49758085  0.98889407  1
  S  S33  1  0.09179935  0.48948427  0.03254485  1
  S  S34  1  0.66393529  0.55160792  0.89413260  1
  S  S35  1  0.32600764  0.49217559  0.09283859  1
  S  S36  1  0.59422244  0.99926039  0.65191974  1
  S  S37  1  0.39954376  0.98472319  0.34358477  1
  S  S38  1  0.24241953  0.46459929  0.31546664  1
  S  S39  1  0.76027803  0.52439776  0.68849021  1
  S  S40  1  0.66453413  0.00195505  0.44917011  1
  S  S41  1  0.33186573  0.97925360  0.55577483  1
