# generated using pymatgen
data_Pr2Mn3(SbS3)4
_symmetry_space_group_name_H-M   'P 1'
_cell_length_a   20.02960800
_cell_length_b   3.90410600
_cell_length_c   14.95364829
_cell_angle_alpha   90.00000000
_cell_angle_beta   126.33350609
_cell_angle_gamma   90.00000000
_symmetry_Int_Tables_number   1
_chemical_formula_structural   Pr2Mn3(SbS3)4
_chemical_formula_sum   'Pr4 Mn6 Sb8 S24'
_cell_volume   942.00006694
_cell_formula_units_Z   2
loop_
 _symmetry_equiv_pos_site_id
 _symmetry_equiv_pos_as_xyz
  1  'x, y, z'
loop_
 _atom_site_type_symbol
 _atom_site_label
 _atom_site_symmetry_multiplicity
 _atom_site_fract_x
 _atom_site_fract_y
 _atom_site_fract_z
 _atom_site_occupancy
  Pr  Pr0  1  0.25798223  0.50034322  0.85708584  1
  Pr  Pr1  1  0.72811415  0.55466082  0.12432403  1
  Pr  Pr2  1  0.77123586  0.98083491  0.88716769  1
  Pr  Pr3  1  0.24575044  0.98292686  0.14602388  1
  Mn  Mn4  1  0.28450643  0.57442437  0.58997699  1
  Mn  Mn5  1  0.69504319  0.43749524  0.38119971  1
  Mn  Mn6  1  0.99552835  0.96495972  0.00009058  1
  Mn  Mn7  1  0.79260204  0.97345526  0.59758946  1
  Mn  Mn8  1  0.20415697  0.91239240  0.41031777  1
  Mn  Mn9  1  0.50176102  0.49172578  0.01144128  1
  Sb  Sb10  1  0.88808347  0.01793662  0.44466420  1
  Sb  Sb11  1  0.11115237  0.03138875  0.55951263  1
  Sb  Sb12  1  0.02629367  0.50729934  0.80140583  1
  Sb  Sb13  1  0.96916154  0.51395470  0.19056181  1
  Sb  Sb14  1  0.39985825  0.50206882  0.47451514  1
  Sb  Sb15  1  0.61349819  0.44105837  0.56962057  1
  Sb  Sb16  1  0.53041874  0.00123742  0.81655687  1
  Sb  Sb17  1  0.46528826  0.03746935  0.17698514  1
  S  S18  1  0.93290077  0.02607973  0.79217125  1
  S  S19  1  0.05915690  0.99791905  0.19232238  1
  S  S20  1  0.41459972  0.01704529  0.97746246  1
  S  S21  1  0.58096283  0.01115386  0.01876663  1
  S  S22  1  0.18070559  0.00118839  0.89402547  1
  S  S23  1  0.83026569  0.03124375  0.11643551  1
  S  S24  1  0.08328699  0.45674399  0.65897191  1
  S  S25  1  0.89186278  0.50852547  0.33291529  1
  S  S26  1  0.73049972  0.93574109  0.30333547  1
  S  S27  1  0.26671276  0.94626990  0.69168021  1
  S  S28  1  0.15853527  0.40798730  0.43560847  1
  S  S29  1  0.82856816  0.45053715  0.53899951  1
  S  S30  1  0.44413173  0.52908269  0.81965297  1
  S  S31  1  0.56768100  0.49864921  0.20726358  1
  S  S32  1  0.92283486  0.49891310  0.98408650  1
  S  S33  1  0.08599010  0.53865718  0.00900140  1
  S  S34  1  0.68149375  0.47714883  0.90431596  1
  S  S35  1  0.33859413  0.44382150  0.11452083  1
  S  S36  1  0.60316289  0.97112860  0.66788092  1
  S  S37  1  0.42062974  0.99994598  0.37477740  1
  S  S38  1  0.24570960  0.46271212  0.29913889  1
  S  S39  1  0.77106929  0.44598185  0.70007806  1
  S  S40  1  0.66165171  0.97316393  0.44185135  1
  S  S41  1  0.32784586  0.07049430  0.55737763  1
