# generated using pymatgen
data_Pr2Mn3(SbS3)4
_symmetry_space_group_name_H-M   'P 1'
_cell_length_a   20.02960800
_cell_length_b   3.90410600
_cell_length_c   14.95364829
_cell_angle_alpha   90.00000000
_cell_angle_beta   126.33350609
_cell_angle_gamma   90.00000000
_symmetry_Int_Tables_number   1
_chemical_formula_structural   Pr2Mn3(SbS3)4
_chemical_formula_sum   'Pr4 Mn6 Sb8 S24'
_cell_volume   942.00006694
_cell_formula_units_Z   2
loop_
 _symmetry_equiv_pos_site_id
 _symmetry_equiv_pos_as_xyz
  1  'x, y, z'
loop_
 _atom_site_type_symbol
 _atom_site_label
 _atom_site_symmetry_multiplicity
 _atom_site_fract_x
 _atom_site_fract_y
 _atom_site_fract_z
 _atom_site_occupancy
  Pr  Pr0  1  0.25800412  0.49992937  0.85707811  1
  Pr  Pr1  1  0.72803880  0.55409926  0.12439627  1
  Pr  Pr2  1  0.77102335  0.98048476  0.88693749  1
  Pr  Pr3  1  0.24584125  0.98302776  0.14604024  1
  Mn  Mn4  1  0.28458783  0.57431051  0.58987872  1
  Mn  Mn5  1  0.69510125  0.43875389  0.38108589  1
  Mn  Mn6  1  0.99577634  0.96555991  0.00010362  1
  Mn  Mn7  1  0.79266251  0.97384194  0.59763351  1
  Mn  Mn8  1  0.20409479  0.91113489  0.41014644  1
  Mn  Mn9  1  0.50177231  0.49169829  0.01128963  1
  Sb  Sb10  1  0.88815720  0.01812967  0.44470156  1
  Sb  Sb11  1  0.11126860  0.03144855  0.55977701  1
  Sb  Sb12  1  0.02623268  0.50742775  0.80115066  1
  Sb  Sb13  1  0.96924824  0.51423235  0.19033797  1
  Sb  Sb14  1  0.39989896  0.50242742  0.47463011  1
  Sb  Sb15  1  0.61363476  0.44121149  0.56959819  1
  Sb  Sb16  1  0.53044463  0.00186729  0.81652883  1
  Sb  Sb17  1  0.46527470  0.03783410  0.17706706  1
  S  S18  1  0.93249630  0.02637278  0.79164647  1
  S  S19  1  0.05898127  0.99899235  0.19231254  1
  S  S20  1  0.41460767  0.01801457  0.97751138  1
  S  S21  1  0.58083495  0.01017161  0.01856462  1
  S  S22  1  0.18058098  0.99994909  0.89418462  1
  S  S23  1  0.83022099  0.03086114  0.11619098  1
  S  S24  1  0.08299301  0.45773175  0.65901506  1
  S  S25  1  0.89236839  0.50693492  0.33332828  1
  S  S26  1  0.73038101  0.93649673  0.30319710  1
  S  S27  1  0.26715345  0.94597596  0.69207982  1
  S  S28  1  0.15850371  0.40879162  0.43578751  1
  S  S29  1  0.82859769  0.44974595  0.53935815  1
  S  S30  1  0.44391475  0.52968033  0.81978402  1
  S  S31  1  0.56765631  0.49887268  0.20763202  1
  S  S32  1  0.92272601  0.49910588  0.98418756  1
  S  S33  1  0.08580092  0.53758074  0.00865317  1
  S  S34  1  0.68125803  0.47669439  0.90459830  1
  S  S35  1  0.33823881  0.44406035  0.11408069  1
  S  S36  1  0.60304375  0.97107300  0.66760958  1
  S  S37  1  0.42036850  0.99942680  0.37486797  1
  S  S38  1  0.24563687  0.46379827  0.29916633  1
  S  S39  1  0.77107913  0.44551279  0.69966426  1
  S  S40  1  0.66154851  0.97448265  0.44163975  1
  S  S41  1  0.32795189  0.06957437  0.55726941  1
