# generated using pymatgen
data_Pr2Mn3(SbS3)4
_symmetry_space_group_name_H-M   'P 1'
_cell_length_a   20.02960800
_cell_length_b   3.90410600
_cell_length_c   14.95364829
_cell_angle_alpha   90.00000000
_cell_angle_beta   126.33350609
_cell_angle_gamma   90.00000000
_symmetry_Int_Tables_number   1
_chemical_formula_structural   Pr2Mn3(SbS3)4
_chemical_formula_sum   'Pr4 Mn6 Sb8 S24'
_cell_volume   942.00006694
_cell_formula_units_Z   2
loop_
 _symmetry_equiv_pos_site_id
 _symmetry_equiv_pos_as_xyz
  1  'x, y, z'
loop_
 _atom_site_type_symbol
 _atom_site_label
 _atom_site_symmetry_multiplicity
 _atom_site_fract_x
 _atom_site_fract_y
 _atom_site_fract_z
 _atom_site_occupancy
  Pr  Pr0  1  0.25795139  0.49963716  0.85692689  1
  Pr  Pr1  1  0.72793507  0.55362846  0.12450383  1
  Pr  Pr2  1  0.77077572  0.98005911  0.88668692  1
  Pr  Pr3  1  0.24590881  0.98325595  0.14594367  1
  Mn  Mn4  1  0.28472712  0.57388214  0.58991935  1
  Mn  Mn5  1  0.69534757  0.43971341  0.38116142  1
  Mn  Mn6  1  0.99607134  0.96601567  0.00010636  1
  Mn  Mn7  1  0.79266964  0.97430723  0.59758768  1
  Mn  Mn8  1  0.20404999  0.90972946  0.41015547  1
  Mn  Mn9  1  0.50178572  0.49107119  0.01106141  1
  Sb  Sb10  1  0.88828333  0.01794991  0.44479595  1
  Sb  Sb11  1  0.11134040  0.03120418  0.55997087  1
  Sb  Sb12  1  0.02624859  0.50726598  0.80100722  1
  Sb  Sb13  1  0.96936287  0.51409401  0.19018922  1
  Sb  Sb14  1  0.39987945  0.50267678  0.47463320  1
  Sb  Sb15  1  0.61374055  0.44147180  0.56959631  1
  Sb  Sb16  1  0.53045869  0.00219246  0.81652375  1
  Sb  Sb17  1  0.46522211  0.03811586  0.17712408  1
  S  S18  1  0.93213350  0.02685512  0.79098593  1
  S  S19  1  0.05878210  0.99933881  0.19204009  1
  S  S20  1  0.41462759  0.01897244  0.97764115  1
  S  S21  1  0.58078846  0.00919749  0.01847692  1
  S  S22  1  0.18038872  0.99901796  0.89417408  1
  S  S23  1  0.83013232  0.03059802  0.11593843  1
  S  S24  1  0.08280931  0.45851473  0.65903466  1
  S  S25  1  0.89292194  0.50564797  0.33375472  1
  S  S26  1  0.73042320  0.93688378  0.30321633  1
  S  S27  1  0.26741180  0.94601204  0.69240495  1
  S  S28  1  0.15853068  0.41056310  0.43605002  1
  S  S29  1  0.82868022  0.44873589  0.53968421  1
  S  S30  1  0.44351176  0.53024545  0.81950690  1
  S  S31  1  0.56743885  0.49910410  0.20794028  1
  S  S32  1  0.92262266  0.49941291  0.98411413  1
  S  S33  1  0.08560122  0.53585467  0.00837071  1
  S  S34  1  0.68109461  0.47662618  0.90476516  1
  S  S35  1  0.33777844  0.44446344  0.11340597  1
  S  S36  1  0.60291719  0.97083775  0.66746849  1
  S  S37  1  0.42017575  0.99837034  0.37488805  1
  S  S38  1  0.24553498  0.46420105  0.29910295  1
  S  S39  1  0.77103846  0.44517480  0.69929730  1
  S  S40  1  0.66140555  0.97520324  0.44149805  1
  S  S41  1  0.32792313  0.06929152  0.55702925  1
