# generated using pymatgen
data_Pr2Mn3(SbS3)4
_symmetry_space_group_name_H-M   'P 1'
_cell_length_a   20.02960800
_cell_length_b   3.90410600
_cell_length_c   14.95364829
_cell_angle_alpha   90.00000000
_cell_angle_beta   126.33350609
_cell_angle_gamma   90.00000000
_symmetry_Int_Tables_number   1
_chemical_formula_structural   Pr2Mn3(SbS3)4
_chemical_formula_sum   'Pr4 Mn6 Sb8 S24'
_cell_volume   942.00006694
_cell_formula_units_Z   2
loop_
 _symmetry_equiv_pos_site_id
 _symmetry_equiv_pos_as_xyz
  1  'x, y, z'
loop_
 _atom_site_type_symbol
 _atom_site_label
 _atom_site_symmetry_multiplicity
 _atom_site_fract_x
 _atom_site_fract_y
 _atom_site_fract_z
 _atom_site_occupancy
  Pr  Pr0  1  0.25791347  0.49928028  0.85687376  1
  Pr  Pr1  1  0.72784484  0.55293132  0.12457605  1
  Pr  Pr2  1  0.77053269  0.97961319  0.88644523  1
  Pr  Pr3  1  0.24593714  0.98370589  0.14585297  1
  Mn  Mn4  1  0.28485449  0.57364628  0.58979505  1
  Mn  Mn5  1  0.69562419  0.44040064  0.38127346  1
  Mn  Mn6  1  0.99625648  0.96631040  0.00003695  1
  Mn  Mn7  1  0.79267223  0.97436658  0.59756268  1
  Mn  Mn8  1  0.20413311  0.90812843  0.41031380  1
  Mn  Mn9  1  0.50165375  0.49028048  0.01075596  1
  Sb  Sb10  1  0.88835418  0.01770689  0.44491513  1
  Sb  Sb11  1  0.11141581  0.03066733  0.56008964  1
  Sb  Sb12  1  0.02631214  0.50729157  0.80091512  1
  Sb  Sb13  1  0.96942102  0.51409509  0.19008565  1
  Sb  Sb14  1  0.39989363  0.50312145  0.47461768  1
  Sb  Sb15  1  0.61385208  0.44157754  0.56964533  1
  Sb  Sb16  1  0.53051765  0.00248767  0.81662342  1
  Sb  Sb17  1  0.46514077  0.03818861  0.17710161  1
  S  S18  1  0.93173328  0.02684714  0.79036674  1
  S  S19  1  0.05851160  0.99995871  0.19181237  1
  S  S20  1  0.41471211  0.01979389  0.97770891  1
  S  S21  1  0.58088144  0.00798119  0.01853976  1
  S  S22  1  0.18014078  0.99859762  0.89410249  1
  S  S23  1  0.82994228  0.02995608  0.11573352  1
  S  S24  1  0.08268066  0.45873024  0.65901715  1
  S  S25  1  0.89322080  0.50412958  0.33386211  1
  S  S26  1  0.73060736  0.93717315  0.30319933  1
  S  S27  1  0.26765588  0.94645005  0.69259763  1
  S  S28  1  0.15834347  0.41199777  0.43616588  1
  S  S29  1  0.82874455  0.44760255  0.54015190  1
  S  S30  1  0.44309329  0.53163584  0.81908706  1
  S  S31  1  0.56725315  0.49967650  0.20846636  1
  S  S32  1  0.92261733  0.49949662  0.98430957  1
  S  S33  1  0.08555182  0.53410309  0.00819151  1
  S  S34  1  0.68101949  0.47708062  0.90518822  1
  S  S35  1  0.33743094  0.44559353  0.11303125  1
  S  S36  1  0.60266607  0.97052804  0.66714423  1
  S  S37  1  0.42000944  0.99743226  0.37502873  1
  S  S38  1  0.24528739  0.46477812  0.29895768  1
  S  S39  1  0.77105550  0.44583860  0.69889220  1
  S  S40  1  0.66126588  0.97625053  0.44141354  1
  S  S41  1  0.32780904  0.06902582  0.55682761  1
