# generated using pymatgen
data_Pr2Mn3(SbS3)4
_symmetry_space_group_name_H-M   'P 1'
_cell_length_a   20.02960800
_cell_length_b   3.90410600
_cell_length_c   14.95364829
_cell_angle_alpha   90.00000000
_cell_angle_beta   126.33350609
_cell_angle_gamma   90.00000000
_symmetry_Int_Tables_number   1
_chemical_formula_structural   Pr2Mn3(SbS3)4
_chemical_formula_sum   'Pr4 Mn6 Sb8 S24'
_cell_volume   942.00006694
_cell_formula_units_Z   2
loop_
 _symmetry_equiv_pos_site_id
 _symmetry_equiv_pos_as_xyz
  1  'x, y, z'
loop_
 _atom_site_type_symbol
 _atom_site_label
 _atom_site_symmetry_multiplicity
 _atom_site_fract_x
 _atom_site_fract_y
 _atom_site_fract_z
 _atom_site_occupancy
  Pr  Pr0  1  0.25792048  0.49912547  0.85677799  1
  Pr  Pr1  1  0.72777555  0.55257454  0.12460087  1
  Pr  Pr2  1  0.77029116  0.97923863  0.88612642  1
  Pr  Pr3  1  0.24595447  0.98412090  0.14582946  1
  Mn  Mn4  1  0.28494907  0.57392990  0.58971215  1
  Mn  Mn5  1  0.69594011  0.44083679  0.38133450  1
  Mn  Mn6  1  0.99651769  0.96661422  0.00008145  1
  Mn  Mn7  1  0.79271226  0.97456053  0.59740351  1
  Mn  Mn8  1  0.20411150  0.90670853  0.41040566  1
  Mn  Mn9  1  0.50145903  0.48903706  0.01034545  1
  Sb  Sb10  1  0.88836156  0.01753327  0.44498889  1
  Sb  Sb11  1  0.11149716  0.03012803  0.56014149  1
  Sb  Sb12  1  0.02628340  0.50753827  0.80079701  1
  Sb  Sb13  1  0.96946832  0.51394950  0.18993235  1
  Sb  Sb14  1  0.39982405  0.50317192  0.47444886  1
  Sb  Sb15  1  0.61390668  0.44165982  0.56971099  1
  Sb  Sb16  1  0.53055142  0.00286485  0.81676023  1
  Sb  Sb17  1  0.46506174  0.03842379  0.17703158  1
  S  S18  1  0.93146717  0.02622048  0.78991571  1
  S  S19  1  0.05826643  0.00046217  0.19156459  1
  S  S20  1  0.41482046  0.02044359  0.97786531  1
  S  S21  1  0.58084155  0.00727362  0.01867611  1
  S  S22  1  0.17994876  0.99814064  0.89405053  1
  S  S23  1  0.82983412  0.02883870  0.11557530  1
  S  S24  1  0.08255752  0.45847453  0.65892016  1
  S  S25  1  0.89343466  0.50277650  0.33395392  1
  S  S26  1  0.73077802  0.93769236  0.30327233  1
  S  S27  1  0.26777578  0.94685417  0.69275176  1
  S  S28  1  0.15811048  0.41316816  0.43605281  1
  S  S29  1  0.82877732  0.44674186  0.54039299  1
  S  S30  1  0.44275436  0.53277455  0.81868070  1
  S  S31  1  0.56689888  0.50029983  0.20882670  1
  S  S32  1  0.92281179  0.50019883  0.98469558  1
  S  S33  1  0.08551801  0.53300252  0.00823798  1
  S  S34  1  0.68089399  0.47710350  0.90558653  1
  S  S35  1  0.33730139  0.44750770  0.11282896  1
  S  S36  1  0.60241942  0.97120030  0.66671222  1
  S  S37  1  0.41993602  0.99717340  0.37521697  1
  S  S38  1  0.24502601  0.46532685  0.29860157  1
  S  S39  1  0.77108336  0.44611649  0.69832255  1
  S  S40  1  0.66103373  0.97770531  0.44135343  1
  S  S41  1  0.32752907  0.06852262  0.55640198  1
