# generated using pymatgen
data_Pr2Mn3(SbS3)4
_symmetry_space_group_name_H-M   'P 1'
_cell_length_a   20.02960800
_cell_length_b   3.90410600
_cell_length_c   14.95364829
_cell_angle_alpha   90.00000000
_cell_angle_beta   126.33350609
_cell_angle_gamma   90.00000000
_symmetry_Int_Tables_number   1
_chemical_formula_structural   Pr2Mn3(SbS3)4
_chemical_formula_sum   'Pr4 Mn6 Sb8 S24'
_cell_volume   942.00006694
_cell_formula_units_Z   2
loop_
 _symmetry_equiv_pos_site_id
 _symmetry_equiv_pos_as_xyz
  1  'x, y, z'
loop_
 _atom_site_type_symbol
 _atom_site_label
 _atom_site_symmetry_multiplicity
 _atom_site_fract_x
 _atom_site_fract_y
 _atom_site_fract_z
 _atom_site_occupancy
  Pr  Pr0  1  0.25791952  0.49915534  0.85672423  1
  Pr  Pr1  1  0.72771991  0.55220556  0.12460771  1
  Pr  Pr2  1  0.76998993  0.97886577  0.88572854  1
  Pr  Pr3  1  0.24600471  0.98429619  0.14586351  1
  Mn  Mn4  1  0.28498291  0.57380634  0.58969127  1
  Mn  Mn5  1  0.69627116  0.44120838  0.38130198  1
  Mn  Mn6  1  0.99668471  0.96690613  0.00001777  1
  Mn  Mn7  1  0.79278173  0.97525886  0.59724680  1
  Mn  Mn8  1  0.20409591  0.90574218  0.41054590  1
  Mn  Mn9  1  0.50110652  0.48860546  0.00993986  1
  Sb  Sb10  1  0.88840877  0.01751972  0.44517801  1
  Sb  Sb11  1  0.11158615  0.02964114  0.56015881  1
  Sb  Sb12  1  0.02619136  0.50768663  0.80065627  1
  Sb  Sb13  1  0.96950056  0.51353343  0.18981783  1
  Sb  Sb14  1  0.39969750  0.50308858  0.47420708  1
  Sb  Sb15  1  0.61393566  0.44194223  0.56979864  1
  Sb  Sb16  1  0.53066384  0.00316185  0.81704002  1
  Sb  Sb17  1  0.46495568  0.03842131  0.17698821  1
  S  S18  1  0.93133796  0.02558566  0.78938023  1
  S  S19  1  0.05817987  0.00096962  0.19141417  1
  S  S20  1  0.41479133  0.02156295  0.97793728  1
  S  S21  1  0.58062468  0.00715358  0.01849409  1
  S  S22  1  0.17972268  0.99785616  0.89392428  1
  S  S23  1  0.82971353  0.02792641  0.11532770  1
  S  S24  1  0.08235882  0.45847284  0.65873372  1
  S  S25  1  0.89371044  0.50183364  0.33415488  1
  S  S26  1  0.73082131  0.93932098  0.30327076  1
  S  S27  1  0.26770898  0.94684412  0.69275866  1
  S  S28  1  0.15780861  0.41409318  0.43588866  1
  S  S29  1  0.82879182  0.44609918  0.54066295  1
  S  S30  1  0.44258039  0.53356602  0.81841914  1
  S  S31  1  0.56668408  0.50074421  0.20922586  1
  S  S32  1  0.92308849  0.50069689  0.98493847  1
  S  S33  1  0.08543917  0.53193460  0.00810992  1
  S  S34  1  0.68074751  0.47774730  0.90601193  1
  S  S35  1  0.33701769  0.44919729  0.11246318  1
  S  S36  1  0.60207454  0.97169000  0.66635605  1
  S  S37  1  0.41959572  0.99659430  0.37511445  1
  S  S38  1  0.24479965  0.46566750  0.29837032  1
  S  S39  1  0.77110607  0.44669164  0.69794628  1
  S  S40  1  0.66080307  0.97907488  0.44128749  1
  S  S41  1  0.32730016  0.06762772  0.55604152  1
