# generated using pymatgen
data_Pr2Mn3(SbS3)4
_symmetry_space_group_name_H-M   'P 1'
_cell_length_a   20.02960800
_cell_length_b   3.90410600
_cell_length_c   14.95364829
_cell_angle_alpha   90.00000000
_cell_angle_beta   126.33350609
_cell_angle_gamma   90.00000000
_symmetry_Int_Tables_number   1
_chemical_formula_structural   Pr2Mn3(SbS3)4
_chemical_formula_sum   'Pr4 Mn6 Sb8 S24'
_cell_volume   942.00006694
_cell_formula_units_Z   2
loop_
 _symmetry_equiv_pos_site_id
 _symmetry_equiv_pos_as_xyz
  1  'x, y, z'
loop_
 _atom_site_type_symbol
 _atom_site_label
 _atom_site_symmetry_multiplicity
 _atom_site_fract_x
 _atom_site_fract_y
 _atom_site_fract_z
 _atom_site_occupancy
  Pr  Pr0  1  0.25789086  0.49952420  0.85661469  1
  Pr  Pr1  1  0.72766498  0.55195752  0.12467572  1
  Pr  Pr2  1  0.76973980  0.97881058  0.88537531  1
  Pr  Pr3  1  0.24605749  0.98447974  0.14593180  1
  Mn  Mn4  1  0.28491483  0.57376481  0.58970262  1
  Mn  Mn5  1  0.69649542  0.44217209  0.38121484  1
  Mn  Mn6  1  0.99702391  0.96719135  0.00003050  1
  Mn  Mn7  1  0.79282049  0.97566241  0.59706577  1
  Mn  Mn8  1  0.20386425  0.90464347  0.41041990  1
  Mn  Mn9  1  0.50091126  0.48796733  0.00956353  1
  Sb  Sb10  1  0.88847271  0.01770879  0.44537342  1
  Sb  Sb11  1  0.11164422  0.02940291  0.56016406  1
  Sb  Sb12  1  0.02607945  0.50766185  0.80052848  1
  Sb  Sb13  1  0.96962263  0.51329977  0.18980175  1
  Sb  Sb14  1  0.39948348  0.50280391  0.47389251  1
  Sb  Sb15  1  0.61399626  0.44241857  0.56980879  1
  Sb  Sb16  1  0.53080116  0.00374747  0.81732397  1
  Sb  Sb17  1  0.46486540  0.03840656  0.17695038  1
  S  S18  1  0.93138651  0.02475235  0.78895796  1
  S  S19  1  0.05812240  0.00120355  0.19123258  1
  S  S20  1  0.41478665  0.02227141  0.97797644  1
  S  S21  1  0.58048414  0.00654039  0.01850713  1
  S  S22  1  0.17955233  0.99737850  0.89389296  1
  S  S23  1  0.82967732  0.02705217  0.11513561  1
  S  S24  1  0.08223142  0.45834931  0.65857074  1
  S  S25  1  0.89385309  0.50068443  0.33424426  1
  S  S26  1  0.73092258  0.94109103  0.30329223  1
  S  S27  1  0.26763409  0.94723698  0.69284122  1
  S  S28  1  0.15759649  0.41472245  0.43584936  1
  S  S29  1  0.82891057  0.44668988  0.54092247  1
  S  S30  1  0.44232381  0.53428732  0.81798508  1
  S  S31  1  0.56658064  0.50152223  0.20959203  1
  S  S32  1  0.92339772  0.50166690  0.98514850  1
  S  S33  1  0.08527745  0.53061415  0.00788273  1
  S  S34  1  0.68062926  0.47824096  0.90653051  1
  S  S35  1  0.33689007  0.45058595  0.11229803  1
  S  S36  1  0.60176974  0.97298363  0.66628205  1
  S  S37  1  0.41923338  0.99646083  0.37483495  1
  S  S38  1  0.24455998  0.46647740  0.29791742  1
  S  S39  1  0.77112704  0.44829253  0.69762938  1
  S  S40  1  0.66075155  0.97994068  0.44124450  1
  S  S41  1  0.32713440  0.06721445  0.55564294  1
