# generated using pymatgen
data_Pr2Mn3(SbS3)4
_symmetry_space_group_name_H-M   'P 1'
_cell_length_a   20.02960800
_cell_length_b   3.90410600
_cell_length_c   14.95364829
_cell_angle_alpha   90.00000000
_cell_angle_beta   126.33350609
_cell_angle_gamma   90.00000000
_symmetry_Int_Tables_number   1
_chemical_formula_structural   Pr2Mn3(SbS3)4
_chemical_formula_sum   'Pr4 Mn6 Sb8 S24'
_cell_volume   942.00006694
_cell_formula_units_Z   2
loop_
 _symmetry_equiv_pos_site_id
 _symmetry_equiv_pos_as_xyz
  1  'x, y, z'
loop_
 _atom_site_type_symbol
 _atom_site_label
 _atom_site_symmetry_multiplicity
 _atom_site_fract_x
 _atom_site_fract_y
 _atom_site_fract_z
 _atom_site_occupancy
  Pr  Pr0  1  0.25781205  0.49995391  0.85640390  1
  Pr  Pr1  1  0.72757121  0.55166448  0.12468747  1
  Pr  Pr2  1  0.76957985  0.97838869  0.88511280  1
  Pr  Pr3  1  0.24609388  0.98441068  0.14602360  1
  Mn  Mn4  1  0.28480046  0.57410110  0.58963020  1
  Mn  Mn5  1  0.69671692  0.44328729  0.38106348  1
  Mn  Mn6  1  0.99756362  0.96743133  0.00019000  1
  Mn  Mn7  1  0.79278972  0.97579704  0.59683957  1
  Mn  Mn8  1  0.20366381  0.90348623  0.41033853  1
  Mn  Mn9  1  0.50071840  0.48763978  0.00931111  1
  Sb  Sb10  1  0.88855428  0.01802047  0.44561084  1
  Sb  Sb11  1  0.11163127  0.02947284  0.56012460  1
  Sb  Sb12  1  0.02592583  0.50732098  0.80041391  1
  Sb  Sb13  1  0.96972981  0.51300406  0.18969315  1
  Sb  Sb14  1  0.39923529  0.50246887  0.47351141  1
  Sb  Sb15  1  0.61407490  0.44295478  0.56983089  1
  Sb  Sb16  1  0.53098847  0.00443458  0.81768909  1
  Sb  Sb17  1  0.46475221  0.03828377  0.17690510  1
  S  S18  1  0.93145925  0.02439009  0.78862839  1
  S  S19  1  0.05808531  0.00113127  0.19118483  1
  S  S20  1  0.41495386  0.02236339  0.97801669  1
  S  S21  1  0.58017047  0.00582999  0.01855315  1
  S  S22  1  0.17941219  0.99629579  0.89388199  1
  S  S23  1  0.82976302  0.02586684  0.11501362  1
  S  S24  1  0.08204103  0.45869786  0.65834045  1
  S  S25  1  0.89396201  0.49972016  0.33422790  1
  S  S26  1  0.73112404  0.94327780  0.30337592  1
  S  S27  1  0.26753856  0.94801020  0.69295778  1
  S  S28  1  0.15735936  0.41479425  0.43575261  1
  S  S29  1  0.82906689  0.44639492  0.54124114  1
  S  S30  1  0.44226001  0.53478275  0.81781879  1
  S  S31  1  0.56635779  0.50214611  0.20976292  1
  S  S32  1  0.92361334  0.50309198  0.98510912  1
  S  S33  1  0.08508059  0.53007599  0.00768060  1
  S  S34  1  0.68025250  0.47809166  0.90682345  1
  S  S35  1  0.33681170  0.45158144  0.11213113  1
  S  S36  1  0.60152007  0.97453969  0.66608428  1
  S  S37  1  0.41905829  0.99639908  0.37481178  1
  S  S38  1  0.24437459  0.46734978  0.29760640  1
  S  S39  1  0.77123445  0.44963340  0.69719267  1
  S  S40  1  0.66087273  0.98082511  0.44134433  1
  S  S41  1  0.32692870  0.06627692  0.55527558  1
