# generated using pymatgen
data_Pr2Mn3(SbS3)4
_symmetry_space_group_name_H-M   'P 1'
_cell_length_a   20.02960800
_cell_length_b   3.90410600
_cell_length_c   14.95364829
_cell_angle_alpha   90.00000000
_cell_angle_beta   126.33350609
_cell_angle_gamma   90.00000000
_symmetry_Int_Tables_number   1
_chemical_formula_structural   Pr2Mn3(SbS3)4
_chemical_formula_sum   'Pr4 Mn6 Sb8 S24'
_cell_volume   942.00006694
_cell_formula_units_Z   2
loop_
 _symmetry_equiv_pos_site_id
 _symmetry_equiv_pos_as_xyz
  1  'x, y, z'
loop_
 _atom_site_type_symbol
 _atom_site_label
 _atom_site_symmetry_multiplicity
 _atom_site_fract_x
 _atom_site_fract_y
 _atom_site_fract_z
 _atom_site_occupancy
  Pr  Pr0  1  0.25774693  0.50038207  0.85618933  1
  Pr  Pr1  1  0.72744470  0.55093594  0.12471597  1
  Pr  Pr2  1  0.76942446  0.97830947  0.88488083  1
  Pr  Pr3  1  0.24617078  0.98451865  0.14610747  1
  Mn  Mn4  1  0.28480816  0.57463834  0.58966109  1
  Mn  Mn5  1  0.69699386  0.44399358  0.38108169  1
  Mn  Mn6  1  0.99802893  0.96739100  0.00031093  1
  Mn  Mn7  1  0.79283544  0.97565838  0.59671981  1
  Mn  Mn8  1  0.20342678  0.90265506  0.41033076  1
  Mn  Mn9  1  0.50060203  0.48753150  0.00907014  1
  Sb  Sb10  1  0.88857897  0.01827433  0.44575456  1
  Sb  Sb11  1  0.11158391  0.02947564  0.56008587  1
  Sb  Sb12  1  0.02580038  0.50674158  0.80042787  1
  Sb  Sb13  1  0.96987440  0.51278343  0.18957860  1
  Sb  Sb14  1  0.39890719  0.50243748  0.47309178  1
  Sb  Sb15  1  0.61408469  0.44329946  0.56987450  1
  Sb  Sb16  1  0.53119358  0.00530827  0.81800343  1
  Sb  Sb17  1  0.46469868  0.03820960  0.17682784  1
  S  S18  1  0.93144862  0.02431156  0.78832161  1
  S  S19  1  0.05812109  0.00139365  0.19117921  1
  S  S20  1  0.41527781  0.02225389  0.97817057  1
  S  S21  1  0.58005834  0.00489716  0.01867394  1
  S  S22  1  0.17938442  0.99511142  0.89402029  1
  S  S23  1  0.82980564  0.02534660  0.11477948  1
  S  S24  1  0.08188040  0.45877957  0.65815258  1
  S  S25  1  0.89414052  0.49874900  0.33422364  1
  S  S26  1  0.73123823  0.94513177  0.30347865  1
  S  S27  1  0.26747263  0.94846581  0.69311768  1
  S  S28  1  0.15734814  0.41531719  0.43557772  1
  S  S29  1  0.82922173  0.44587350  0.54151609  1
  S  S30  1  0.44227643  0.53482843  0.81772745  1
  S  S31  1  0.56619635  0.50257191  0.20991449  1
  S  S32  1  0.92379555  0.50444194  0.98506979  1
  S  S33  1  0.08488683  0.52939620  0.00751189  1
  S  S34  1  0.67973483  0.47810571  0.90703566  1
  S  S35  1  0.33675697  0.45282767  0.11199887  1
  S  S36  1  0.60104487  0.97623326  0.66591560  1
  S  S37  1  0.41888128  0.99610674  0.37468353  1
  S  S38  1  0.24432130  0.46817295  0.29742141  1
  S  S39  1  0.77118760  0.45078049  0.69652177  1
  S  S40  1  0.66102544  0.98160307  0.44136386  1
  S  S41  1  0.32667625  0.06502825  0.55516732  1
