# generated using pymatgen
data_Pr2Mn3(SbS3)4
_symmetry_space_group_name_H-M   'P 1'
_cell_length_a   20.02960800
_cell_length_b   3.90410600
_cell_length_c   14.95364829
_cell_angle_alpha   90.00000000
_cell_angle_beta   126.33350609
_cell_angle_gamma   90.00000000
_symmetry_Int_Tables_number   1
_chemical_formula_structural   Pr2Mn3(SbS3)4
_chemical_formula_sum   'Pr4 Mn6 Sb8 S24'
_cell_volume   942.00006694
_cell_formula_units_Z   2
loop_
 _symmetry_equiv_pos_site_id
 _symmetry_equiv_pos_as_xyz
  1  'x, y, z'
loop_
 _atom_site_type_symbol
 _atom_site_label
 _atom_site_symmetry_multiplicity
 _atom_site_fract_x
 _atom_site_fract_y
 _atom_site_fract_z
 _atom_site_occupancy
  Pr  Pr0  1  0.25764210  0.50081338  0.85594253  1
  Pr  Pr1  1  0.72743609  0.55046841  0.12488396  1
  Pr  Pr2  1  0.76920579  0.97830032  0.88470469  1
  Pr  Pr3  1  0.24626779  0.98461511  0.14620744  1
  Mn  Mn4  1  0.28485406  0.57532821  0.58973651  1
  Mn  Mn5  1  0.69723774  0.44490725  0.38093590  1
  Mn  Mn6  1  0.99845322  0.96725865  0.00046988  1
  Mn  Mn7  1  0.79286814  0.97573666  0.59654540  1
  Mn  Mn8  1  0.20318615  0.90240034  0.41030103  1
  Mn  Mn9  1  0.50054296  0.48748284  0.00893301  1
  Sb  Sb10  1  0.88857729  0.01851227  0.44589633  1
  Sb  Sb11  1  0.11145415  0.02955815  0.55995163  1
  Sb  Sb12  1  0.02572656  0.50646006  0.80044057  1
  Sb  Sb13  1  0.97002149  0.51258652  0.18951791  1
  Sb  Sb14  1  0.39858946  0.50254060  0.47273217  1
  Sb  Sb15  1  0.61414372  0.44382908  0.56994579  1
  Sb  Sb16  1  0.53138653  0.00579117  0.81816274  1
  Sb  Sb17  1  0.46459469  0.03810804  0.17675872  1
  S  S18  1  0.93149672  0.02425488  0.78813551  1
  S  S19  1  0.05816963  0.00198868  0.19106016  1
  S  S20  1  0.41546641  0.02192808  0.97823598  1
  S  S21  1  0.57984457  0.00448771  0.01857507  1
  S  S22  1  0.17927199  0.99385783  0.89407849  1
  S  S23  1  0.82974542  0.02562885  0.11436820  1
  S  S24  1  0.08168474  0.45884653  0.65791033  1
  S  S25  1  0.89429947  0.49837842  0.33433670  1
  S  S26  1  0.73127608  0.94668132  0.30365502  1
  S  S27  1  0.26736008  0.94865617  0.69329682  1
  S  S28  1  0.15729540  0.41595246  0.43545941  1
  S  S29  1  0.82940818  0.44554435  0.54182015  1
  S  S30  1  0.44237599  0.53447531  0.81768262  1
  S  S31  1  0.56618134  0.50286758  0.21006648  1
  S  S32  1  0.92400620  0.50529269  0.98512856  1
  S  S33  1  0.08477416  0.52836735  0.00754563  1
  S  S34  1  0.67919426  0.47801639  0.90711110  1
  S  S35  1  0.33667683  0.45337076  0.11179664  1
  S  S36  1  0.60058963  0.97787152  0.66576819  1
  S  S37  1  0.41871049  0.99607609  0.37458704  1
  S  S38  1  0.24427292  0.46880879  0.29721494  1
  S  S39  1  0.77115555  0.45256570  0.69559237  1
  S  S40  1  0.66107759  0.98237236  0.44140411  1
  S  S41  1  0.32645691  0.06474648  0.55497619  1
