# generated using pymatgen
data_Pr2Mn3(SbS3)4
_symmetry_space_group_name_H-M   'P 1'
_cell_length_a   20.02960800
_cell_length_b   3.90410600
_cell_length_c   14.95364829
_cell_angle_alpha   90.00000000
_cell_angle_beta   126.33350609
_cell_angle_gamma   90.00000000
_symmetry_Int_Tables_number   1
_chemical_formula_structural   Pr2Mn3(SbS3)4
_chemical_formula_sum   'Pr4 Mn6 Sb8 S24'
_cell_volume   942.00006694
_cell_formula_units_Z   2
loop_
 _symmetry_equiv_pos_site_id
 _symmetry_equiv_pos_as_xyz
  1  'x, y, z'
loop_
 _atom_site_type_symbol
 _atom_site_label
 _atom_site_symmetry_multiplicity
 _atom_site_fract_x
 _atom_site_fract_y
 _atom_site_fract_z
 _atom_site_occupancy
  Pr  Pr0  1  0.27002858  0.49588370  0.86729737  1
  Pr  Pr1  1  0.73397715  0.51275798  0.13293090  1
  Pr  Pr2  1  0.76372424  0.02518687  0.86260442  1
  Pr  Pr3  1  0.23354894  0.99581087  0.13112443  1
  Mn  Mn4  1  0.29559312  0.47744424  0.59906824  1
  Mn  Mn5  1  0.68646949  0.46054606  0.36401044  1
  Mn  Mn6  1  0.00525332  0.98857936  0.01118814  1
  Mn  Mn7  1  0.79774474  0.00083601  0.61816807  1
  Mn  Mn8  1  0.19666102  0.97840417  0.36888553  1
  Mn  Mn9  1  0.48743322  0.46804264  0.98587577  1
  Sb  Sb10  1  0.88857015  0.98735117  0.45149991  1
  Sb  Sb11  1  0.10896915  0.97908473  0.54468656  1
  Sb  Sb12  1  0.03524808  0.52582444  0.81932649  1
  Sb  Sb13  1  0.96667952  0.49861047  0.19015932  1
  Sb  Sb14  1  0.39250364  0.50003308  0.44803391  1
  Sb  Sb15  1  0.60547476  0.47403096  0.54738162  1
  Sb  Sb16  1  0.53395520  0.98255759  0.80898460  1
  Sb  Sb17  1  0.46526583  0.01649037  0.19052374  1
  S  S18  1  0.93605183  0.02524241  0.80791953  1
  S  S19  1  0.06490280  0.99120413  0.19868976  1
  S  S20  1  0.42045187  0.95454833  0.99127125  1
  S  S21  1  0.58443923  0.02570099  0.01458025  1
  S  S22  1  0.16934610  0.05531974  0.89986118  1
  S  S23  1  0.82705852  0.04200537  0.10231637  1
  S  S24  1  0.09019502  0.50578310  0.64611566  1
  S  S25  1  0.91653710  0.47951695  0.35901588  1
  S  S26  1  0.73830912  0.98590086  0.30278041  1
  S  S27  1  0.26111903  0.00204343  0.71263191  1
  S  S28  1  0.16581620  0.51675441  0.43332721  1
  S  S29  1  0.81727366  0.48614846  0.54678767  1
  S  S30  1  0.43125472  0.47784778  0.79651573  1
  S  S31  1  0.55471297  0.52292706  0.18034466  1
  S  S32  1  0.91805291  0.49878946  0.98880071  1
  S  S33  1  0.09205025  0.48889617  0.03237100  1
  S  S34  1  0.66374582  0.55231304  0.89407376  1
  S  S35  1  0.32587766  0.49173480  0.09253591  1
  S  S36  1  0.59386036  0.99864553  0.65159518  1
  S  S37  1  0.39967002  0.98550631  0.34357272  1
  S  S38  1  0.24235007  0.46436367  0.31551878  1
  S  S39  1  0.76006094  0.52461134  0.68826421  1
  S  S40  1  0.66430768  0.00221281  0.44873966  1
  S  S41  1  0.33196442  0.97915685  0.55582294  1
