# generated using pymatgen
data_Pr2Mn3(SbS3)4
_symmetry_space_group_name_H-M   'P 1'
_cell_length_a   20.02960800
_cell_length_b   3.90410600
_cell_length_c   14.95364829
_cell_angle_alpha   90.00000000
_cell_angle_beta   126.33350609
_cell_angle_gamma   90.00000000
_symmetry_Int_Tables_number   1
_chemical_formula_structural   Pr2Mn3(SbS3)4
_chemical_formula_sum   'Pr4 Mn6 Sb8 S24'
_cell_volume   942.00006694
_cell_formula_units_Z   2
loop_
 _symmetry_equiv_pos_site_id
 _symmetry_equiv_pos_as_xyz
  1  'x, y, z'
loop_
 _atom_site_type_symbol
 _atom_site_label
 _atom_site_symmetry_multiplicity
 _atom_site_fract_x
 _atom_site_fract_y
 _atom_site_fract_z
 _atom_site_occupancy
  Pr  Pr0  1  0.25756144  0.50137031  0.85567721  1
  Pr  Pr1  1  0.72741182  0.55036947  0.12501061  1
  Pr  Pr2  1  0.76897105  0.97827536  0.88446638  1
  Pr  Pr3  1  0.24635526  0.98427188  0.14631565  1
  Mn  Mn4  1  0.28497804  0.57648179  0.59000303  1
  Mn  Mn5  1  0.69741966  0.44567478  0.38078794  1
  Mn  Mn6  1  0.99877340  0.96716011  0.00064770  1
  Mn  Mn7  1  0.79291736  0.97582761  0.59644586  1
  Mn  Mn8  1  0.20285198  0.90184310  0.41012350  1
  Mn  Mn9  1  0.50051481  0.48764999  0.00885959  1
  Sb  Sb10  1  0.88864674  0.01895112  0.44600567  1
  Sb  Sb11  1  0.11141411  0.02963329  0.55982983  1
  Sb  Sb12  1  0.02563717  0.50581480  0.80045434  1
  Sb  Sb13  1  0.97014322  0.51272551  0.18950389  1
  Sb  Sb14  1  0.39833999  0.50287537  0.47241378  1
  Sb  Sb15  1  0.61424890  0.44423296  0.57007721  1
  Sb  Sb16  1  0.53154833  0.00588873  0.81828947  1
  Sb  Sb17  1  0.46453380  0.03781748  0.17665242  1
  S  S18  1  0.93153072  0.02322328  0.78784063  1
  S  S19  1  0.05814454  0.00280677  0.19078893  1
  S  S20  1  0.41569770  0.02155993  0.97842987  1
  S  S21  1  0.57967232  0.00397540  0.01833376  1
  S  S22  1  0.17895610  0.99225862  0.89413129  1
  S  S23  1  0.82970861  0.02554173  0.11404050  1
  S  S24  1  0.08156917  0.45888404  0.65768020  1
  S  S25  1  0.89442765  0.49835094  0.33436790  1
  S  S26  1  0.73139842  0.94768963  0.30377141  1
  S  S27  1  0.26727344  0.94826546  0.69347258  1
  S  S28  1  0.15723469  0.41676982  0.43526614  1
  S  S29  1  0.82961033  0.44529557  0.54216155  1
  S  S30  1  0.44244767  0.53348621  0.81758305  1
  S  S31  1  0.56590537  0.50314965  0.20992523  1
  S  S32  1  0.92425162  0.50597182  0.98524605  1
  S  S33  1  0.08455801  0.52758333  0.00739710  1
  S  S34  1  0.67886684  0.47834301  0.90718941  1
  S  S35  1  0.33658378  0.45333810  0.11165717  1
  S  S36  1  0.60000078  0.97933376  0.66559023  1
  S  S37  1  0.41856545  0.99630064  0.37444102  1
  S  S38  1  0.24446340  0.46954286  0.29712706  1
  S  S39  1  0.77110183  0.45457114  0.69468274  1
  S  S40  1  0.66109127  0.98293022  0.44134651  1
  S  S41  1  0.32618648  0.06494077  0.55480837  1
