# generated using pymatgen
data_Pr2Mn3(SbS3)4
_symmetry_space_group_name_H-M   'P 1'
_cell_length_a   20.02960800
_cell_length_b   3.90410600
_cell_length_c   14.95364829
_cell_angle_alpha   90.00000000
_cell_angle_beta   126.33350609
_cell_angle_gamma   90.00000000
_symmetry_Int_Tables_number   1
_chemical_formula_structural   Pr2Mn3(SbS3)4
_chemical_formula_sum   'Pr4 Mn6 Sb8 S24'
_cell_volume   942.00006694
_cell_formula_units_Z   2
loop_
 _symmetry_equiv_pos_site_id
 _symmetry_equiv_pos_as_xyz
  1  'x, y, z'
loop_
 _atom_site_type_symbol
 _atom_site_label
 _atom_site_symmetry_multiplicity
 _atom_site_fract_x
 _atom_site_fract_y
 _atom_site_fract_z
 _atom_site_occupancy
  Pr  Pr0  1  0.25753215  0.50210422  0.85548437  1
  Pr  Pr1  1  0.72729794  0.55050808  0.12500567  1
  Pr  Pr2  1  0.76874602  0.97816401  0.88416685  1
  Pr  Pr3  1  0.24648586  0.98379908  0.14632967  1
  Mn  Mn4  1  0.28522466  0.57811683  0.59040542  1
  Mn  Mn5  1  0.69758797  0.44637531  0.38064678  1
  Mn  Mn6  1  0.99907839  0.96707441  0.00076816  1
  Mn  Mn7  1  0.79300666  0.97589712  0.59638808  1
  Mn  Mn8  1  0.20255025  0.90127004  0.41014486  1
  Mn  Mn9  1  0.50046880  0.48787754  0.00867098  1
  Sb  Sb10  1  0.88877388  0.01937291  0.44619009  1
  Sb  Sb11  1  0.11141615  0.02973231  0.55968362  1
  Sb  Sb12  1  0.02555506  0.50533943  0.80041533  1
  Sb  Sb13  1  0.97029011  0.51291415  0.18951879  1
  Sb  Sb14  1  0.39810799  0.50303972  0.47207976  1
  Sb  Sb15  1  0.61431774  0.44449610  0.57013287  1
  Sb  Sb16  1  0.53169933  0.00586371  0.81841420  1
  Sb  Sb17  1  0.46455688  0.03752487  0.17668793  1
  S  S18  1  0.93154902  0.02247021  0.78757876  1
  S  S19  1  0.05820515  0.00332510  0.19051357  1
  S  S20  1  0.41610894  0.02070407  0.97871392  1
  S  S21  1  0.57949655  0.00289381  0.01806887  1
  S  S22  1  0.17854613  0.99095157  0.89412745  1
  S  S23  1  0.82963169  0.02535578  0.11359330  1
  S  S24  1  0.08156917  0.45907873  0.65741470  1
  S  S25  1  0.89462976  0.49782174  0.33436853  1
  S  S26  1  0.73141716  0.94769820  0.30366603  1
  S  S27  1  0.26727542  0.94754494  0.69386149  1
  S  S28  1  0.15740799  0.41710227  0.43521730  1
  S  S29  1  0.82986017  0.44446347  0.54261409  1
  S  S30  1  0.44258364  0.53348213  0.81747448  1
  S  S31  1  0.56572083  0.50409856  0.21001434  1
  S  S32  1  0.92426352  0.50753285  0.98526663  1
  S  S33  1  0.08437759  0.52683182  0.00720043  1
  S  S34  1  0.67838506  0.47764582  0.90716559  1
  S  S35  1  0.33646488  0.45353689  0.11164258  1
  S  S36  1  0.59958170  0.98054577  0.66560155  1
  S  S37  1  0.41825558  0.99700293  0.37421406  1
  S  S38  1  0.24458618  0.47058087  0.29710355  1
  S  S39  1  0.77100693  0.45667999  0.69380019  1
  S  S40  1  0.66116456  0.98357266  0.44128433  1
  S  S41  1  0.32594449  0.06461024  0.55468107  1
