# generated using pymatgen
data_Pr2Mn3(SbS3)4
_symmetry_space_group_name_H-M   'P 1'
_cell_length_a   20.02960800
_cell_length_b   3.90410600
_cell_length_c   14.95364829
_cell_angle_alpha   90.00000000
_cell_angle_beta   126.33350609
_cell_angle_gamma   90.00000000
_symmetry_Int_Tables_number   1
_chemical_formula_structural   Pr2Mn3(SbS3)4
_chemical_formula_sum   'Pr4 Mn6 Sb8 S24'
_cell_volume   942.00006694
_cell_formula_units_Z   2
loop_
 _symmetry_equiv_pos_site_id
 _symmetry_equiv_pos_as_xyz
  1  'x, y, z'
loop_
 _atom_site_type_symbol
 _atom_site_label
 _atom_site_symmetry_multiplicity
 _atom_site_fract_x
 _atom_site_fract_y
 _atom_site_fract_z
 _atom_site_occupancy
  Pr  Pr0  1  0.25753489  0.50262352  0.85529954  1
  Pr  Pr1  1  0.72715518  0.55072566  0.12494077  1
  Pr  Pr2  1  0.76861411  0.97807470  0.88382927  1
  Pr  Pr3  1  0.24655667  0.98345387  0.14625621  1
  Mn  Mn4  1  0.28535043  0.57931530  0.59077258  1
  Mn  Mn5  1  0.69768433  0.44690771  0.38048849  1
  Mn  Mn6  1  0.99931149  0.96713258  0.00085863  1
  Mn  Mn7  1  0.79312339  0.97634431  0.59633136  1
  Mn  Mn8  1  0.20234919  0.90064901  0.41021065  1
  Mn  Mn9  1  0.50046770  0.48861509  0.00847346  1
  Sb  Sb10  1  0.88888728  0.01948269  0.44631864  1
  Sb  Sb11  1  0.11138630  0.02976719  0.55950479  1
  Sb  Sb12  1  0.02548104  0.50506958  0.80036272  1
  Sb  Sb13  1  0.97045676  0.51297821  0.18963447  1
  Sb  Sb14  1  0.39792192  0.50334210  0.47178710  1
  Sb  Sb15  1  0.61440360  0.44479196  0.57022465  1
  Sb  Sb16  1  0.53185494  0.00551868  0.81848214  1
  Sb  Sb17  1  0.46451629  0.03732660  0.17665996  1
  S  S18  1  0.93141096  0.02197434  0.78718145  1
  S  S19  1  0.05813415  0.00329210  0.19021953  1
  S  S20  1  0.41648333  0.01943602  0.97899890  1
  S  S21  1  0.57947913  0.00178367  0.01786977  1
  S  S22  1  0.17831602  0.98982724  0.89434637  1
  S  S23  1  0.82967888  0.02478638  0.11343959  1
  S  S24  1  0.08157219  0.45831802  0.65696755  1
  S  S25  1  0.89485478  0.49736475  0.33458229  1
  S  S26  1  0.73153464  0.94725000  0.30364574  1
  S  S27  1  0.26732225  0.94682373  0.69415337  1
  S  S28  1  0.15745006  0.41743742  0.43501085  1
  S  S29  1  0.83016355  0.44369779  0.54318682  1
  S  S30  1  0.44266636  0.53356632  0.81731600  1
  S  S31  1  0.56542636  0.50476085  0.21012508  1
  S  S32  1  0.92427793  0.50931263  0.98548002  1
  S  S33  1  0.08422901  0.52656017  0.00691451  1
  S  S34  1  0.67792525  0.47751189  0.90713967  1
  S  S35  1  0.33646458  0.45397116  0.11164156  1
  S  S36  1  0.59913076  0.98149590  0.66561672  1
  S  S37  1  0.41783498  0.99775020  0.37372975  1
  S  S38  1  0.24462402  0.47153731  0.29690969  1
  S  S39  1  0.77101266  0.45819861  0.69309731  1
  S  S40  1  0.66128391  0.98418100  0.44142606  1
  S  S41  1  0.32565045  0.06433452  0.55456186  1
