# generated using pymatgen
data_Pr2Mn3(SbS3)4
_symmetry_space_group_name_H-M   'P 1'
_cell_length_a   20.02960800
_cell_length_b   3.90410600
_cell_length_c   14.95364829
_cell_angle_alpha   90.00000000
_cell_angle_beta   126.33350609
_cell_angle_gamma   90.00000000
_symmetry_Int_Tables_number   1
_chemical_formula_structural   Pr2Mn3(SbS3)4
_chemical_formula_sum   'Pr4 Mn6 Sb8 S24'
_cell_volume   942.00006694
_cell_formula_units_Z   2
loop_
 _symmetry_equiv_pos_site_id
 _symmetry_equiv_pos_as_xyz
  1  'x, y, z'
loop_
 _atom_site_type_symbol
 _atom_site_label
 _atom_site_symmetry_multiplicity
 _atom_site_fract_x
 _atom_site_fract_y
 _atom_site_fract_z
 _atom_site_occupancy
  Pr  Pr0  1  0.25743184  0.50304122  0.85509940  1
  Pr  Pr1  1  0.72702314  0.55061518  0.12494128  1
  Pr  Pr2  1  0.76848008  0.97808288  0.88350339  1
  Pr  Pr3  1  0.24669026  0.98346002  0.14626206  1
  Mn  Mn4  1  0.28547259  0.57988964  0.59105663  1
  Mn  Mn5  1  0.69783838  0.44753037  0.38047790  1
  Mn  Mn6  1  0.99938086  0.96718840  0.00061237  1
  Mn  Mn7  1  0.79316035  0.97708674  0.59616284  1
  Mn  Mn8  1  0.20222185  0.90049169  0.41040749  1
  Mn  Mn9  1  0.50055576  0.48921700  0.00838119  1
  Sb  Sb10  1  0.88899731  0.01959810  0.44641230  1
  Sb  Sb11  1  0.11135260  0.02982727  0.55933388  1
  Sb  Sb12  1  0.02544066  0.50471017  0.80024423  1
  Sb  Sb13  1  0.97048195  0.51265736  0.18963355  1
  Sb  Sb14  1  0.39785220  0.50368659  0.47163532  1
  Sb  Sb15  1  0.61441459  0.44554104  0.57030782  1
  Sb  Sb16  1  0.53196091  0.00532294  0.81858692  1
  Sb  Sb17  1  0.46447715  0.03703847  0.17656319  1
  S  S18  1  0.93126566  0.02133250  0.78672690  1
  S  S19  1  0.05814903  0.00293596  0.18994342  1
  S  S20  1  0.41696104  0.01803866  0.97928937  1
  S  S21  1  0.57933661  0.00054775  0.01776485  1
  S  S22  1  0.17814556  0.98861591  0.89461912  1
  S  S23  1  0.82976580  0.02439063  0.11311105  1
  S  S24  1  0.08146056  0.45710652  0.65643833  1
  S  S25  1  0.89507632  0.49682854  0.33489326  1
  S  S26  1  0.73162714  0.94709744  0.30358012  1
  S  S27  1  0.26725551  0.94752391  0.69444181  1
  S  S28  1  0.15752594  0.41829455  0.43502170  1
  S  S29  1  0.83036992  0.44266606  0.54360313  1
  S  S30  1  0.44272074  0.53273370  0.81730929  1
  S  S31  1  0.56510113  0.50521241  0.21038113  1
  S  S32  1  0.92421230  0.51125567  0.98550798  1
  S  S33  1  0.08413742  0.52620752  0.00677003  1
  S  S34  1  0.67758948  0.47660766  0.90725382  1
  S  S35  1  0.33630204  0.45448061  0.11161323  1
  S  S36  1  0.59866239  0.98152996  0.66556679  1
  S  S37  1  0.41742720  0.99928462  0.37326543  1
  S  S38  1  0.24460121  0.47216821  0.29659806  1
  S  S39  1  0.77110210  0.45991916  0.69230607  1
  S  S40  1  0.66133394  0.98465169  0.44141913  1
  S  S41  1  0.32533611  0.06460598  0.55434861  1
