# generated using pymatgen
data_Pr2Mn3(SbS3)4
_symmetry_space_group_name_H-M   'P 1'
_cell_length_a   20.02960800
_cell_length_b   3.90410600
_cell_length_c   14.95364829
_cell_angle_alpha   90.00000000
_cell_angle_beta   126.33350609
_cell_angle_gamma   90.00000000
_symmetry_Int_Tables_number   1
_chemical_formula_structural   Pr2Mn3(SbS3)4
_chemical_formula_sum   'Pr4 Mn6 Sb8 S24'
_cell_volume   942.00006694
_cell_formula_units_Z   2
loop_
 _symmetry_equiv_pos_site_id
 _symmetry_equiv_pos_as_xyz
  1  'x, y, z'
loop_
 _atom_site_type_symbol
 _atom_site_label
 _atom_site_symmetry_multiplicity
 _atom_site_fract_x
 _atom_site_fract_y
 _atom_site_fract_z
 _atom_site_occupancy
  Pr  Pr0  1  0.25740740  0.50358458  0.85495871  1
  Pr  Pr1  1  0.72689780  0.55059127  0.12485423  1
  Pr  Pr2  1  0.76833136  0.97813602  0.88324448  1
  Pr  Pr3  1  0.24674281  0.98334524  0.14622120  1
  Mn  Mn4  1  0.28551835  0.57994751  0.59121351  1
  Mn  Mn5  1  0.69802122  0.44790782  0.38048331  1
  Mn  Mn6  1  0.99939090  0.96720193  0.00038082  1
  Mn  Mn7  1  0.79323948  0.97796557  0.59598565  1
  Mn  Mn8  1  0.20206155  0.90050253  0.41049263  1
  Mn  Mn9  1  0.50059213  0.48993752  0.00830681  1
  Sb  Sb10  1  0.88909577  0.01952636  0.44651207  1
  Sb  Sb11  1  0.11132108  0.02974283  0.55923341  1
  Sb  Sb12  1  0.02536284  0.50404063  0.80011736  1
  Sb  Sb13  1  0.97040376  0.51194405  0.18955355  1
  Sb  Sb14  1  0.39772604  0.50392156  0.47141704  1
  Sb  Sb15  1  0.61448337  0.44575329  0.57046654  1
  Sb  Sb16  1  0.53209743  0.00485654  0.81871684  1
  Sb  Sb17  1  0.46445541  0.03652994  0.17642239  1
  S  S18  1  0.93119221  0.02039541  0.78633904  1
  S  S19  1  0.05823440  0.00201591  0.18974058  1
  S  S20  1  0.41735907  0.01647072  0.97965185  1
  S  S21  1  0.57922637  0.99897598  0.01755052  1
  S  S22  1  0.17805439  0.98757385  0.89495209  1
  S  S23  1  0.82991679  0.02394229  0.11292095  1
  S  S24  1  0.08143324  0.45624296  0.65590871  1
  S  S25  1  0.89521186  0.49608934  0.33498415  1
  S  S26  1  0.73169187  0.94667928  0.30351809  1
  S  S27  1  0.26719690  0.94802835  0.69466384  1
  S  S28  1  0.15747872  0.41866918  0.43477674  1
  S  S29  1  0.83061063  0.44237061  0.54398194  1
  S  S30  1  0.44280354  0.53195600  0.81736290  1
  S  S31  1  0.56474643  0.50541264  0.21032605  1
  S  S32  1  0.92418836  0.51262368  0.98549191  1
  S  S33  1  0.08417266  0.52590839  0.00664410  1
  S  S34  1  0.67728207  0.47615805  0.90730059  1
  S  S35  1  0.33613225  0.45538727  0.11167156  1
  S  S36  1  0.59822808  0.98179432  0.66555940  1
  S  S37  1  0.41696439  0.00119836  0.37283506  1
  S  S38  1  0.24450427  0.47339885  0.29629119  1
  S  S39  1  0.77134192  0.46139932  0.69159821  1
  S  S40  1  0.66147999  0.98551364  0.44135552  1
  S  S41  1  0.32523092  0.06500139  0.55412675  1
