# generated using pymatgen
data_Pr2Mn3(SbS3)4
_symmetry_space_group_name_H-M   'P 1'
_cell_length_a   20.02960800
_cell_length_b   3.90410600
_cell_length_c   14.95364829
_cell_angle_alpha   90.00000000
_cell_angle_beta   126.33350609
_cell_angle_gamma   90.00000000
_symmetry_Int_Tables_number   1
_chemical_formula_structural   Pr2Mn3(SbS3)4
_chemical_formula_sum   'Pr4 Mn6 Sb8 S24'
_cell_volume   942.00006694
_cell_formula_units_Z   2
loop_
 _symmetry_equiv_pos_site_id
 _symmetry_equiv_pos_as_xyz
  1  'x, y, z'
loop_
 _atom_site_type_symbol
 _atom_site_label
 _atom_site_symmetry_multiplicity
 _atom_site_fract_x
 _atom_site_fract_y
 _atom_site_fract_z
 _atom_site_occupancy
  Pr  Pr0  1  0.25748260  0.50411367  0.85490590  1
  Pr  Pr1  1  0.72685184  0.55042250  0.12481802  1
  Pr  Pr2  1  0.76821136  0.97804292  0.88303533  1
  Pr  Pr3  1  0.24683608  0.98310604  0.14624869  1
  Mn  Mn4  1  0.28540729  0.58060723  0.59114574  1
  Mn  Mn5  1  0.69813646  0.44800525  0.38067390  1
  Mn  Mn6  1  0.99946948  0.96673975  0.00022466  1
  Mn  Mn7  1  0.79332796  0.97904454  0.59582759  1
  Mn  Mn8  1  0.20182594  0.90055016  0.41055266  1
  Mn  Mn9  1  0.50048817  0.49029237  0.00799472  1
  Sb  Sb10  1  0.88909221  0.01938763  0.44655217  1
  Sb  Sb11  1  0.11128028  0.02995895  0.55917602  1
  Sb  Sb12  1  0.02524855  0.50375589  0.79990334  1
  Sb  Sb13  1  0.97039922  0.51119846  0.18952765  1
  Sb  Sb14  1  0.39748614  0.50439269  0.47104173  1
  Sb  Sb15  1  0.61457756  0.44592258  0.57065489  1
  Sb  Sb16  1  0.53224091  0.00460227  0.81885853  1
  Sb  Sb17  1  0.46441094  0.03618570  0.17627796  1
  S  S18  1  0.93130821  0.01926938  0.78619715  1
  S  S19  1  0.05838966  0.00103881  0.18956852  1
  S  S20  1  0.41785628  0.01538585  0.98018804  1
  S  S21  1  0.57913536  0.99780579  0.01720278  1
  S  S22  1  0.17791935  0.98661176  0.89523342  1
  S  S23  1  0.83019932  0.02382561  0.11299273  1
  S  S24  1  0.08146973  0.45574241  0.65547037  1
  S  S25  1  0.89514231  0.49532291  0.33474458  1
  S  S26  1  0.73174814  0.94640121  0.30335980  1
  S  S27  1  0.26712251  0.94854698  0.69471050  1
  S  S28  1  0.15745557  0.41937477  0.43436276  1
  S  S29  1  0.83083575  0.44214724  0.54428011  1
  S  S30  1  0.44279630  0.53181231  0.81732108  1
  S  S31  1  0.56445418  0.50555833  0.21021123  1
  S  S32  1  0.92419157  0.51409373  0.98549097  1
  S  S33  1  0.08429742  0.52599538  0.00662384  1
  S  S34  1  0.67694129  0.47592081  0.90738426  1
  S  S35  1  0.33604539  0.45613825  0.11167172  1
  S  S36  1  0.59780344  0.98134906  0.66555677  1
  S  S37  1  0.41659592  0.00293258  0.37250921  1
  S  S38  1  0.24457037  0.47440449  0.29627208  1
  S  S39  1  0.77146723  0.46255663  0.69070801  1
  S  S40  1  0.66154285  0.98611950  0.44133788  1
  S  S41  1  0.32500039  0.06579367  0.55370503  1
