# generated using pymatgen
data_Pr2Mn3(SbS3)4
_symmetry_space_group_name_H-M   'P 1'
_cell_length_a   20.02960800
_cell_length_b   3.90410600
_cell_length_c   14.95364829
_cell_angle_alpha   90.00000000
_cell_angle_beta   126.33350609
_cell_angle_gamma   90.00000000
_symmetry_Int_Tables_number   1
_chemical_formula_structural   Pr2Mn3(SbS3)4
_chemical_formula_sum   'Pr4 Mn6 Sb8 S24'
_cell_volume   942.00006694
_cell_formula_units_Z   2
loop_
 _symmetry_equiv_pos_site_id
 _symmetry_equiv_pos_as_xyz
  1  'x, y, z'
loop_
 _atom_site_type_symbol
 _atom_site_label
 _atom_site_symmetry_multiplicity
 _atom_site_fract_x
 _atom_site_fract_y
 _atom_site_fract_z
 _atom_site_occupancy
  Pr  Pr0  1  0.25753630  0.50429157  0.85492906  1
  Pr  Pr1  1  0.72678872  0.54994453  0.12485409  1
  Pr  Pr2  1  0.76814148  0.97788556  0.88283606  1
  Pr  Pr3  1  0.24687384  0.98266839  0.14620998  1
  Mn  Mn4  1  0.28538505  0.58107110  0.59105892  1
  Mn  Mn5  1  0.69816248  0.44796402  0.38077503  1
  Mn  Mn6  1  0.99952860  0.96609548  0.00019258  1
  Mn  Mn7  1  0.79330243  0.98049894  0.59559105  1
  Mn  Mn8  1  0.20167753  0.90063125  0.41063733  1
  Mn  Mn9  1  0.50043282  0.49077426  0.00776963  1
  Sb  Sb10  1  0.88916315  0.01940152  0.44663070  1
  Sb  Sb11  1  0.11119853  0.02973371  0.55915690  1
  Sb  Sb12  1  0.02521171  0.50353098  0.79978463  1
  Sb  Sb13  1  0.97037551  0.51047325  0.18950994  1
  Sb  Sb14  1  0.39727320  0.50478871  0.47059777  1
  Sb  Sb15  1  0.61462736  0.44628247  0.57071767  1
  Sb  Sb16  1  0.53233588  0.00439207  0.81893482  1
  Sb  Sb17  1  0.46439205  0.03625020  0.17617569  1
  S  S18  1  0.93134235  0.01838497  0.78595042  1
  S  S19  1  0.05860441  0.99985451  0.18951444  1
  S  S20  1  0.41824895  0.01430569  0.98071270  1
  S  S21  1  0.57920641  0.99726932  0.01714433  1
  S  S22  1  0.17761949  0.98593688  0.89545379  1
  S  S23  1  0.83046697  0.02342559  0.11312178  1
  S  S24  1  0.08154475  0.45498896  0.65527094  1
  S  S25  1  0.89507283  0.49435484  0.33460227  1
  S  S26  1  0.73179766  0.94540347  0.30318601  1
  S  S27  1  0.26722584  0.94875353  0.69478615  1
  S  S28  1  0.15744293  0.41975654  0.43391492  1
  S  S29  1  0.83114623  0.44201098  0.54474478  1
  S  S30  1  0.44312651  0.53167234  0.81765862  1
  S  S31  1  0.56414549  0.50550896  0.20999646  1
  S  S32  1  0.92412628  0.51570530  0.98551315  1
  S  S33  1  0.08461027  0.52616275  0.00681753  1
  S  S34  1  0.67655379  0.47583187  0.90731580  1
  S  S35  1  0.33593588  0.45633282  0.11159253  1
  S  S36  1  0.59716324  0.98017459  0.66540717  1
  S  S37  1  0.41624513  0.00471432  0.37217517  1
  S  S38  1  0.24449819  0.47593739  0.29625519  1
  S  S39  1  0.77157535  0.46360346  0.68985057  1
  S  S40  1  0.66153574  0.98643455  0.44117896  1
  S  S41  1  0.32474821  0.06615558  0.55324364  1
