# generated using pymatgen
data_Pr2Mn3(SbS3)4
_symmetry_space_group_name_H-M   'P 1'
_cell_length_a   20.02960800
_cell_length_b   3.90410600
_cell_length_c   14.95364829
_cell_angle_alpha   90.00000000
_cell_angle_beta   126.33350609
_cell_angle_gamma   90.00000000
_symmetry_Int_Tables_number   1
_chemical_formula_structural   Pr2Mn3(SbS3)4
_chemical_formula_sum   'Pr4 Mn6 Sb8 S24'
_cell_volume   942.00006694
_cell_formula_units_Z   2
loop_
 _symmetry_equiv_pos_site_id
 _symmetry_equiv_pos_as_xyz
  1  'x, y, z'
loop_
 _atom_site_type_symbol
 _atom_site_label
 _atom_site_symmetry_multiplicity
 _atom_site_fract_x
 _atom_site_fract_y
 _atom_site_fract_z
 _atom_site_occupancy
  Pr  Pr0  1  0.25750399  0.50449280  0.85484277  1
  Pr  Pr1  1  0.72667439  0.54956093  0.12493737  1
  Pr  Pr2  1  0.76809323  0.97786851  0.88281755  1
  Pr  Pr3  1  0.24691810  0.98222788  0.14621839  1
  Mn  Mn4  1  0.28531653  0.58120551  0.59108052  1
  Mn  Mn5  1  0.69829307  0.44816022  0.38096610  1
  Mn  Mn6  1  0.99949926  0.96532795  0.00015054  1
  Mn  Mn7  1  0.79331639  0.98184199  0.59541753  1
  Mn  Mn8  1  0.20145790  0.90082479  0.41067013  1
  Mn  Mn9  1  0.50038273  0.49083125  0.00758077  1
  Sb  Sb10  1  0.88927393  0.01951522  0.44669778  1
  Sb  Sb11  1  0.11113885  0.02956143  0.55922480  1
  Sb  Sb12  1  0.02517605  0.50333596  0.79965743  1
  Sb  Sb13  1  0.97034540  0.50997379  0.18945667  1
  Sb  Sb14  1  0.39710830  0.50504039  0.47013040  1
  Sb  Sb15  1  0.61469967  0.44646567  0.57077111  1
  Sb  Sb16  1  0.53244833  0.00421475  0.81899344  1
  Sb  Sb17  1  0.46439818  0.03619554  0.17608431  1
  S  S18  1  0.93129658  0.01779692  0.78558876  1
  S  S19  1  0.05890005  0.99847740  0.18955115  1
  S  S20  1  0.41857384  0.01335210  0.98111108  1
  S  S21  1  0.57923393  0.99665214  0.01714936  1
  S  S22  1  0.17732643  0.98520084  0.89582435  1
  S  S23  1  0.83061841  0.02358045  0.11320298  1
  S  S24  1  0.08157562  0.45419831  0.65517988  1
  S  S25  1  0.89506500  0.49300185  0.33451793  1
  S  S26  1  0.73187371  0.94444910  0.30300935  1
  S  S27  1  0.26727066  0.94895078  0.69493593  1
  S  S28  1  0.15749199  0.41980657  0.43354885  1
  S  S29  1  0.83147959  0.44247571  0.54526272  1
  S  S30  1  0.44331788  0.53067968  0.81782336  1
  S  S31  1  0.56385494  0.50535911  0.20973618  1
  S  S32  1  0.92398888  0.51741052  0.98547221  1
  S  S33  1  0.08490645  0.52646902  0.00714787  1
  S  S34  1  0.67630613  0.47538506  0.90730943  1
  S  S35  1  0.33576157  0.45613490  0.11135616  1
  S  S36  1  0.59647742  0.97980917  0.66515695  1
  S  S37  1  0.41593203  0.00582821  0.37194002  1
  S  S38  1  0.24453462  0.47765252  0.29642339  1
  S  S39  1  0.77153831  0.46469066  0.68902811  1
  S  S40  1  0.66171202  0.98610412  0.44143616  1
  S  S41  1  0.32458197  0.06673740  0.55293322  1
