# generated using pymatgen
data_Pr2Mn3(SbS3)4
_symmetry_space_group_name_H-M   'P 1'
_cell_length_a   20.02960800
_cell_length_b   3.90410600
_cell_length_c   14.95364829
_cell_angle_alpha   90.00000000
_cell_angle_beta   126.33350609
_cell_angle_gamma   90.00000000
_symmetry_Int_Tables_number   1
_chemical_formula_structural   Pr2Mn3(SbS3)4
_chemical_formula_sum   'Pr4 Mn6 Sb8 S24'
_cell_volume   942.00006694
_cell_formula_units_Z   2
loop_
 _symmetry_equiv_pos_site_id
 _symmetry_equiv_pos_as_xyz
  1  'x, y, z'
loop_
 _atom_site_type_symbol
 _atom_site_label
 _atom_site_symmetry_multiplicity
 _atom_site_fract_x
 _atom_site_fract_y
 _atom_site_fract_z
 _atom_site_occupancy
  Pr  Pr0  1  0.25739844  0.50432358  0.85474092  1
  Pr  Pr1  1  0.72648885  0.54891771  0.12497739  1
  Pr  Pr2  1  0.76800302  0.97818958  0.88281685  1
  Pr  Pr3  1  0.24681833  0.98175945  0.14605265  1
  Mn  Mn4  1  0.28525342  0.58151570  0.59097222  1
  Mn  Mn5  1  0.69834207  0.44874288  0.38107095  1
  Mn  Mn6  1  0.99930875  0.96465968  0.99983542  1
  Mn  Mn7  1  0.79331450  0.98305242  0.59526938  1
  Mn  Mn8  1  0.20122807  0.90146682  0.41060826  1
  Mn  Mn9  1  0.50042641  0.49075815  0.00744197  1
  Sb  Sb10  1  0.88946830  0.01964546  0.44686314  1
  Sb  Sb11  1  0.11104615  0.02988023  0.55919973  1
  Sb  Sb12  1  0.02515415  0.50328221  0.79947357  1
  Sb  Sb13  1  0.97037172  0.50956103  0.18942867  1
  Sb  Sb14  1  0.39695177  0.50500841  0.46962379  1
  Sb  Sb15  1  0.61470524  0.44698101  0.57079617  1
  Sb  Sb16  1  0.53253142  0.00393034  0.81902313  1
  Sb  Sb17  1  0.46437958  0.03602611  0.17600515  1
  S  S18  1  0.93138578  0.01710074  0.78539223  1
  S  S19  1  0.05910556  0.99717142  0.18941037  1
  S  S20  1  0.41891391  0.01271580  0.98137626  1
  S  S21  1  0.57943944  0.99601083  0.01729077  1
  S  S22  1  0.17699782  0.98467381  0.89598018  1
  S  S23  1  0.83074942  0.02368673  0.11328096  1
  S  S24  1  0.08147842  0.45371825  0.65493223  1
  S  S25  1  0.89499601  0.49124927  0.33432141  1
  S  S26  1  0.73196470  0.94374378  0.30310994  1
  S  S27  1  0.26728972  0.94934302  0.69511946  1
  S  S28  1  0.15751014  0.41968009  0.43309816  1
  S  S29  1  0.83162197  0.44337387  0.54542568  1
  S  S30  1  0.44363686  0.52888146  0.81804913  1
  S  S31  1  0.56365488  0.50517271  0.20965930  1
  S  S32  1  0.92399560  0.51810358  0.98567036  1
  S  S33  1  0.08514889  0.52653579  0.00740441  1
  S  S34  1  0.67596647  0.47460912  0.90715187  1
  S  S35  1  0.33556717  0.45565699  0.11113031  1
  S  S36  1  0.59581582  0.97958622  0.66509697  1
  S  S37  1  0.41574012  0.00736869  0.37188132  1
  S  S38  1  0.24453718  0.47917208  0.29655820  1
  S  S39  1  0.77151279  0.46617486  0.68834789  1
  S  S40  1  0.66192938  0.98582655  0.44179750  1
  S  S41  1  0.32428627  0.06692192  0.55246222  1
