# generated using pymatgen
data_Pr2Mn3(SbS3)4
_symmetry_space_group_name_H-M   'P 1'
_cell_length_a   20.02960800
_cell_length_b   3.90410600
_cell_length_c   14.95364829
_cell_angle_alpha   90.00000000
_cell_angle_beta   126.33350609
_cell_angle_gamma   90.00000000
_symmetry_Int_Tables_number   1
_chemical_formula_structural   Pr2Mn3(SbS3)4
_chemical_formula_sum   'Pr4 Mn6 Sb8 S24'
_cell_volume   942.00006694
_cell_formula_units_Z   2
loop_
 _symmetry_equiv_pos_site_id
 _symmetry_equiv_pos_as_xyz
  1  'x, y, z'
loop_
 _atom_site_type_symbol
 _atom_site_label
 _atom_site_symmetry_multiplicity
 _atom_site_fract_x
 _atom_site_fract_y
 _atom_site_fract_z
 _atom_site_occupancy
  Pr  Pr0  1  0.25724914  0.50409324  0.85458681  1
  Pr  Pr1  1  0.72639826  0.54820936  0.12511193  1
  Pr  Pr2  1  0.76786393  0.97865279  0.88274779  1
  Pr  Pr3  1  0.24676457  0.98174287  0.14588597  1
  Mn  Mn4  1  0.28512300  0.58210624  0.59073981  1
  Mn  Mn5  1  0.69838184  0.44989333  0.38118067  1
  Mn  Mn6  1  0.99927875  0.96433760  0.99964238  1
  Mn  Mn7  1  0.79335259  0.98406401  0.59523667  1
  Mn  Mn8  1  0.20109443  0.90197677  0.41053932  1
  Mn  Mn9  1  0.50044303  0.49089169  0.00736917  1
  Sb  Sb10  1  0.88973090  0.01975903  0.44708241  1
  Sb  Sb11  1  0.11095437  0.02981562  0.55915861  1
  Sb  Sb12  1  0.02508890  0.50332110  0.79926262  1
  Sb  Sb13  1  0.97038363  0.50919916  0.18939570  1
  Sb  Sb14  1  0.39682192  0.50515704  0.46914168  1
  Sb  Sb15  1  0.61470879  0.44723476  0.57084749  1
  Sb  Sb16  1  0.53262176  0.00379942  0.81905019  1
  Sb  Sb17  1  0.46425949  0.03587699  0.17591767  1
  S  S18  1  0.93127444  0.01675224  0.78513841  1
  S  S19  1  0.05916357  0.99655245  0.18916931  1
  S  S20  1  0.41910408  0.01257528  0.98160880  1
  S  S21  1  0.57970132  0.99519418  0.01751760  1
  S  S22  1  0.17674879  0.98472986  0.89619744  1
  S  S23  1  0.83090334  0.02382695  0.11362981  1
  S  S24  1  0.08150157  0.45372263  0.65472213  1
  S  S25  1  0.89497397  0.48946515  0.33413679  1
  S  S26  1  0.73203373  0.94367614  0.30319187  1
  S  S27  1  0.26735056  0.94943113  0.69540738  1
  S  S28  1  0.15757528  0.41946783  0.43268440  1
  S  S29  1  0.83169632  0.44392687  0.54536926  1
  S  S30  1  0.44379933  0.52761210  0.81805159  1
  S  S31  1  0.56345283  0.50469394  0.20959388  1
  S  S32  1  0.92404142  0.51883168  0.98580734  1
  S  S33  1  0.08538361  0.52655342  0.00774148  1
  S  S34  1  0.67569522  0.47343486  0.90706788  1
  S  S35  1  0.33551039  0.45585859  0.11105087  1
  S  S36  1  0.59523785  0.97873036  0.66497737  1
  S  S37  1  0.41562637  0.00852247  0.37184159  1
  S  S38  1  0.24468279  0.48066393  0.29682235  1
  S  S39  1  0.77165722  0.46734119  0.68790783  1
  S  S40  1  0.66213480  0.98584978  0.44212653  1
  S  S41  1  0.32390984  0.06683717  0.55199644  1
