# generated using pymatgen
data_Pr2Mn3(SbS3)4
_symmetry_space_group_name_H-M   'P 1'
_cell_length_a   20.02960800
_cell_length_b   3.90410600
_cell_length_c   14.95364829
_cell_angle_alpha   90.00000000
_cell_angle_beta   126.33350609
_cell_angle_gamma   90.00000000
_symmetry_Int_Tables_number   1
_chemical_formula_structural   Pr2Mn3(SbS3)4
_chemical_formula_sum   'Pr4 Mn6 Sb8 S24'
_cell_volume   942.00006694
_cell_formula_units_Z   2
loop_
 _symmetry_equiv_pos_site_id
 _symmetry_equiv_pos_as_xyz
  1  'x, y, z'
loop_
 _atom_site_type_symbol
 _atom_site_label
 _atom_site_symmetry_multiplicity
 _atom_site_fract_x
 _atom_site_fract_y
 _atom_site_fract_z
 _atom_site_occupancy
  Pr  Pr0  1  0.26152545  0.49517767  0.86580299  1
  Pr  Pr1  1  0.74004650  0.50263811  0.13723315  1
  Pr  Pr2  1  0.76043959  0.00706721  0.86165519  1
  Pr  Pr3  1  0.23998808  0.99227927  0.13839856  1
  Mn  Mn4  1  0.29939613  0.50509171  0.62035769  1
  Mn  Mn5  1  0.69747462  0.49800870  0.37984082  1
  Mn  Mn6  1  0.00129684  0.00023957  0.00152470  1
  Mn  Mn7  1  0.80288000  0.99414245  0.61917932  1
  Mn  Mn8  1  0.19921804  0.99044404  0.37907574  1
  Mn  Mn9  1  0.50014273  0.48551107  0.00092696  1
  Sb  Sb10  1  0.89498886  0.00712690  0.45430099  1
  Sb  Sb11  1  0.10667937  0.99201603  0.54996714  1
  Sb  Sb12  1  0.03783485  0.49086632  0.81416924  1
  Sb  Sb13  1  0.96255822  0.49955870  0.18813180  1
  Sb  Sb14  1  0.39435335  0.49034773  0.45530415  1
  Sb  Sb15  1  0.60601504  0.49703009  0.54825569  1
  Sb  Sb16  1  0.53799393  0.99961756  0.81402099  1
  Sb  Sb17  1  0.46296931  0.99879494  0.18467727  1
  S  S18  1  0.93876912  0.99132674  0.79743466  1
  S  S19  1  0.05755203  0.99224516  0.19356114  1
  S  S20  1  0.40287424  0.97977920  0.98008253  1
  S  S21  1  0.59752321  0.99481146  0.01789045  1
  S  S22  1  0.16885751  0.98680427  0.90057507  1
  S  S23  1  0.82810226  0.00311557  0.10463557  1
  S  S24  1  0.08859103  0.49103355  0.64790316  1
  S  S25  1  0.91035643  0.48306401  0.35043303  1
  S  S26  1  0.74427794  0.97760245  0.29624019  1
  S  S27  1  0.25573815  0.00930321  0.70047473  1
  S  S28  1  0.15930056  0.49358120  0.44802082  1
  S  S29  1  0.83523880  0.49570422  0.54694421  1
  S  S30  1  0.43859433  0.49686891  0.79797702  1
  S  S31  1  0.56124388  0.49076116  0.19912719  1
  S  S32  1  0.90242074  0.48130119  0.97855520  1
  S  S33  1  0.09371364  0.48837510  0.01917632  1
  S  S34  1  0.66540137  0.51382291  0.89560950  1
  S  S35  1  0.33412235  0.50449677  0.10702182  1
  S  S36  1  0.59020620  0.01611124  0.64832011  1
  S  S37  1  0.41371832  0.99043610  0.35756230  1
  S  S38  1  0.24301863  0.47877454  0.29249978  1
  S  S39  1  0.76333679  0.50159981  0.70622941  1
  S  S40  1  0.66035660  0.00102626  0.45777636  1
  S  S41  1  0.33965526  0.99065430  0.54406846  1
