# generated using pymatgen
data_Pr2Mn3(SbS3)4
_symmetry_space_group_name_H-M   'P 1'
_cell_length_a   20.02960800
_cell_length_b   3.90410600
_cell_length_c   14.95364829
_cell_angle_alpha   90.00000000
_cell_angle_beta   126.33350609
_cell_angle_gamma   90.00000000
_symmetry_Int_Tables_number   1
_chemical_formula_structural   Pr2Mn3(SbS3)4
_chemical_formula_sum   'Pr4 Mn6 Sb8 S24'
_cell_volume   942.00006694
_cell_formula_units_Z   2
loop_
 _symmetry_equiv_pos_site_id
 _symmetry_equiv_pos_as_xyz
  1  'x, y, z'
loop_
 _atom_site_type_symbol
 _atom_site_label
 _atom_site_symmetry_multiplicity
 _atom_site_fract_x
 _atom_site_fract_y
 _atom_site_fract_z
 _atom_site_occupancy
  Pr  Pr0  1  0.26997355  0.49568532  0.86725159  1
  Pr  Pr1  1  0.73397513  0.51348324  0.13285920  1
  Pr  Pr2  1  0.76381125  0.02491086  0.86280300  1
  Pr  Pr3  1  0.23346142  0.99614515  0.13107874  1
  Mn  Mn4  1  0.29587019  0.47669085  0.59920697  1
  Mn  Mn5  1  0.68642567  0.46032490  0.36386041  1
  Mn  Mn6  1  0.00523919  0.98866329  0.01106641  1
  Mn  Mn7  1  0.79760995  0.00164441  0.61798202  1
  Mn  Mn8  1  0.19655041  0.97810739  0.36872057  1
  Mn  Mn9  1  0.48731081  0.46780994  0.98589681  1
  Sb  Sb10  1  0.88846971  0.98745200  0.45142833  1
  Sb  Sb11  1  0.10898098  0.97946481  0.54474408  1
  Sb  Sb12  1  0.03533151  0.52641030  0.81952197  1
  Sb  Sb13  1  0.96690291  0.49844007  0.19020849  1
  Sb  Sb14  1  0.39249332  0.50053917  0.44801286  1
  Sb  Sb15  1  0.60556532  0.47391702  0.54731407  1
  Sb  Sb16  1  0.53397147  0.98253953  0.80893273  1
  Sb  Sb17  1  0.46531064  0.01593004  0.19052804  1
  S  S18  1  0.93592502  0.02463374  0.80777555  1
  S  S19  1  0.06488371  0.99226181  0.19863115  1
  S  S20  1  0.42029369  0.95462247  0.99102498  1
  S  S21  1  0.58428008  0.02560723  0.01467714  1
  S  S22  1  0.16941859  0.05549196  0.89990142  1
  S  S23  1  0.82711186  0.04170774  0.10219585  1
  S  S24  1  0.09005103  0.50460783  0.64600176  1
  S  S25  1  0.91649799  0.47930817  0.35881441  1
  S  S26  1  0.73858643  0.98681253  0.30295998  1
  S  S27  1  0.26099793  0.00305860  0.71264462  1
  S  S28  1  0.16569530  0.51757363  0.43316113  1
  S  S29  1  0.81711348  0.48686216  0.54679367  1
  S  S30  1  0.43130763  0.47727813  0.79636213  1
  S  S31  1  0.55455128  0.52314090  0.18028682  1
  S  S32  1  0.91820924  0.49978269  0.98876294  1
  S  S33  1  0.09229253  0.48883095  0.03224158  1
  S  S34  1  0.66348117  0.55275231  0.89394484  1
  S  S35  1  0.32573070  0.49067007  0.09227198  1
  S  S36  1  0.59354071  0.99777396  0.65132148  1
  S  S37  1  0.39980131  0.98668169  0.34360376  1
  S  S38  1  0.24243816  0.46401824  0.31556994  1
  S  S39  1  0.75981407  0.52465505  0.68802073  1
  S  S40  1  0.66413875  0.00232858  0.44831624  1
  S  S41  1  0.33198398  0.97911339  0.55584896  1
