# generated using pymatgen
data_Pr2Mn3(SbS3)4
_symmetry_space_group_name_H-M   'P 1'
_cell_length_a   20.02960800
_cell_length_b   3.90410600
_cell_length_c   14.95364829
_cell_angle_alpha   90.00000000
_cell_angle_beta   126.33350609
_cell_angle_gamma   90.00000000
_symmetry_Int_Tables_number   1
_chemical_formula_structural   Pr2Mn3(SbS3)4
_chemical_formula_sum   'Pr4 Mn6 Sb8 S24'
_cell_volume   942.00006694
_cell_formula_units_Z   2
loop_
 _symmetry_equiv_pos_site_id
 _symmetry_equiv_pos_as_xyz
  1  'x, y, z'
loop_
 _atom_site_type_symbol
 _atom_site_label
 _atom_site_symmetry_multiplicity
 _atom_site_fract_x
 _atom_site_fract_y
 _atom_site_fract_z
 _atom_site_occupancy
  Pr  Pr0  1  0.25704707  0.50398648  0.85439363  1
  Pr  Pr1  1  0.72626902  0.54773925  0.12522276  1
  Pr  Pr2  1  0.76771316  0.97892039  0.88267841  1
  Pr  Pr3  1  0.24667350  0.98162405  0.14570589  1
  Mn  Mn4  1  0.28500779  0.58203124  0.59046937  1
  Mn  Mn5  1  0.69829768  0.45068684  0.38115886  1
  Mn  Mn6  1  0.99925936  0.96432853  0.99951230  1
  Mn  Mn7  1  0.79336317  0.98469980  0.59521107  1
  Mn  Mn8  1  0.20108572  0.90233752  0.41072465  1
  Mn  Mn9  1  0.50046136  0.49097134  0.00719053  1
  Sb  Sb10  1  0.89004157  0.01966781  0.44734153  1
  Sb  Sb11  1  0.11087084  0.02963776  0.55920552  1
  Sb  Sb12  1  0.02503032  0.50343259  0.79913716  1
  Sb  Sb13  1  0.97037456  0.50869744  0.18925449  1
  Sb  Sb14  1  0.39682534  0.50505421  0.46883271  1
  Sb  Sb15  1  0.61463422  0.44752563  0.57083519  1
  Sb  Sb16  1  0.53267899  0.00327494  0.81903122  1
  Sb  Sb17  1  0.46418312  0.03552512  0.17583638  1
  S  S18  1  0.93092533  0.01647675  0.78479721  1
  S  S19  1  0.05914431  0.99584429  0.18896036  1
  S  S20  1  0.41923623  0.01160673  0.98165315  1
  S  S21  1  0.58003227  0.99474499  0.01803698  1
  S  S22  1  0.17652255  0.98476253  0.89652401  1
  S  S23  1  0.83082771  0.02424550  0.11365048  1
  S  S24  1  0.08172596  0.45412650  0.65450504  1
  S  S25  1  0.89487259  0.48792456  0.33391253  1
  S  S26  1  0.73210346  0.94424869  0.30320333  1
  S  S27  1  0.26755001  0.94916419  0.69568121  1
  S  S28  1  0.15745921  0.41885439  0.43209311  1
  S  S29  1  0.83175351  0.44398566  0.54537195  1
  S  S30  1  0.44385028  0.52613483  0.81807319  1
  S  S31  1  0.56328361  0.50386773  0.20950787  1
  S  S32  1  0.92406726  0.51933182  0.98591676  1
  S  S33  1  0.08559035  0.52684406  0.00830662  1
  S  S34  1  0.67537347  0.47231213  0.90699152  1
  S  S35  1  0.33547460  0.45565437  0.11098733  1
  S  S36  1  0.59487021  0.97731790  0.66501605  1
  S  S37  1  0.41553996  0.00978076  0.37179174  1
  S  S38  1  0.24487003  0.48249973  0.29707724  1
  S  S39  1  0.77199179  0.46753156  0.68751719  1
  S  S40  1  0.66242210  0.98637862  0.44240392  1
  S  S41  1  0.32354146  0.06665827  0.55150536  1
