# generated using pymatgen
data_Pr2Mn3(SbS3)4
_symmetry_space_group_name_H-M   'P 1'
_cell_length_a   20.02960800
_cell_length_b   3.90410600
_cell_length_c   14.95364829
_cell_angle_alpha   90.00000000
_cell_angle_beta   126.33350609
_cell_angle_gamma   90.00000000
_symmetry_Int_Tables_number   1
_chemical_formula_structural   Pr2Mn3(SbS3)4
_chemical_formula_sum   'Pr4 Mn6 Sb8 S24'
_cell_volume   942.00006694
_cell_formula_units_Z   2
loop_
 _symmetry_equiv_pos_site_id
 _symmetry_equiv_pos_as_xyz
  1  'x, y, z'
loop_
 _atom_site_type_symbol
 _atom_site_label
 _atom_site_symmetry_multiplicity
 _atom_site_fract_x
 _atom_site_fract_y
 _atom_site_fract_z
 _atom_site_occupancy
  Pr  Pr0  1  0.25690564  0.50399363  0.85426396  1
  Pr  Pr1  1  0.72608977  0.54727777  0.12532295  1
  Pr  Pr2  1  0.76759464  0.97899975  0.88260941  1
  Pr  Pr3  1  0.24665651  0.98146909  0.14556976  1
  Mn  Mn4  1  0.28478352  0.58176198  0.59007270  1
  Mn  Mn5  1  0.69823980  0.45167657  0.38121161  1
  Mn  Mn6  1  0.99919250  0.96437934  0.99925737  1
  Mn  Mn7  1  0.79342175  0.98566950  0.59521734  1
  Mn  Mn8  1  0.20126161  0.90276966  0.41115299  1
  Mn  Mn9  1  0.50062906  0.49088824  0.00715109  1
  Sb  Sb10  1  0.89031460  0.01966837  0.44756724  1
  Sb  Sb11  1  0.11082657  0.02946428  0.55928012  1
  Sb  Sb12  1  0.02508630  0.50330648  0.79917369  1
  Sb  Sb13  1  0.97036432  0.50824933  0.18907282  1
  Sb  Sb14  1  0.39678538  0.50482971  0.46852086  1
  Sb  Sb15  1  0.61454896  0.44786647  0.57072272  1
  Sb  Sb16  1  0.53270064  0.00284449  0.81906331  1
  Sb  Sb17  1  0.46410656  0.03491082  0.17573456  1
  S  S18  1  0.93053160  0.01623358  0.78435859  1
  S  S19  1  0.05890069  0.99557251  0.18876594  1
  S  S20  1  0.41922953  0.01086474  0.98155942  1
  S  S21  1  0.58031591  0.99413558  0.01843686  1
  S  S22  1  0.17626058  0.98530954  0.89673451  1
  S  S23  1  0.83080958  0.02475781  0.11379889  1
  S  S24  1  0.08179325  0.45413353  0.65435552  1
  S  S25  1  0.89473248  0.48606185  0.33377359  1
  S  S26  1  0.73222492  0.94607125  0.30338232  1
  S  S27  1  0.26774214  0.94896686  0.69582357  1
  S  S28  1  0.15744760  0.41779527  0.43157987  1
  S  S29  1  0.83199932  0.44345156  0.54552684  1
  S  S30  1  0.44381401  0.52476096  0.81805325  1
  S  S31  1  0.56324831  0.50326851  0.20940616  1
  S  S32  1  0.92396824  0.51935744  0.98598375  1
  S  S33  1  0.08576020  0.52675104  0.00882919  1
  S  S34  1  0.67516185  0.47174995  0.90698516  1
  S  S35  1  0.33549739  0.45574383  0.11087394  1
  S  S36  1  0.59450929  0.97675335  0.66513435  1
  S  S37  1  0.41540226  0.01073147  0.37197745  1
  S  S38  1  0.24504062  0.48388633  0.29726087  1
  S  S39  1  0.77225350  0.46754937  0.68701833  1
  S  S40  1  0.66265970  0.98715760  0.44280882  1
  S  S41  1  0.32324498  0.06644961  0.55112768  1
