# generated using pymatgen
data_Pr2Mn3(SbS3)4
_symmetry_space_group_name_H-M   'P 1'
_cell_length_a   20.02960800
_cell_length_b   3.90410600
_cell_length_c   14.95364829
_cell_angle_alpha   90.00000000
_cell_angle_beta   126.33350609
_cell_angle_gamma   90.00000000
_symmetry_Int_Tables_number   1
_chemical_formula_structural   Pr2Mn3(SbS3)4
_chemical_formula_sum   'Pr4 Mn6 Sb8 S24'
_cell_volume   942.00006694
_cell_formula_units_Z   2
loop_
 _symmetry_equiv_pos_site_id
 _symmetry_equiv_pos_as_xyz
  1  'x, y, z'
loop_
 _atom_site_type_symbol
 _atom_site_label
 _atom_site_symmetry_multiplicity
 _atom_site_fract_x
 _atom_site_fract_y
 _atom_site_fract_z
 _atom_site_occupancy
  Pr  Pr0  1  0.25686992  0.50396137  0.85424222  1
  Pr  Pr1  1  0.72593495  0.54715865  0.12547756  1
  Pr  Pr2  1  0.76749991  0.97920372  0.88258450  1
  Pr  Pr3  1  0.24670057  0.98099635  0.14551203  1
  Mn  Mn4  1  0.28469229  0.58209372  0.58972501  1
  Mn  Mn5  1  0.69819389  0.45238907  0.38132621  1
  Mn  Mn6  1  0.99911345  0.96470729  0.99918576  1
  Mn  Mn7  1  0.79350150  0.98640195  0.59529759  1
  Mn  Mn8  1  0.20136606  0.90323986  0.41153469  1
  Mn  Mn9  1  0.50072658  0.49056766  0.00691485  1
  Sb  Sb10  1  0.89053968  0.01945941  0.44781131  1
  Sb  Sb11  1  0.11080302  0.02904246  0.55938117  1
  Sb  Sb12  1  0.02508493  0.50317728  0.79909260  1
  Sb  Sb13  1  0.97031424  0.50818957  0.18892548  1
  Sb  Sb14  1  0.39672753  0.50463670  0.46815424  1
  Sb  Sb15  1  0.61454698  0.44779474  0.57066460  1
  Sb  Sb16  1  0.53275705  0.00271843  0.81911809  1
  Sb  Sb17  1  0.46401288  0.03444847  0.17552667  1
  S  S18  1  0.93007084  0.01582004  0.78383040  1
  S  S19  1  0.05856703  0.99505312  0.18855784  1
  S  S20  1  0.41918433  0.01023212  0.98157676  1
  S  S21  1  0.58067659  0.99336151  0.01883005  1
  S  S22  1  0.17619251  0.98534939  0.89694018  1
  S  S23  1  0.83091395  0.02435845  0.11405047  1
  S  S24  1  0.08195189  0.45415150  0.65428119  1
  S  S25  1  0.89472902  0.48401778  0.33374894  1
  S  S26  1  0.73232435  0.94764717  0.30343778  1
  S  S27  1  0.26783991  0.94857952  0.69605312  1
  S  S28  1  0.15742222  0.41725751  0.43116371  1
  S  S29  1  0.83232259  0.44343258  0.54586603  1
  S  S30  1  0.44400622  0.52322999  0.81820296  1
  S  S31  1  0.56318949  0.50198820  0.20927648  1
  S  S32  1  0.92396670  0.51885111  0.98632059  1
  S  S33  1  0.08587911  0.52701402  0.00929500  1
  S  S34  1  0.67511891  0.47057715  0.90708238  1
  S  S35  1  0.33539467  0.45572558  0.11062861  1
  S  S36  1  0.59414136  0.97601797  0.66521491  1
  S  S37  1  0.41536069  0.01072094  0.37194726  1
  S  S38  1  0.24518792  0.48492429  0.29722547  1
  S  S39  1  0.77246183  0.46778472  0.68648235  1
  S  S40  1  0.66289475  0.98756930  0.44322564  1
  S  S41  1  0.32282902  0.06611499  0.55075318  1
