# generated using pymatgen
data_Pr2Mn3(SbS3)4
_symmetry_space_group_name_H-M   'P 1'
_cell_length_a   20.02960800
_cell_length_b   3.90410600
_cell_length_c   14.95364829
_cell_angle_alpha   90.00000000
_cell_angle_beta   126.33350609
_cell_angle_gamma   90.00000000
_symmetry_Int_Tables_number   1
_chemical_formula_structural   Pr2Mn3(SbS3)4
_chemical_formula_sum   'Pr4 Mn6 Sb8 S24'
_cell_volume   942.00006694
_cell_formula_units_Z   2
loop_
 _symmetry_equiv_pos_site_id
 _symmetry_equiv_pos_as_xyz
  1  'x, y, z'
loop_
 _atom_site_type_symbol
 _atom_site_label
 _atom_site_symmetry_multiplicity
 _atom_site_fract_x
 _atom_site_fract_y
 _atom_site_fract_z
 _atom_site_occupancy
  Pr  Pr0  1  0.25688480  0.50380462  0.85428315  1
  Pr  Pr1  1  0.72580602  0.54704652  0.12558458  1
  Pr  Pr2  1  0.76743499  0.97933939  0.88262228  1
  Pr  Pr3  1  0.24671488  0.98033347  0.14549779  1
  Mn  Mn4  1  0.28448535  0.58212442  0.58920780  1
  Mn  Mn5  1  0.69829292  0.45310070  0.38161117  1
  Mn  Mn6  1  0.99901793  0.96504066  0.99917028  1
  Mn  Mn7  1  0.79350979  0.98755193  0.59534173  1
  Mn  Mn8  1  0.20149137  0.90380233  0.41201863  1
  Mn  Mn9  1  0.50089284  0.49025383  0.00680518  1
  Sb  Sb10  1  0.89076884  0.01895160  0.44798255  1
  Sb  Sb11  1  0.11078703  0.02851362  0.55942637  1
  Sb  Sb12  1  0.02500415  0.50313307  0.79895370  1
  Sb  Sb13  1  0.97031918  0.50822428  0.18880799  1
  Sb  Sb14  1  0.39665324  0.50430280  0.46786020  1
  Sb  Sb15  1  0.61452221  0.44802399  0.57061507  1
  Sb  Sb16  1  0.53281231  0.00285147  0.81921183  1
  Sb  Sb17  1  0.46392532  0.03419259  0.17538099  1
  S  S18  1  0.92946316  0.01512496  0.78317198  1
  S  S19  1  0.05832682  0.99519249  0.18846646  1
  S  S20  1  0.41916630  0.01026173  0.98148926  1
  S  S21  1  0.58119517  0.99274154  0.01925074  1
  S  S22  1  0.17591798  0.98539849  0.89698287  1
  S  S23  1  0.83109107  0.02486069  0.11433734  1
  S  S24  1  0.08214335  0.45417344  0.65410857  1
  S  S25  1  0.89472736  0.48256784  0.33365035  1
  S  S26  1  0.73247190  0.95009484  0.30365397  1
  S  S27  1  0.26795887  0.94844228  0.69632706  1
  S  S28  1  0.15749582  0.41691457  0.43108249  1
  S  S29  1  0.83249254  0.44371879  0.54608148  1
  S  S30  1  0.44411625  0.52173241  0.81813941  1
  S  S31  1  0.56301895  0.50109596  0.20889463  1
  S  S32  1  0.92391137  0.51823316  0.98668549  1
  S  S33  1  0.08607633  0.52635574  0.00968771  1
  S  S34  1  0.67523667  0.46940547  0.90716822  1
  S  S35  1  0.33523908  0.45566694  0.11039837  1
  S  S36  1  0.59387830  0.97557109  0.66549414  1
  S  S37  1  0.41547208  0.01052243  0.37203045  1
  S  S38  1  0.24532549  0.48615549  0.29700743  1
  S  S39  1  0.77265308  0.46850375  0.68581003  1
  S  S40  1  0.66314443  0.98841987  0.44377204  1
  S  S41  1  0.32243674  0.06562801  0.55039456  1
