# generated using pymatgen
data_Pr2Mn3(SbS3)4
_symmetry_space_group_name_H-M   'P 1'
_cell_length_a   20.02960800
_cell_length_b   3.90410600
_cell_length_c   14.95364829
_cell_angle_alpha   90.00000000
_cell_angle_beta   126.33350609
_cell_angle_gamma   90.00000000
_symmetry_Int_Tables_number   1
_chemical_formula_structural   Pr2Mn3(SbS3)4
_chemical_formula_sum   'Pr4 Mn6 Sb8 S24'
_cell_volume   942.00006694
_cell_formula_units_Z   2
loop_
 _symmetry_equiv_pos_site_id
 _symmetry_equiv_pos_as_xyz
  1  'x, y, z'
loop_
 _atom_site_type_symbol
 _atom_site_label
 _atom_site_symmetry_multiplicity
 _atom_site_fract_x
 _atom_site_fract_y
 _atom_site_fract_z
 _atom_site_occupancy
  Pr  Pr0  1  0.25690738  0.50320058  0.85435917  1
  Pr  Pr1  1  0.72566801  0.54688759  0.12570524  1
  Pr  Pr2  1  0.76739549  0.97925609  0.88277570  1
  Pr  Pr3  1  0.24672159  0.97996176  0.14539080  1
  Mn  Mn4  1  0.28422962  0.58258847  0.58864643  1
  Mn  Mn5  1  0.69841796  0.45352030  0.38173746  1
  Mn  Mn6  1  0.99897045  0.96548034  0.99909733  1
  Mn  Mn7  1  0.79350099  0.98873990  0.59537034  1
  Mn  Mn8  1  0.20161364  0.90403527  0.41246741  1
  Mn  Mn9  1  0.50098456  0.49044650  0.00668353  1
  Sb  Sb10  1  0.89095040  0.01833718  0.44815707  1
  Sb  Sb11  1  0.11074867  0.02807044  0.55949646  1
  Sb  Sb12  1  0.02494396  0.50324881  0.79888982  1
  Sb  Sb13  1  0.97033445  0.50828060  0.18864730  1
  Sb  Sb14  1  0.39660582  0.50373674  0.46760254  1
  Sb  Sb15  1  0.61448377  0.44827835  0.57056618  1
  Sb  Sb16  1  0.53286611  0.00334944  0.81929748  1
  Sb  Sb17  1  0.46387726  0.03346362  0.17531931  1
  S  S18  1  0.92880965  0.01462428  0.78245789  1
  S  S19  1  0.05824095  0.99474958  0.18856764  1
  S  S20  1  0.41922260  0.01051074  0.98151138  1
  S  S21  1  0.58168491  0.99222437  0.01964361  1
  S  S22  1  0.17589516  0.98498683  0.89718094  1
  S  S23  1  0.83127313  0.02529881  0.11452665  1
  S  S24  1  0.08240093  0.45399276  0.65402668  1
  S  S25  1  0.89472480  0.48179038  0.33344208  1
  S  S26  1  0.73256517  0.95202048  0.30375142  1
  S  S27  1  0.26814775  0.94908038  0.69649792  1
  S  S28  1  0.15769056  0.41638645  0.43113586  1
  S  S29  1  0.83265937  0.44406264  0.54620462  1
  S  S30  1  0.44436731  0.52045713  0.81819965  1
  S  S31  1  0.56279351  0.49981538  0.20855405  1
  S  S32  1  0.92369617  0.51745224  0.98677677  1
  S  S33  1  0.08607326  0.52650739  0.00982329  1
  S  S34  1  0.67529121  0.46763836  0.90722471  1
  S  S35  1  0.33511808  0.45523992  0.11005464  1
  S  S36  1  0.59370121  0.97479541  0.66585752  1
  S  S37  1  0.41554742  0.01067078  0.37191928  1
  S  S38  1  0.24553924  0.48825479  0.29680226  1
  S  S39  1  0.77270308  0.46907069  0.68509054  1
  S  S40  1  0.66352862  0.98992323  0.44432707  1
  S  S41  1  0.32223561  0.06482251  0.55017199  1
