# generated using pymatgen
data_Pr2Mn3(SbS3)4
_symmetry_space_group_name_H-M   'P 1'
_cell_length_a   20.02960800
_cell_length_b   3.90410600
_cell_length_c   14.95364829
_cell_angle_alpha   90.00000000
_cell_angle_beta   126.33350609
_cell_angle_gamma   90.00000000
_symmetry_Int_Tables_number   1
_chemical_formula_structural   Pr2Mn3(SbS3)4
_chemical_formula_sum   'Pr4 Mn6 Sb8 S24'
_cell_volume   942.00006694
_cell_formula_units_Z   2
loop_
 _symmetry_equiv_pos_site_id
 _symmetry_equiv_pos_as_xyz
  1  'x, y, z'
loop_
 _atom_site_type_symbol
 _atom_site_label
 _atom_site_symmetry_multiplicity
 _atom_site_fract_x
 _atom_site_fract_y
 _atom_site_fract_z
 _atom_site_occupancy
  Pr  Pr0  1  0.25692819  0.50237048  0.85444033  1
  Pr  Pr1  1  0.72558594  0.54731040  0.12592865  1
  Pr  Pr2  1  0.76733410  0.97933435  0.88286569  1
  Pr  Pr3  1  0.24669296  0.97979489  0.14526808  1
  Mn  Mn4  1  0.28397013  0.58268312  0.58820414  1
  Mn  Mn5  1  0.69854684  0.45389025  0.38190458  1
  Mn  Mn6  1  0.99887322  0.96538605  0.99890864  1
  Mn  Mn7  1  0.79358594  0.98905952  0.59531764  1
  Mn  Mn8  1  0.20173529  0.90417269  0.41282908  1
  Mn  Mn9  1  0.50095192  0.49043542  0.00644386  1
  Sb  Sb10  1  0.89112660  0.01779302  0.44833339  1
  Sb  Sb11  1  0.11074271  0.02792407  0.55962492  1
  Sb  Sb12  1  0.02485241  0.50364200  0.79881235  1
  Sb  Sb13  1  0.97038886  0.50797134  0.18851304  1
  Sb  Sb14  1  0.39650732  0.50337316  0.46731977  1
  Sb  Sb15  1  0.61441051  0.44844027  0.57050150  1
  Sb  Sb16  1  0.53289642  0.00333283  0.81932813  1
  Sb  Sb17  1  0.46384920  0.03306407  0.17526438  1
  S  S18  1  0.92815816  0.01408013  0.78172788  1
  S  S19  1  0.05810721  0.99525751  0.18854511  1
  S  S20  1  0.41905370  0.01093522  0.98123560  1
  S  S21  1  0.58208262  0.99232973  0.01967693  1
  S  S22  1  0.17597414  0.98512162  0.89745182  1
  S  S23  1  0.83146818  0.02577434  0.11459212  1
  S  S24  1  0.08235882  0.45348587  0.65351114  1
  S  S25  1  0.89454871  0.48074845  0.33321030  1
  S  S26  1  0.73264130  0.95412139  0.30374621  1
  S  S27  1  0.26828335  0.95042033  0.69649911  1
  S  S28  1  0.15779606  0.41634717  0.43112898  1
  S  S29  1  0.83281569  0.44396309  0.54608484  1
  S  S30  1  0.44452936  0.51899585  0.81822818  1
  S  S31  1  0.56257436  0.49889149  0.20808384  1
  S  S32  1  0.92347950  0.51676078  0.98684430  1
  S  S33  1  0.08612997  0.52683549  0.00993709  1
  S  S34  1  0.67537533  0.46562541  0.90738921  1
  S  S35  1  0.33477640  0.45562370  0.10954736  1
  S  S36  1  0.59329186  0.97396092  0.66587276  1
  S  S37  1  0.41564013  0.01095451  0.37161719  1
  S  S38  1  0.24568679  0.49085318  0.29667705  1
  S  S39  1  0.77256599  0.46945799  0.68431905  1
  S  S40  1  0.66378161  0.99116788  0.44480399  1
  S  S41  1  0.32201738  0.06481170  0.54999297  1
