# generated using pymatgen
data_Pr2Mn3(SbS3)4
_symmetry_space_group_name_H-M   'P 1'
_cell_length_a   20.02960800
_cell_length_b   3.90410600
_cell_length_c   14.95364829
_cell_angle_alpha   90.00000000
_cell_angle_beta   126.33350609
_cell_angle_gamma   90.00000000
_symmetry_Int_Tables_number   1
_chemical_formula_structural   Pr2Mn3(SbS3)4
_chemical_formula_sum   'Pr4 Mn6 Sb8 S24'
_cell_volume   942.00006694
_cell_formula_units_Z   2
loop_
 _symmetry_equiv_pos_site_id
 _symmetry_equiv_pos_as_xyz
  1  'x, y, z'
loop_
 _atom_site_type_symbol
 _atom_site_label
 _atom_site_symmetry_multiplicity
 _atom_site_fract_x
 _atom_site_fract_y
 _atom_site_fract_z
 _atom_site_occupancy
  Pr  Pr0  1  0.25691424  0.50133789  0.85456631  1
  Pr  Pr1  1  0.72551764  0.54743054  0.12618362  1
  Pr  Pr2  1  0.76727980  0.97949752  0.88282927  1
  Pr  Pr3  1  0.24667034  0.97944649  0.14515171  1
  Mn  Mn4  1  0.28376646  0.58252574  0.58782180  1
  Mn  Mn5  1  0.69880371  0.45408158  0.38219338  1
  Mn  Mn6  1  0.99871482  0.96488926  0.99861052  1
  Mn  Mn7  1  0.79362968  0.98956983  0.59509829  1
  Mn  Mn8  1  0.20181635  0.90417779  0.41318548  1
  Mn  Mn9  1  0.50088492  0.49053164  0.00620880  1
  Sb  Sb10  1  0.89132396  0.01699656  0.44856566  1
  Sb  Sb11  1  0.11070986  0.02779294  0.55968285  1
  Sb  Sb12  1  0.02478930  0.50411540  0.79886328  1
  Sb  Sb13  1  0.97043102  0.50780024  0.18840415  1
  Sb  Sb14  1  0.39637816  0.50297146  0.46702362  1
  Sb  Sb15  1  0.61429177  0.44849668  0.57037927  1
  Sb  Sb16  1  0.53285820  0.00371504  0.81927058  1
  Sb  Sb17  1  0.46380773  0.03276584  0.17518852  1
  S  S18  1  0.92759239  0.01410499  0.78113062  1
  S  S19  1  0.05798441  0.99615486  0.18848345  1
  S  S20  1  0.41895557  0.01135867  0.98100508  1
  S  S21  1  0.58249147  0.99240511  0.01974921  1
  S  S22  1  0.17602857  0.98512773  0.89763054  1
  S  S23  1  0.83157140  0.02614864  0.11467940  1
  S  S24  1  0.08230948  0.45319877  0.65317262  1
  S  S25  1  0.89441509  0.47983657  0.33285676  1
  S  S26  1  0.73275185  0.95652401  0.30376474  1
  S  S27  1  0.26846009  0.95132091  0.69655410  1
  S  S28  1  0.15772504  0.41625599  0.43114164  1
  S  S29  1  0.83308027  0.44408219  0.54589111  1
  S  S30  1  0.44475279  0.51714427  0.81832529  1
  S  S31  1  0.56255309  0.49763461  0.20776888  1
  S  S32  1  0.92324796  0.51633980  0.98693623  1
  S  S33  1  0.08596699  0.52765632  0.00968697  1
  S  S34  1  0.67538326  0.46388823  0.90758152  1
  S  S35  1  0.33443259  0.45539386  0.10902646  1
  S  S36  1  0.59307320  0.97324120  0.66605583  1
  S  S37  1  0.41575487  0.01141480  0.37124192  1
  S  S38  1  0.24591278  0.49324435  0.29662353  1
  S  S39  1  0.77245872  0.46928054  0.68365338  1
  S  S40  1  0.66404758  0.99209742  0.44531345  1
  S  S41  1  0.32195294  0.06465322  0.55000176  1
