# generated using pymatgen
data_Pr2Mn3(SbS3)4
_symmetry_space_group_name_H-M   'P 1'
_cell_length_a   20.02960800
_cell_length_b   3.90410600
_cell_length_c   14.95364829
_cell_angle_alpha   90.00000000
_cell_angle_beta   126.33350609
_cell_angle_gamma   90.00000000
_symmetry_Int_Tables_number   1
_chemical_formula_structural   Pr2Mn3(SbS3)4
_chemical_formula_sum   'Pr4 Mn6 Sb8 S24'
_cell_volume   942.00006694
_cell_formula_units_Z   2
loop_
 _symmetry_equiv_pos_site_id
 _symmetry_equiv_pos_as_xyz
  1  'x, y, z'
loop_
 _atom_site_type_symbol
 _atom_site_label
 _atom_site_symmetry_multiplicity
 _atom_site_fract_x
 _atom_site_fract_y
 _atom_site_fract_z
 _atom_site_occupancy
  Pr  Pr0  1  0.25680842  0.50034016  0.85461242  1
  Pr  Pr1  1  0.72557445  0.54780988  0.12649963  1
  Pr  Pr2  1  0.76717941  0.97966579  0.88273855  1
  Pr  Pr3  1  0.24670242  0.97940639  0.14514371  1
  Mn  Mn4  1  0.28355070  0.58174798  0.58749024  1
  Mn  Mn5  1  0.69894913  0.45435515  0.38245363  1
  Mn  Mn6  1  0.99849010  0.96428616  0.99838631  1
  Mn  Mn7  1  0.79373142  0.99002619  0.59495218  1
  Mn  Mn8  1  0.20185090  0.90495217  0.41344659  1
  Mn  Mn9  1  0.50075733  0.49054786  0.00584288  1
  Sb  Sb10  1  0.89149425  0.01613381  0.44882226  1
  Sb  Sb11  1  0.11066091  0.02778281  0.55975440  1
  Sb  Sb12  1  0.02466810  0.50437963  0.79887415  1
  Sb  Sb13  1  0.97043298  0.50771151  0.18820743  1
  Sb  Sb14  1  0.39630364  0.50238207  0.46672147  1
  Sb  Sb15  1  0.61407334  0.44863495  0.57020299  1
  Sb  Sb16  1  0.53286201  0.00391050  0.81921246  1
  Sb  Sb17  1  0.46371951  0.03232265  0.17505049  1
  S  S18  1  0.92722821  0.01434781  0.78055986  1
  S  S19  1  0.05785805  0.99736103  0.18834352  1
  S  S20  1  0.41891717  0.01172892  0.98080501  1
  S  S21  1  0.58296258  0.99281994  0.01995409  1
  S  S22  1  0.17590435  0.98451956  0.89764437  1
  S  S23  1  0.83179679  0.02552653  0.11487259  1
  S  S24  1  0.08230646  0.45268343  0.65283003  1
  S  S25  1  0.89432768  0.47855667  0.33261819  1
  S  S26  1  0.73281243  0.95911121  0.30375136  1
  S  S27  1  0.26882653  0.95197464  0.69688289  1
  S  S28  1  0.15763555  0.41640087  0.43119471  1
  S  S29  1  0.83318884  0.44533620  0.54581366  1
  S  S30  1  0.44499031  0.51465704  0.81863702  1
  S  S31  1  0.56250484  0.49633318  0.20738058  1
  S  S32  1  0.92285356  0.51569159  0.98687024  1
  S  S33  1  0.08581171  0.52854598  0.00949290  1
  S  S34  1  0.67523728  0.46190306  0.90765632  1
  S  S35  1  0.33413504  0.45546427  0.10845573  1
  S  S36  1  0.59272366  0.97187649  0.66611305  1
  S  S37  1  0.41597329  0.01206451  0.37103713  1
  S  S38  1  0.24607126  0.49567487  0.29652922  1
  S  S39  1  0.77228888  0.46887687  0.68301949  1
  S  S40  1  0.66445070  0.99230176  0.44593748  1
  S  S41  1  0.32192738  0.06409171  0.54983764  1
