# generated using pymatgen
data_Pr2Mn3(SbS3)4
_symmetry_space_group_name_H-M   'P 1'
_cell_length_a   20.02960800
_cell_length_b   3.90410600
_cell_length_c   14.95364829
_cell_angle_alpha   90.00000000
_cell_angle_beta   126.33350609
_cell_angle_gamma   90.00000000
_symmetry_Int_Tables_number   1
_chemical_formula_structural   Pr2Mn3(SbS3)4
_chemical_formula_sum   'Pr4 Mn6 Sb8 S24'
_cell_volume   942.00006694
_cell_formula_units_Z   2
loop_
 _symmetry_equiv_pos_site_id
 _symmetry_equiv_pos_as_xyz
  1  'x, y, z'
loop_
 _atom_site_type_symbol
 _atom_site_label
 _atom_site_symmetry_multiplicity
 _atom_site_fract_x
 _atom_site_fract_y
 _atom_site_fract_z
 _atom_site_occupancy
  Pr  Pr0  1  0.25673743  0.49926892  0.85462878  1
  Pr  Pr1  1  0.72561528  0.54810173  0.12674986  1
  Pr  Pr2  1  0.76708987  0.97967491  0.88262908  1
  Pr  Pr3  1  0.24679023  0.97963408  0.14515974  1
  Mn  Mn4  1  0.28329334  0.58140845  0.58707915  1
  Mn  Mn5  1  0.69919892  0.45426991  0.38274528  1
  Mn  Mn6  1  0.99833110  0.96337923  0.99829664  1
  Mn  Mn7  1  0.79392190  0.99000273  0.59483182  1
  Mn  Mn8  1  0.20182110  0.90571480  0.41368202  1
  Mn  Mn9  1  0.50076501  0.49022275  0.00559296  1
  Sb  Sb10  1  0.89165112  0.01488687  0.44899614  1
  Sb  Sb11  1  0.11062514  0.02779249  0.55986624  1
  Sb  Sb12  1  0.02460769  0.50441085  0.79880048  1
  Sb  Sb13  1  0.97046399  0.50793300  0.18794901  1
  Sb  Sb14  1  0.39619588  0.50161179  0.46639302  1
  Sb  Sb15  1  0.61384933  0.44890704  0.56992295  1
  Sb  Sb16  1  0.53278800  0.00427059  0.81910294  1
  Sb  Sb17  1  0.46358639  0.03152588  0.17496393  1
  S  S18  1  0.92675539  0.01462316  0.77985745  1
  S  S19  1  0.05775924  0.99841710  0.18837127  1
  S  S20  1  0.41897819  0.01187161  0.98062572  1
  S  S21  1  0.58329075  0.99370904  0.02008860  1
  S  S22  1  0.17560317  0.98383349  0.89757212  1
  S  S23  1  0.83187644  0.02592149  0.11496172  1
  S  S24  1  0.08244442  0.45201840  0.65257613  1
  S  S25  1  0.89421719  0.47707435  0.33244751  1
  S  S26  1  0.73298097  0.96129844  0.30378548  1
  S  S27  1  0.26919245  0.95195770  0.69721412  1
  S  S28  1  0.15756013  0.41705227  0.43135493  1
  S  S29  1  0.83317710  0.44670431  0.54564712  1
  S  S30  1  0.44509159  0.51239857  0.81888093  1
  S  S31  1  0.56233320  0.49530031  0.20697755  1
  S  S32  1  0.92247946  0.51530466  0.98680778  1
  S  S33  1  0.08560945  0.52972762  0.00921186  1
  S  S34  1  0.67513890  0.46001360  0.90775020  1
  S  S35  1  0.33396309  0.45482623  0.10818567  1
  S  S36  1  0.59245653  0.97041200  0.66621823  1
  S  S37  1  0.41613215  0.01280288  0.37079925  1
  S  S38  1  0.24627212  0.49755367  0.29643318  1
  S  S39  1  0.77216026  0.46893807  0.68237958  1
  S  S40  1  0.66469914  0.99194330  0.44630989  1
  S  S41  1  0.32175241  0.06313126  0.54953136  1
