# generated using pymatgen
data_Pr2Mn3(SbS3)4
_symmetry_space_group_name_H-M   'P 1'
_cell_length_a   20.02960800
_cell_length_b   3.90410600
_cell_length_c   14.95364829
_cell_angle_alpha   90.00000000
_cell_angle_beta   126.33350609
_cell_angle_gamma   90.00000000
_symmetry_Int_Tables_number   1
_chemical_formula_structural   Pr2Mn3(SbS3)4
_chemical_formula_sum   'Pr4 Mn6 Sb8 S24'
_cell_volume   942.00006694
_cell_formula_units_Z   2
loop_
 _symmetry_equiv_pos_site_id
 _symmetry_equiv_pos_as_xyz
  1  'x, y, z'
loop_
 _atom_site_type_symbol
 _atom_site_label
 _atom_site_symmetry_multiplicity
 _atom_site_fract_x
 _atom_site_fract_y
 _atom_site_fract_z
 _atom_site_occupancy
  Pr  Pr0  1  0.25677036  0.49843444  0.85480467  1
  Pr  Pr1  1  0.72569874  0.54837708  0.12704508  1
  Pr  Pr2  1  0.76695151  0.97943146  0.88251920  1
  Pr  Pr3  1  0.24690146  0.97990504  0.14516645  1
  Mn  Mn4  1  0.28312403  0.58098698  0.58682408  1
  Mn  Mn5  1  0.69948914  0.45422865  0.38303510  1
  Mn  Mn6  1  0.99820855  0.96291142  0.99824456  1
  Mn  Mn7  1  0.79426013  0.99011723  0.59482097  1
  Mn  Mn8  1  0.20174153  0.90650716  0.41394454  1
  Mn  Mn9  1  0.50076845  0.48966350  0.00535864  1
  Sb  Sb10  1  0.89179862  0.01362722  0.44915110  1
  Sb  Sb11  1  0.11062246  0.02778927  0.56003190  1
  Sb  Sb12  1  0.02459864  0.50458453  0.79884554  1
  Sb  Sb13  1  0.97040626  0.50798047  0.18752083  1
  Sb  Sb14  1  0.39611645  0.50086532  0.46612875  1
  Sb  Sb15  1  0.61368851  0.44906355  0.56970109  1
  Sb  Sb16  1  0.53269588  0.00454269  0.81897315  1
  Sb  Sb17  1  0.46344275  0.03065085  0.17491274  1
  S  S18  1  0.92628694  0.01460096  0.77908361  1
  S  S19  1  0.05775531  0.00010914  0.18864352  1
  S  S20  1  0.41913522  0.01123288  0.98054740  1
  S  S21  1  0.58374739  0.99388702  0.02044237  1
  S  S22  1  0.17517666  0.98304715  0.89734907  1
  S  S23  1  0.83178584  0.02652865  0.11487840  1
  S  S24  1  0.08271404  0.45125776  0.65245145  1
  S  S25  1  0.89408705  0.47611951  0.33228141  1
  S  S26  1  0.73327406  0.96367881  0.30407255  1
  S  S27  1  0.26944455  0.95183016  0.69749311  1
  S  S28  1  0.15762738  0.41777470  0.43158909  1
  S  S29  1  0.83316031  0.44814574  0.54536124  1
  S  S30  1  0.44513765  0.50957891  0.81890829  1
  S  S31  1  0.56200219  0.49411642  0.20657138  1
  S  S32  1  0.92207794  0.51529857  0.98663625  1
  S  S33  1  0.08543042  0.53054589  0.00890485  1
  S  S34  1  0.67511824  0.45824890  0.90800498  1
  S  S35  1  0.33382599  0.45402768  0.10794853  1
  S  S36  1  0.59221887  0.96893828  0.66621046  1
  S  S37  1  0.41634008  0.01260575  0.37070480  1
  S  S38  1  0.24664684  0.49932078  0.29626438  1
  S  S39  1  0.77195393  0.46974511  0.68174261  1
  S  S40  1  0.66495093  0.99178315  0.44664429  1
  S  S41  1  0.32162269  0.06254243  0.54921567  1
