# generated using pymatgen
data_Pr2Mn3(SbS3)4
_symmetry_space_group_name_H-M   'P 1'
_cell_length_a   20.02960800
_cell_length_b   3.90410600
_cell_length_c   14.95364829
_cell_angle_alpha   90.00000000
_cell_angle_beta   126.33350609
_cell_angle_gamma   90.00000000
_symmetry_Int_Tables_number   1
_chemical_formula_structural   Pr2Mn3(SbS3)4
_chemical_formula_sum   'Pr4 Mn6 Sb8 S24'
_cell_volume   942.00006694
_cell_formula_units_Z   2
loop_
 _symmetry_equiv_pos_site_id
 _symmetry_equiv_pos_as_xyz
  1  'x, y, z'
loop_
 _atom_site_type_symbol
 _atom_site_label
 _atom_site_symmetry_multiplicity
 _atom_site_fract_x
 _atom_site_fract_y
 _atom_site_fract_z
 _atom_site_occupancy
  Pr  Pr0  1  0.26992438  0.49547250  0.86719077  1
  Pr  Pr1  1  0.73396116  0.51385696  0.13277359  1
  Pr  Pr2  1  0.76392199  0.02468959  0.86302291  1
  Pr  Pr3  1  0.23338348  0.99651284  0.13107554  1
  Mn  Mn4  1  0.29608108  0.47594797  0.59931525  1
  Mn  Mn5  1  0.68633582  0.46069064  0.36367649  1
  Mn  Mn6  1  0.00515844  0.98888301  0.01087068  1
  Mn  Mn7  1  0.79744848  0.00227093  0.61788304  1
  Mn  Mn8  1  0.19650456  0.97778897  0.36855152  1
  Mn  Mn9  1  0.48710881  0.46747760  0.98575230  1
  Sb  Sb10  1  0.88839385  0.98762974  0.45136513  1
  Sb  Sb11  1  0.10910559  0.97981609  0.54481492  1
  Sb  Sb12  1  0.03547574  0.52676302  0.81974944  1
  Sb  Sb13  1  0.96707673  0.49824178  0.19025153  1
  Sb  Sb14  1  0.39245142  0.50083355  0.44797830  1
  Sb  Sb15  1  0.60562987  0.47398819  0.54725530  1
  Sb  Sb16  1  0.53399014  0.98264061  0.80884613  1
  Sb  Sb17  1  0.46539641  0.01558382  0.19053971  1
  S  S18  1  0.93592178  0.02388290  0.80781935  1
  S  S19  1  0.06492596  0.99307846  0.19867447  1
  S  S20  1  0.42010262  0.95467584  0.99091062  1
  S  S21  1  0.58422266  0.02554879  0.01482589  1
  S  S22  1  0.16945500  0.05528475  0.89992716  1
  S  S23  1  0.82709134  0.04111022  0.10202893  1
  S  S24  1  0.08995904  0.50397220  0.64596485  1
  S  S25  1  0.91646052  0.47942932  0.35860964  1
  S  S26  1  0.73889999  0.98730227  0.30322112  1
  S  S27  1  0.26093195  0.00409751  0.71256824  1
  S  S28  1  0.16562578  0.51768247  0.43305150  1
  S  S29  1  0.81686872  0.48762816  0.54667617  1
  S  S30  1  0.43131793  0.47613032  0.79622213  1
  S  S31  1  0.55453818  0.52315374  0.18047712  1
  S  S32  1  0.91837444  0.50067866  0.98885847  1
  S  S33  1  0.09242533  0.48907775  0.03206013  1
  S  S34  1  0.66326584  0.55326200  0.89378948  1
  S  S35  1  0.32569139  0.48979983  0.09198675  1
  S  S36  1  0.59334369  0.99706432  0.65116300  1
  S  S37  1  0.39981758  0.98768507  0.34356295  1
  S  S38  1  0.24255961  0.46364453  0.31573897  1
  S  S39  1  0.75970530  0.52430861  0.68784529  1
  S  S40  1  0.66393425  0.00209019  0.44800298  1
  S  S41  1  0.33201832  0.97894559  0.55600713  1
