# generated using pymatgen
data_Pr2Mn3(SbS3)4
_symmetry_space_group_name_H-M   'P 1'
_cell_length_a   20.02960800
_cell_length_b   3.90410600
_cell_length_c   14.95364829
_cell_angle_alpha   90.00000000
_cell_angle_beta   126.33350609
_cell_angle_gamma   90.00000000
_symmetry_Int_Tables_number   1
_chemical_formula_structural   Pr2Mn3(SbS3)4
_chemical_formula_sum   'Pr4 Mn6 Sb8 S24'
_cell_volume   942.00006694
_cell_formula_units_Z   2
loop_
 _symmetry_equiv_pos_site_id
 _symmetry_equiv_pos_as_xyz
  1  'x, y, z'
loop_
 _atom_site_type_symbol
 _atom_site_label
 _atom_site_symmetry_multiplicity
 _atom_site_fract_x
 _atom_site_fract_y
 _atom_site_fract_z
 _atom_site_occupancy
  Pr  Pr0  1  0.25684587  0.49779561  0.85497466  1
  Pr  Pr1  1  0.72579185  0.54820997  0.12734826  1
  Pr  Pr2  1  0.76680870  0.97960986  0.88234410  1
  Pr  Pr3  1  0.24695761  0.98043808  0.14521210  1
  Mn  Mn4  1  0.28310092  0.58093723  0.58685401  1
  Mn  Mn5  1  0.69983450  0.45432050  0.38332176  1
  Mn  Mn6  1  0.99802984  0.96211160  0.99818316  1
  Mn  Mn7  1  0.79459759  0.99041551  0.59498576  1
  Mn  Mn8  1  0.20163745  0.90722953  0.41409809  1
  Mn  Mn9  1  0.50093180  0.48882246  0.00525791  1
  Sb  Sb10  1  0.89191560  0.01247295  0.44929192  1
  Sb  Sb11  1  0.11064397  0.02762034  0.56025416  1
  Sb  Sb12  1  0.02448369  0.50474285  0.79869448  1
  Sb  Sb13  1  0.97031013  0.50776157  0.18700019  1
  Sb  Sb14  1  0.39608279  0.50005816  0.46591981  1
  Sb  Sb15  1  0.61350441  0.44920375  0.56944683  1
  Sb  Sb16  1  0.53262116  0.00455854  0.81885813  1
  Sb  Sb17  1  0.46335687  0.02973165  0.17490609  1
  S  S18  1  0.92596967  0.01452679  0.77851734  1
  S  S19  1  0.05770040  0.00209371  0.18881071  1
  S  S20  1  0.41919405  0.01112980  0.98035470  1
  S  S21  1  0.58424955  0.99456587  0.02073688  1
  S  S22  1  0.17465978  0.98248574  0.89717944  1
  S  S23  1  0.83168327  0.02730194  0.11468618  1
  S  S24  1  0.08300088  0.45094099  0.65232443  1
  S  S25  1  0.89403376  0.47525990  0.33211165  1
  S  S26  1  0.73349465  0.96602610  0.30430885  1
  S  S27  1  0.26959102  0.95174950  0.69774261  1
  S  S28  1  0.15766575  0.41830223  0.43188484  1
  S  S29  1  0.83308334  0.44962949  0.54491637  1
  S  S30  1  0.44513534  0.50715227  0.81899455  1
  S  S31  1  0.56179045  0.49204808  0.20635860  1
  S  S32  1  0.92157913  0.51545349  0.98630841  1
  S  S33  1  0.08522386  0.53149132  0.00865315  1
  S  S34  1  0.67513203  0.45652255  0.90832035  1
  S  S35  1  0.33372639  0.45344008  0.10763955  1
  S  S36  1  0.59185343  0.96737896  0.66601521  1
  S  S37  1  0.41661775  0.01250396  0.37046001  1
  S  S38  1  0.24704848  0.50095446  0.29609802  1
  S  S39  1  0.77184516  0.47111885  0.68126891  1
  S  S40  1  0.66513873  0.99158109  0.44679903  1
  S  S41  1  0.32125480  0.06194834  0.54879187  1
