# generated using pymatgen
data_Pr2Mn3(SbS3)4
_symmetry_space_group_name_H-M   'P 1'
_cell_length_a   20.02960800
_cell_length_b   3.90410600
_cell_length_c   14.95364829
_cell_angle_alpha   90.00000000
_cell_angle_beta   126.33350609
_cell_angle_gamma   90.00000000
_symmetry_Int_Tables_number   1
_chemical_formula_structural   Pr2Mn3(SbS3)4
_chemical_formula_sum   'Pr4 Mn6 Sb8 S24'
_cell_volume   942.00006694
_cell_formula_units_Z   2
loop_
 _symmetry_equiv_pos_site_id
 _symmetry_equiv_pos_as_xyz
  1  'x, y, z'
loop_
 _atom_site_type_symbol
 _atom_site_label
 _atom_site_symmetry_multiplicity
 _atom_site_fract_x
 _atom_site_fract_y
 _atom_site_fract_z
 _atom_site_occupancy
  Pr  Pr0  1  0.25692532  0.49747464  0.85524226  1
  Pr  Pr1  1  0.72582120  0.54791267  0.12754846  1
  Pr  Pr2  1  0.76668461  0.97947809  0.88217501  1
  Pr  Pr3  1  0.24698073  0.98087879  0.14528282  1
  Mn  Mn4  1  0.28292656  0.58110424  0.58677304  1
  Mn  Mn5  1  0.70025184  0.45426951  0.38363098  1
  Mn  Mn6  1  0.99793235  0.96186887  0.99817649  1
  Mn  Mn7  1  0.79506218  0.99099477  0.59531366  1
  Mn  Mn8  1  0.20145105  0.90749061  0.41421816  1
  Mn  Mn9  1  0.50113717  0.48798860  0.00528332  1
  Sb  Sb10  1  0.89196782  0.01127938  0.44934606  1
  Sb  Sb11  1  0.11078052  0.02777231  0.56060227  1
  Sb  Sb12  1  0.02436193  0.50488906  0.79865415  1
  Sb  Sb13  1  0.97022703  0.50733150  0.18654332  1
  Sb  Sb14  1  0.39606013  0.49944771  0.46568801  1
  Sb  Sb15  1  0.61331329  0.44915633  0.56916793  1
  Sb  Sb16  1  0.53253896  0.00456446  0.81872833  1
  Sb  Sb17  1  0.46335829  0.02898415  0.17494105  1
  S  S18  1  0.92561970  0.01419586  0.77784094  1
  S  S19  1  0.05762258  0.00353552  0.18905652  1
  S  S20  1  0.41920612  0.01161715  0.98001795  1
  S  S21  1  0.58475496  0.99506287  0.02090490  1
  S  S22  1  0.17418231  0.98163830  0.89698375  1
  S  S23  1  0.83149408  0.02763588  0.11438146  1
  S  S24  1  0.08316154  0.45079523  0.65215872  1
  S  S25  1  0.89398566  0.47416506  0.33207423  1
  S  S26  1  0.73384692  0.96817094  0.30470274  1
  S  S27  1  0.26976900  0.95241979  0.69792397  1
  S  S28  1  0.15772954  0.41878111  0.43226318  1
  S  S29  1  0.83303334  0.45101067  0.54456320  1
  S  S30  1  0.44505412  0.50480619  0.81902028  1
  S  S31  1  0.56169808  0.49081897  0.20626248  1
  S  S32  1  0.92120325  0.51536552  0.98612306  1
  S  S33  1  0.08520031  0.53278960  0.00845819  1
  S  S34  1  0.67518267  0.45477323  0.90878732  1
  S  S35  1  0.33378644  0.45294235  0.10738740  1
  S  S36  1  0.59156847  0.96590804  0.66589495  1
  S  S37  1  0.41686028  0.01264170  0.37030333  1
  S  S38  1  0.24745274  0.50180747  0.29597583  1
  S  S39  1  0.77157414  0.47245147  0.68066196  1
  S  S40  1  0.66517666  0.99078694  0.44690795  1
  S  S41  1  0.32080910  0.06109393  0.54837306  1
