# generated using pymatgen
data_Pr2Mn3(SbS3)4
_symmetry_space_group_name_H-M   'P 1'
_cell_length_a   20.02960800
_cell_length_b   3.90410600
_cell_length_c   14.95364829
_cell_angle_alpha   90.00000000
_cell_angle_beta   126.33350609
_cell_angle_gamma   90.00000000
_symmetry_Int_Tables_number   1
_chemical_formula_structural   Pr2Mn3(SbS3)4
_chemical_formula_sum   'Pr4 Mn6 Sb8 S24'
_cell_volume   942.00006694
_cell_formula_units_Z   2
loop_
 _symmetry_equiv_pos_site_id
 _symmetry_equiv_pos_as_xyz
  1  'x, y, z'
loop_
 _atom_site_type_symbol
 _atom_site_label
 _atom_site_symmetry_multiplicity
 _atom_site_fract_x
 _atom_site_fract_y
 _atom_site_fract_z
 _atom_site_occupancy
  Pr  Pr0  1  0.25703080  0.49706365  0.85560625  1
  Pr  Pr1  1  0.72597533  0.54770502  0.12791004  1
  Pr  Pr2  1  0.76655030  0.97951068  0.88202841  1
  Pr  Pr3  1  0.24699855  0.98145673  0.14537737  1
  Mn  Mn4  1  0.28277695  0.58178921  0.58679434  1
  Mn  Mn5  1  0.70056852  0.45426914  0.38390646  1
  Mn  Mn6  1  0.99777222  0.96173926  0.99814897  1
  Mn  Mn7  1  0.79544489  0.99158484  0.59553569  1
  Mn  Mn8  1  0.20135282  0.90742893  0.41435781  1
  Mn  Mn9  1  0.50126619  0.48718025  0.00528147  1
  Sb  Sb10  1  0.89197975  0.01017564  0.44930798  1
  Sb  Sb11  1  0.11092727  0.02795321  0.56095518  1
  Sb  Sb12  1  0.02435544  0.50519845  0.79865630  1
  Sb  Sb13  1  0.97009951  0.50685238  0.18605351  1
  Sb  Sb14  1  0.39604073  0.49877406  0.46552267  1
  Sb  Sb15  1  0.61312724  0.44898555  0.56896527  1
  Sb  Sb16  1  0.53247053  0.00477283  0.81867864  1
  Sb  Sb17  1  0.46336778  0.02801787  0.17492719  1
  S  S18  1  0.92523459  0.01409073  0.77726417  1
  S  S19  1  0.05736318  0.00429955  0.18911592  1
  S  S20  1  0.41925390  0.01240366  0.97998942  1
  S  S21  1  0.58507205  0.99580781  0.02104915  1
  S  S22  1  0.17372248  0.98050334  0.89688849  1
  S  S23  1  0.83128324  0.02792110  0.11397078  1
  S  S24  1  0.08346819  0.45044324  0.65216503  1
  S  S25  1  0.89360284  0.47298768  0.33180077  1
  S  S26  1  0.73439379  0.97074587  0.30515506  1
  S  S27  1  0.26993572  0.95348592  0.69819765  1
  S  S28  1  0.15783186  0.41922094  0.43268066  1
  S  S29  1  0.83292499  0.45173498  0.54413858  1
  S  S30  1  0.44501995  0.50248508  0.81907693  1
  S  S31  1  0.56179641  0.48939601  0.20626988  1
  S  S32  1  0.92094451  0.51483778  0.98603444  1
  S  S33  1  0.08527972  0.53354057  0.00841854  1
  S  S34  1  0.67507413  0.45354494  0.90913668  1
  S  S35  1  0.33387666  0.45220582  0.10714210  1
  S  S36  1  0.59136918  0.96441105  0.66573228  1
  S  S37  1  0.41715871  0.01281481  0.37019587  1
  S  S38  1  0.24771435  0.50274580  0.29600496  1
  S  S39  1  0.77127619  0.47410027  0.67993038  1
  S  S40  1  0.66521366  0.98942167  0.44700690  1
  S  S41  1  0.32061743  0.06017789  0.54816343  1
