# generated using pymatgen
data_Pr2Mn3(SbS3)4
_symmetry_space_group_name_H-M   'P 1'
_cell_length_a   20.02960800
_cell_length_b   3.90410600
_cell_length_c   14.95364829
_cell_angle_alpha   90.00000000
_cell_angle_beta   126.33350609
_cell_angle_gamma   90.00000000
_symmetry_Int_Tables_number   1
_chemical_formula_structural   Pr2Mn3(SbS3)4
_chemical_formula_sum   'Pr4 Mn6 Sb8 S24'
_cell_volume   942.00006694
_cell_formula_units_Z   2
loop_
 _symmetry_equiv_pos_site_id
 _symmetry_equiv_pos_as_xyz
  1  'x, y, z'
loop_
 _atom_site_type_symbol
 _atom_site_label
 _atom_site_symmetry_multiplicity
 _atom_site_fract_x
 _atom_site_fract_y
 _atom_site_fract_z
 _atom_site_occupancy
  Pr  Pr0  1  0.25716938  0.49668067  0.85592200  1
  Pr  Pr1  1  0.72607677  0.54780030  0.12821954  1
  Pr  Pr2  1  0.76637494  0.97956985  0.88186422  1
  Pr  Pr3  1  0.24700495  0.98205216  0.14544695  1
  Mn  Mn4  1  0.28275205  0.58227673  0.58689209  1
  Mn  Mn5  1  0.70079509  0.45427481  0.38417308  1
  Mn  Mn6  1  0.99768835  0.96143582  0.99824907  1
  Mn  Mn7  1  0.79581264  0.99214961  0.59590831  1
  Mn  Mn8  1  0.20129293  0.90701523  0.41446591  1
  Mn  Mn9  1  0.50135364  0.48655540  0.00532207  1
  Sb  Sb10  1  0.89207296  0.00895540  0.44929783  1
  Sb  Sb11  1  0.11109481  0.02818797  0.56133951  1
  Sb  Sb12  1  0.02438334  0.50531083  0.79881246  1
  Sb  Sb13  1  0.97006651  0.50626837  0.18556266  1
  Sb  Sb14  1  0.39608915  0.49795948  0.46548766  1
  Sb  Sb15  1  0.61288997  0.44900814  0.56872369  1
  Sb  Sb16  1  0.53237588  0.00490999  0.81860461  1
  Sb  Sb17  1  0.46336245  0.02682928  0.17492859  1
  S  S18  1  0.92464756  0.01481450  0.77638803  1
  S  S19  1  0.05696829  0.00521512  0.18888811  1
  S  S20  1  0.41923613  0.01292175  0.97991969  1
  S  S21  1  0.58526892  0.99685275  0.02120377  1
  S  S22  1  0.17337030  0.97940260  0.89684689  1
  S  S23  1  0.83100102  0.02798293  0.11366995  1
  S  S24  1  0.08353334  0.44960575  0.65211158  1
  S  S25  1  0.89334549  0.47219877  0.33159842  1
  S  S26  1  0.73473099  0.97344180  0.30556100  1
  S  S27  1  0.27015620  0.95480726  0.69859086  1
  S  S28  1  0.15793076  0.41937633  0.43307946  1
  S  S29  1  0.83265128  0.45266433  0.54382251  1
  S  S30  1  0.44482570  0.50053712  0.81896562  1
  S  S31  1  0.56192977  0.48758379  0.20624962  1
  S  S32  1  0.92082899  0.51389145  0.98591556  1
  S  S33  1  0.08525009  0.53473815  0.00840043  1
  S  S34  1  0.67494814  0.45256773  0.90932565  1
  S  S35  1  0.33406868  0.45075290  0.10686987  1
  S  S36  1  0.59115955  0.96333729  0.66562168  1
  S  S37  1  0.41753059  0.01243189  0.37007972  1
  S  S38  1  0.24792994  0.50323079  0.29606183  1
  S  S39  1  0.77115212  0.47574933  0.67947220  1
  S  S40  1  0.66525201  0.98830752  0.44695183  1
  S  S41  1  0.32057939  0.05918967  0.54807661  1
