# generated using pymatgen
data_Pr2Mn3(SbS3)4
_symmetry_space_group_name_H-M   'P 1'
_cell_length_a   20.02960800
_cell_length_b   3.90410600
_cell_length_c   14.95364829
_cell_angle_alpha   90.00000000
_cell_angle_beta   126.33350609
_cell_angle_gamma   90.00000000
_symmetry_Int_Tables_number   1
_chemical_formula_structural   Pr2Mn3(SbS3)4
_chemical_formula_sum   'Pr4 Mn6 Sb8 S24'
_cell_volume   942.00006694
_cell_formula_units_Z   2
loop_
 _symmetry_equiv_pos_site_id
 _symmetry_equiv_pos_as_xyz
  1  'x, y, z'
loop_
 _atom_site_type_symbol
 _atom_site_label
 _atom_site_symmetry_multiplicity
 _atom_site_fract_x
 _atom_site_fract_y
 _atom_site_fract_z
 _atom_site_occupancy
  Pr  Pr0  1  0.25730663  0.49644260  0.85634673  1
  Pr  Pr1  1  0.72616146  0.54825255  0.12846292  1
  Pr  Pr2  1  0.76619176  0.97963425  0.88166776  1
  Pr  Pr3  1  0.24702581  0.98273691  0.14550322  1
  Mn  Mn4  1  0.28276016  0.58231092  0.58701466  1
  Mn  Mn5  1  0.70104117  0.45449304  0.38443409  1
  Mn  Mn6  1  0.99759539  0.96101164  0.99827508  1
  Mn  Mn7  1  0.79605715  0.99221996  0.59605371  1
  Mn  Mn8  1  0.20143516  0.90678518  0.41459226  1
  Mn  Mn9  1  0.50137753  0.48638737  0.00528743  1
  Sb  Sb10  1  0.89212171  0.00772486  0.44921166  1
  Sb  Sb11  1  0.11120406  0.02846644  0.56163600  1
  Sb  Sb12  1  0.02441300  0.50559637  0.79894499  1
  Sb  Sb13  1  0.97007159  0.50585036  0.18512518  1
  Sb  Sb14  1  0.39617148  0.49723981  0.46540020  1
  Sb  Sb15  1  0.61265110  0.44879515  0.56854779  1
  Sb  Sb16  1  0.53230720  0.00538855  0.81859101  1
  Sb  Sb17  1  0.46324411  0.02558781  0.17483212  1
  S  S18  1  0.92432611  0.01596540  0.77582892  1
  S  S19  1  0.05662439  0.00551632  0.18869885  1
  S  S20  1  0.41923980  0.01383028  0.97974368  1
  S  S21  1  0.58547661  0.99730244  0.02150509  1
  S  S22  1  0.17319997  0.97826322  0.89690625  1
  S  S23  1  0.83061427  0.02812215  0.11333871  1
  S  S24  1  0.08375576  0.44934812  0.65204258  1
  S  S25  1  0.89315513  0.47212742  0.33152381  1
  S  S26  1  0.73502371  0.97610132  0.30583825  1
  S  S27  1  0.27039763  0.95565242  0.69867374  1
  S  S28  1  0.15807216  0.41997673  0.43341871  1
  S  S29  1  0.83221521  0.45336861  0.54324213  1
  S  S30  1  0.44464708  0.49867206  0.81902138  1
  S  S31  1  0.56207215  0.48592224  0.20600210  1
  S  S32  1  0.92079760  0.51298540  0.98607394  1
  S  S33  1  0.08527065  0.53568561  0.00857321  1
  S  S34  1  0.67483451  0.45142369  0.90948821  1
  S  S35  1  0.33421550  0.44919049  0.10673129  1
  S  S36  1  0.59099821  0.96223361  0.66564933  1
  S  S37  1  0.41800368  0.01207136  0.37018802  1
  S  S38  1  0.24812941  0.50370018  0.29614348  1
  S  S39  1  0.77112629  0.47739733  0.67919702  1
  S  S40  1  0.66533057  0.98695836  0.44698952  1
  S  S41  1  0.32059402  0.05797311  0.54816769  1
