# generated using pymatgen
data_Pr2Mn3(SbS3)4
_symmetry_space_group_name_H-M   'P 1'
_cell_length_a   20.02960800
_cell_length_b   3.90410600
_cell_length_c   14.95364829
_cell_angle_alpha   90.00000000
_cell_angle_beta   126.33350609
_cell_angle_gamma   90.00000000
_symmetry_Int_Tables_number   1
_chemical_formula_structural   Pr2Mn3(SbS3)4
_chemical_formula_sum   'Pr4 Mn6 Sb8 S24'
_cell_volume   942.00006694
_cell_formula_units_Z   2
loop_
 _symmetry_equiv_pos_site_id
 _symmetry_equiv_pos_as_xyz
  1  'x, y, z'
loop_
 _atom_site_type_symbol
 _atom_site_label
 _atom_site_symmetry_multiplicity
 _atom_site_fract_x
 _atom_site_fract_y
 _atom_site_fract_z
 _atom_site_occupancy
  Pr  Pr0  1  0.25747430  0.49631713  0.85675106  1
  Pr  Pr1  1  0.72624061  0.54868945  0.12869386  1
  Pr  Pr2  1  0.76595559  0.97979447  0.88145901  1
  Pr  Pr3  1  0.24714081  0.98315597  0.14563465  1
  Mn  Mn4  1  0.28264429  0.58173273  0.58706880  1
  Mn  Mn5  1  0.70130815  0.45444989  0.38470530  1
  Mn  Mn6  1  0.99747224  0.96053669  0.99815036  1
  Mn  Mn7  1  0.79631666  0.99202124  0.59627108  1
  Mn  Mn8  1  0.20150413  0.90606391  0.41461203  1
  Mn  Mn9  1  0.50141854  0.48632819  0.00528677  1
  Sb  Sb10  1  0.89221916  0.00673868  0.44918477  1
  Sb  Sb11  1  0.11137434  0.02869342  0.56195430  1
  Sb  Sb12  1  0.02440396  0.50617510  0.79901227  1
  Sb  Sb13  1  0.97000940  0.50510728  0.18461676  1
  Sb  Sb14  1  0.39626775  0.49659075  0.46536080  1
  Sb  Sb15  1  0.61243084  0.44832341  0.56847175  1
  Sb  Sb16  1  0.53217190  0.00566571  0.81849295  1
  Sb  Sb17  1  0.46308943  0.02420900  0.17469628  1
  S  S18  1  0.92414938  0.01643690  0.77530901  1
  S  S19  1  0.05636301  0.00542006  0.18838773  1
  S  S20  1  0.41918951  0.01450786  0.97937115  1
  S  S21  1  0.58586880  0.99755715  0.02187876  1
  S  S22  1  0.17291395  0.97749434  0.89688262  1
  S  S23  1  0.83017286  0.02783240  0.11303483  1
  S  S24  1  0.08390938  0.44949556  0.65193737  1
  S  S25  1  0.89292495  0.47226802  0.33151186  1
  S  S26  1  0.73549678  0.97910440  0.30623754  1
  S  S27  1  0.27054758  0.95663516  0.69870025  1
  S  S28  1  0.15819900  0.42011857  0.43367625  1
  S  S29  1  0.83178855  0.45331095  0.54278209  1
  S  S30  1  0.44452756  0.49718700  0.81932600  1
  S  S31  1  0.56234270  0.48460844  0.20594059  1
  S  S32  1  0.92069438  0.51178015  0.98602762  1
  S  S33  1  0.08543343  0.53653609  0.00885548  1
  S  S34  1  0.67484694  0.45019094  0.90974180  1
  S  S35  1  0.33433607  0.44775335  0.10661738  1
  S  S36  1  0.59097531  0.96135342  0.66571550  1
  S  S37  1  0.41848228  0.01136476  0.37030351  1
  S  S38  1  0.24832342  0.50339472  0.29617808  1
  S  S39  1  0.77121672  0.47911213  0.67911648  1
  S  S40  1  0.66537463  0.98637401  0.44683758  1
  S  S41  1  0.32060417  0.05733824  0.54820878  1
