# generated using pymatgen
data_Pr2Mn3(SbS3)4
_symmetry_space_group_name_H-M   'P 1'
_cell_length_a   20.02960800
_cell_length_b   3.90410600
_cell_length_c   14.95364829
_cell_angle_alpha   90.00000000
_cell_angle_beta   126.33350609
_cell_angle_gamma   90.00000000
_symmetry_Int_Tables_number   1
_chemical_formula_structural   Pr2Mn3(SbS3)4
_chemical_formula_sum   'Pr4 Mn6 Sb8 S24'
_cell_volume   942.00006694
_cell_formula_units_Z   2
loop_
 _symmetry_equiv_pos_site_id
 _symmetry_equiv_pos_as_xyz
  1  'x, y, z'
loop_
 _atom_site_type_symbol
 _atom_site_label
 _atom_site_symmetry_multiplicity
 _atom_site_fract_x
 _atom_site_fract_y
 _atom_site_fract_z
 _atom_site_occupancy
  Pr  Pr0  1  0.25769567  0.49643299  0.85714824  1
  Pr  Pr1  1  0.72631577  0.54911836  0.12884265  1
  Pr  Pr2  1  0.76572055  0.97982339  0.88129366  1
  Pr  Pr3  1  0.24720475  0.98373748  0.14574148  1
  Mn  Mn4  1  0.28259211  0.58144299  0.58714941  1
  Mn  Mn5  1  0.70155057  0.45407353  0.38494348  1
  Mn  Mn6  1  0.99730672  0.96015669  0.99788664  1
  Mn  Mn7  1  0.79657900  0.99201191  0.59650134  1
  Mn  Mn8  1  0.20166740  0.90537417  0.41462773  1
  Mn  Mn9  1  0.50160180  0.48684794  0.00549462  1
  Sb  Sb10  1  0.89228148  0.00570454  0.44914526  1
  Sb  Sb11  1  0.11156367  0.02898325  0.56231887  1
  Sb  Sb12  1  0.02435277  0.50641782  0.79900152  1
  Sb  Sb13  1  0.96991509  0.50432542  0.18403085  1
  Sb  Sb14  1  0.39635826  0.49609104  0.46524111  1
  Sb  Sb15  1  0.61229438  0.44789350  0.56848046  1
  Sb  Sb16  1  0.53209210  0.00587850  0.81849103  1
  Sb  Sb17  1  0.46296827  0.02323584  0.17458588  1
  S  S18  1  0.92388315  0.01669517  0.77483572  1
  S  S19  1  0.05600109  0.00546815  0.18801641  1
  S  S20  1  0.41913244  0.01548864  0.97874559  1
  S  S21  1  0.58641137  0.99778855  0.02237280  1
  S  S22  1  0.17264817  0.97687458  0.89685642  1
  S  S23  1  0.82969708  0.02746745  0.11242123  1
  S  S24  1  0.08412727  0.44993907  0.65187862  1
  S  S25  1  0.89289312  0.47169534  0.33159271  1
  S  S26  1  0.73585630  0.98164225  0.30662648  1
  S  S27  1  0.27064576  0.95807028  0.69869199  1
  S  S28  1  0.15814159  0.42004924  0.43382863  1
  S  S29  1  0.83147677  0.45328756  0.54256829  1
  S  S30  1  0.44432792  0.49546576  0.81939280  1
  S  S31  1  0.56274918  0.48286321  0.20595278  1
  S  S32  1  0.92061304  0.51105602  0.98606626  1
  S  S33  1  0.08547179  0.53682155  0.00886956  1
  S  S34  1  0.67485081  0.44872857  0.90986315  1
  S  S35  1  0.33468133  0.44669973  0.10668587  1
  S  S36  1  0.59079329  0.96027560  0.66567430  1
  S  S37  1  0.41890324  0.01074383  0.37055792  1
  S  S38  1  0.24854496  0.50244211  0.29623607  1
  S  S39  1  0.77143372  0.48050972  0.67909802  1
  S  S40  1  0.66538167  0.98554209  0.44655030  1
  S  S41  1  0.32053961  0.05596254  0.54802429  1
