# generated using pymatgen
data_Pr2Mn3(SbS3)4
_symmetry_space_group_name_H-M   'P 1'
_cell_length_a   20.02960800
_cell_length_b   3.90410600
_cell_length_c   14.95364829
_cell_angle_alpha   90.00000000
_cell_angle_beta   126.33350609
_cell_angle_gamma   90.00000000
_symmetry_Int_Tables_number   1
_chemical_formula_structural   Pr2Mn3(SbS3)4
_chemical_formula_sum   'Pr4 Mn6 Sb8 S24'
_cell_volume   942.00006694
_cell_formula_units_Z   2
loop_
 _symmetry_equiv_pos_site_id
 _symmetry_equiv_pos_as_xyz
  1  'x, y, z'
loop_
 _atom_site_type_symbol
 _atom_site_label
 _atom_site_symmetry_multiplicity
 _atom_site_fract_x
 _atom_site_fract_y
 _atom_site_fract_z
 _atom_site_occupancy
  Pr  Pr0  1  0.25790011  0.49647005  0.85751811  1
  Pr  Pr1  1  0.72639799  0.54984600  0.12899758  1
  Pr  Pr2  1  0.76557937  0.97995374  0.88122425  1
  Pr  Pr3  1  0.24732420  0.98438709  0.14589050  1
  Mn  Mn4  1  0.28262655  0.58150547  0.58720648  1
  Mn  Mn5  1  0.70185610  0.45404533  0.38531086  1
  Mn  Mn6  1  0.99713291  0.95992758  0.99765465  1
  Mn  Mn7  1  0.79679098  0.99207297  0.59670181  1
  Mn  Mn8  1  0.20178345  0.90494136  0.41469610  1
  Mn  Mn9  1  0.50179458  0.48743366  0.00565695  1
  Sb  Sb10  1  0.89233698  0.00522952  0.44914208  1
  Sb  Sb11  1  0.11168128  0.02913581  0.56260820  1
  Sb  Sb12  1  0.02432277  0.50705745  0.79899778  1
  Sb  Sb13  1  0.96984669  0.50389943  0.18358785  1
  Sb  Sb14  1  0.39648100  0.49595553  0.46523555  1
  Sb  Sb15  1  0.61210220  0.44742063  0.56838277  1
  Sb  Sb16  1  0.53202722  0.00605306  0.81850329  1
  Sb  Sb17  1  0.46290353  0.02217311  0.17451884  1
  S  S18  1  0.92361684  0.01692467  0.77440476  1
  S  S19  1  0.05571783  0.00519307  0.18774551  1
  S  S20  1  0.41918815  0.01718273  0.97850931  1
  S  S21  1  0.58698706  0.99824173  0.02294172  1
  S  S22  1  0.17250389  0.97665405  0.89692605  1
  S  S23  1  0.82938513  0.02673308  0.11189222  1
  S  S24  1  0.08430974  0.45084222  0.65163126  1
  S  S25  1  0.89301166  0.47123796  0.33177169  1
  S  S26  1  0.73607989  0.98389235  0.30685856  1
  S  S27  1  0.27064359  0.95834076  0.69870259  1
  S  S28  1  0.15811349  0.41921506  0.43399034  1
  S  S29  1  0.83137377  0.45328388  0.54232766  1
  S  S30  1  0.44420123  0.49332121  0.81960364  1
  S  S31  1  0.56319521  0.48132553  0.20625293  1
  S  S32  1  0.92060343  0.51072813  0.98608359  1
  S  S33  1  0.08553837  0.53632878  0.00898051  1
  S  S34  1  0.67486611  0.44775488  0.90978734  1
  S  S35  1  0.33481215  0.44576053  0.10670433  1
  S  S36  1  0.59064272  0.95938034  0.66579087  1
  S  S37  1  0.41933988  0.00954368  0.37072863  1
  S  S38  1  0.24877197  0.50159355  0.29632388  1
  S  S39  1  0.77154901  0.48262052  0.67905836  1
  S  S40  1  0.66525695  0.98440769  0.44620196  1
  S  S41  1  0.32046182  0.05528686  0.54751977  1
