# generated using pymatgen
data_Pr2Mn3(SbS3)4
_symmetry_space_group_name_H-M   'P 1'
_cell_length_a   20.02960800
_cell_length_b   3.90410600
_cell_length_c   14.95364829
_cell_angle_alpha   90.00000000
_cell_angle_beta   126.33350609
_cell_angle_gamma   90.00000000
_symmetry_Int_Tables_number   1
_chemical_formula_structural   Pr2Mn3(SbS3)4
_chemical_formula_sum   'Pr4 Mn6 Sb8 S24'
_cell_volume   942.00006694
_cell_formula_units_Z   2
loop_
 _symmetry_equiv_pos_site_id
 _symmetry_equiv_pos_as_xyz
  1  'x, y, z'
loop_
 _atom_site_type_symbol
 _atom_site_label
 _atom_site_symmetry_multiplicity
 _atom_site_fract_x
 _atom_site_fract_y
 _atom_site_fract_z
 _atom_site_occupancy
  Pr  Pr0  1  0.25802238  0.49653795  0.85782323  1
  Pr  Pr1  1  0.72638348  0.55046959  0.12903558  1
  Pr  Pr2  1  0.76549200  0.97987354  0.88118495  1
  Pr  Pr3  1  0.24735875  0.98513649  0.14594609  1
  Mn  Mn4  1  0.28261027  0.58171180  0.58709925  1
  Mn  Mn5  1  0.70217990  0.45387832  0.38569306  1
  Mn  Mn6  1  0.99691059  0.95985356  0.99734312  1
  Mn  Mn7  1  0.79694663  0.99223468  0.59688040  1
  Mn  Mn8  1  0.20186085  0.90449473  0.41463862  1
  Mn  Mn9  1  0.50206512  0.48794972  0.00585908  1
  Sb  Sb10  1  0.89235274  0.00501641  0.44915967  1
  Sb  Sb11  1  0.11177432  0.02961260  0.56290622  1
  Sb  Sb12  1  0.02421940  0.50787729  0.79895723  1
  Sb  Sb13  1  0.96977006  0.50338639  0.18310544  1
  Sb  Sb14  1  0.39657019  0.49599975  0.46521150  1
  Sb  Sb15  1  0.61190166  0.44702406  0.56832888  1
  Sb  Sb16  1  0.53189926  0.00653186  0.81844639  1
  Sb  Sb17  1  0.46273812  0.02110070  0.17448122  1
  S  S18  1  0.92339496  0.01701045  0.77392553  1
  S  S19  1  0.05540317  0.00477929  0.18750323  1
  S  S20  1  0.41923449  0.01892031  0.97851843  1
  S  S21  1  0.58736842  0.99900358  0.02343683  1
  S  S22  1  0.17247728  0.97634871  0.89697555  1
  S  S23  1  0.82909129  0.02654157  0.11140167  1
  S  S24  1  0.08443322  0.45154642  0.65125646  1
  S  S25  1  0.89317376  0.47066845  0.33212958  1
  S  S26  1  0.73632464  0.98621707  0.30711989  1
  S  S27  1  0.27050846  0.95858907  0.69864236  1
  S  S28  1  0.15820021  0.41838695  0.43413113  1
  S  S29  1  0.83137994  0.45301313  0.54219033  1
  S  S30  1  0.44415936  0.49155184  0.81991284  1
  S  S31  1  0.56358531  0.47990577  0.20651288  1
  S  S32  1  0.92052329  0.51090195  0.98624376  1
  S  S33  1  0.08549153  0.53567337  0.00906421  1
  S  S34  1  0.67477717  0.44675579  0.90964539  1
  S  S35  1  0.33495414  0.44497419  0.10668239  1
  S  S36  1  0.59066607  0.95841149  0.66604578  1
  S  S37  1  0.41976545  0.00850168  0.37089151  1
  S  S38  1  0.24890300  0.50028821  0.29627563  1
  S  S39  1  0.77160581  0.48430839  0.67904921  1
  S  S40  1  0.66522629  0.98430624  0.44576552  1
  S  S41  1  0.32045369  0.05456413  0.54714187  1
