# generated using pymatgen
data_Pr2Mn3(SbS3)4
_symmetry_space_group_name_H-M   'P 1'
_cell_length_a   20.02960800
_cell_length_b   3.90410600
_cell_length_c   14.95364829
_cell_angle_alpha   90.00000000
_cell_angle_beta   126.33350609
_cell_angle_gamma   90.00000000
_symmetry_Int_Tables_number   1
_chemical_formula_structural   Pr2Mn3(SbS3)4
_chemical_formula_sum   'Pr4 Mn6 Sb8 S24'
_cell_volume   942.00006694
_cell_formula_units_Z   2
loop_
 _symmetry_equiv_pos_site_id
 _symmetry_equiv_pos_as_xyz
  1  'x, y, z'
loop_
 _atom_site_type_symbol
 _atom_site_label
 _atom_site_symmetry_multiplicity
 _atom_site_fract_x
 _atom_site_fract_y
 _atom_site_fract_z
 _atom_site_occupancy
  Pr  Pr0  1  0.25811993  0.49632330  0.85810712  1
  Pr  Pr1  1  0.72632587  0.55098774  0.12902381  1
  Pr  Pr2  1  0.76538665  0.97974740  0.88113651  1
  Pr  Pr3  1  0.24744154  0.98613788  0.14598714  1
  Mn  Mn4  1  0.28256263  0.58179505  0.58709956  1
  Mn  Mn5  1  0.70249613  0.45444463  0.38597447  1
  Mn  Mn6  1  0.99677641  0.95984325  0.99704577  1
  Mn  Mn7  1  0.79695847  0.99277633  0.59683717  1
  Mn  Mn8  1  0.20204337  0.90394007  0.41458306  1
  Mn  Mn9  1  0.50235198  0.48858277  0.00603960  1
  Sb  Sb10  1  0.89232641  0.00467886  0.44909814  1
  Sb  Sb11  1  0.11185746  0.03004451  0.56319506  1
  Sb  Sb12  1  0.02404367  0.50836916  0.79884991  1
  Sb  Sb13  1  0.96970873  0.50258478  0.18272671  1
  Sb  Sb14  1  0.39668404  0.49584318  0.46512408  1
  Sb  Sb15  1  0.61171012  0.44640231  0.56828067  1
  Sb  Sb16  1  0.53180472  0.00694996  0.81832432  1
  Sb  Sb17  1  0.46254775  0.02035619  0.17442264  1
  S  S18  1  0.92304133  0.01715704  0.77335739  1
  S  S19  1  0.05508591  0.00411323  0.18692087  1
  S  S20  1  0.41923748  0.02028644  0.97832135  1
  S  S21  1  0.58766576  0.00005729  0.02366164  1
  S  S22  1  0.17264326  0.97665100  0.89717279  1
  S  S23  1  0.82901927  0.02652735  0.11118289  1
  S  S24  1  0.08467337  0.45280076  0.65112032  1
  S  S25  1  0.89331658  0.46948986  0.33259426  1
  S  S26  1  0.73663478  0.98792725  0.30731374  1
  S  S27  1  0.27044628  0.95893563  0.69854132  1
  S  S28  1  0.15837378  0.41746390  0.43423905  1
  S  S29  1  0.83152833  0.45227482  0.54214109  1
  S  S30  1  0.44420903  0.49071377  0.82031025  1
  S  S31  1  0.56386301  0.47865592  0.20657706  1
  S  S32  1  0.92045321  0.51098882  0.98654325  1
  S  S33  1  0.08549219  0.53532743  0.00928262  1
  S  S34  1  0.67462447  0.44622714  0.90975116  1
  S  S35  1  0.33517168  0.44415586  0.10666135  1
  S  S36  1  0.59065107  0.95724006  0.66629368  1
  S  S37  1  0.42018653  0.00807711  0.37092710  1
  S  S38  1  0.24884343  0.49887779  0.29591233  1
  S  S39  1  0.77159004  0.48589413  0.67889579  1
  S  S40  1  0.66528756  0.98429526  0.44543285  1
  S  S41  1  0.32049586  0.05342214  0.54684585  1
