# generated using pymatgen
data_Pr2Mn3(SbS3)4
_symmetry_space_group_name_H-M   'P 1'
_cell_length_a   20.02960800
_cell_length_b   3.90410600
_cell_length_c   14.95364829
_cell_angle_alpha   90.00000000
_cell_angle_beta   126.33350609
_cell_angle_gamma   90.00000000
_symmetry_Int_Tables_number   1
_chemical_formula_structural   Pr2Mn3(SbS3)4
_chemical_formula_sum   'Pr4 Mn6 Sb8 S24'
_cell_volume   942.00006694
_cell_formula_units_Z   2
loop_
 _symmetry_equiv_pos_site_id
 _symmetry_equiv_pos_as_xyz
  1  'x, y, z'
loop_
 _atom_site_type_symbol
 _atom_site_label
 _atom_site_symmetry_multiplicity
 _atom_site_fract_x
 _atom_site_fract_y
 _atom_site_fract_z
 _atom_site_occupancy
  Pr  Pr0  1  0.26985137  0.49521192  0.86717067  1
  Pr  Pr1  1  0.73393697  0.51414732  0.13270359  1
  Pr  Pr2  1  0.76402805  0.02437461  0.86321894  1
  Pr  Pr3  1  0.23339320  0.99662521  0.13114114  1
  Mn  Mn4  1  0.29625226  0.47526854  0.59940880  1
  Mn  Mn5  1  0.68621661  0.46136554  0.36339675  1
  Mn  Mn6  1  0.00500999  0.98896845  0.01054354  1
  Mn  Mn7  1  0.79734883  0.00310732  0.61784162  1
  Mn  Mn8  1  0.19648514  0.97772053  0.36840915  1
  Mn  Mn9  1  0.48702552  0.46713327  0.98557244  1
  Sb  Sb10  1  0.88837213  0.98761631  0.45126976  1
  Sb  Sb11  1  0.10922304  0.97991705  0.54484040  1
  Sb  Sb12  1  0.03557872  0.52687570  0.81996992  1
  Sb  Sb13  1  0.96718789  0.49807674  0.19030748  1
  Sb  Sb14  1  0.39238465  0.50089507  0.44790778  1
  Sb  Sb15  1  0.60568857  0.47422316  0.54713577  1
  Sb  Sb16  1  0.53402546  0.98250079  0.80874132  1
  Sb  Sb17  1  0.46550106  0.01533080  0.19053401  1
  S  S18  1  0.93590256  0.02283408  0.80776722  1
  S  S19  1  0.06486946  0.99403642  0.19863361  1
  S  S20  1  0.41992207  0.95460890  0.99080458  1
  S  S21  1  0.58422430  0.02600023  0.01508148  1
  S  S22  1  0.16952104  0.05492252  0.90009501  1
  S  S23  1  0.82691195  0.04070541  0.10186282  1
  S  S24  1  0.08996114  0.50333588  0.64593706  1
  S  S25  1  0.91644280  0.47986929  0.35838690  1
  S  S26  1  0.73918955  0.98780570  0.30352960  1
  S  S27  1  0.26079389  0.00526317  0.71240059  1
  S  S28  1  0.16557941  0.51801584  0.43301100  1
  S  S29  1  0.81665938  0.48834505  0.54652122  1
  S  S30  1  0.43130088  0.47531133  0.79588685  1
  S  S31  1  0.55453542  0.52313017  0.18076251  1
  S  S32  1  0.91860820  0.50123668  0.98896571  1
  S  S33  1  0.09253052  0.48932700  0.03186044  1
  S  S34  1  0.66308187  0.55355336  0.89366549  1
  S  S35  1  0.32576544  0.48875322  0.09185392  1
  S  S36  1  0.59308017  0.99645065  0.65099084  1
  S  S37  1  0.39974856  0.98831872  0.34342876  1
  S  S38  1  0.24262788  0.46347735  0.31576892  1
  S  S39  1  0.75960342  0.52400343  0.68769485  1
  S  S40  1  0.66391859  0.00146583  0.44802778  1
  S  S41  1  0.33201254  0.97869570  0.55599837  1
