# generated using pymatgen
data_Pr2Mn3(SbS3)4
_symmetry_space_group_name_H-M   'P 1'
_cell_length_a   20.02960800
_cell_length_b   3.90410600
_cell_length_c   14.95364829
_cell_angle_alpha   90.00000000
_cell_angle_beta   126.33350609
_cell_angle_gamma   90.00000000
_symmetry_Int_Tables_number   1
_chemical_formula_structural   Pr2Mn3(SbS3)4
_chemical_formula_sum   'Pr4 Mn6 Sb8 S24'
_cell_volume   942.00006694
_cell_formula_units_Z   2
loop_
 _symmetry_equiv_pos_site_id
 _symmetry_equiv_pos_as_xyz
  1  'x, y, z'
loop_
 _atom_site_type_symbol
 _atom_site_label
 _atom_site_symmetry_multiplicity
 _atom_site_fract_x
 _atom_site_fract_y
 _atom_site_fract_z
 _atom_site_occupancy
  Pr  Pr0  1  0.25824510  0.49617668  0.85837595  1
  Pr  Pr1  1  0.72628133  0.55139276  0.12901897  1
  Pr  Pr2  1  0.76524511  0.97995485  0.88106315  1
  Pr  Pr3  1  0.24752590  0.98713876  0.14609728  1
  Mn  Mn4  1  0.28245407  0.58185247  0.58718752  1
  Mn  Mn5  1  0.70278297  0.45502417  0.38611569  1
  Mn  Mn6  1  0.99665892  0.95976875  0.99679060  1
  Mn  Mn7  1  0.79697938  0.99295104  0.59670351  1
  Mn  Mn8  1  0.20222330  0.90366382  0.41458041  1
  Mn  Mn9  1  0.50251047  0.48901550  0.00600004  1
  Sb  Sb10  1  0.89231614  0.00415229  0.44908717  1
  Sb  Sb11  1  0.11188704  0.03081225  0.56339618  1
  Sb  Sb12  1  0.02394396  0.50893447  0.79884712  1
  Sb  Sb13  1  0.96972448  0.50171141  0.18252663  1
  Sb  Sb14  1  0.39684197  0.49578306  0.46514878  1
  Sb  Sb15  1  0.61153584  0.44569811  0.56818998  1
  Sb  Sb16  1  0.53173226  0.00707827  0.81823810  1
  Sb  Sb17  1  0.46242918  0.01942542  0.17440181  1
  S  S18  1  0.92263024  0.01751028  0.77272584  1
  S  S19  1  0.05498392  0.00424642  0.18659500  1
  S  S20  1  0.41926342  0.02143827  0.97839091  1
  S  S21  1  0.58778192  0.00082774  0.02355834  1
  S  S22  1  0.17289627  0.97613151  0.89747531  1
  S  S23  1  0.82893582  0.02590980  0.11081661  1
  S  S24  1  0.08485700  0.45372264  0.65102855  1
  S  S25  1  0.89350503  0.46909139  0.33314369  1
  S  S26  1  0.73695234  0.98950111  0.30744344  1
  S  S27  1  0.27034452  0.95931117  0.69846461  1
  S  S28  1  0.15848778  0.41709416  0.43440488  1
  S  S29  1  0.83150433  0.45158226  0.54191660  1
  S  S30  1  0.44424724  0.49009282  0.82047700  1
  S  S31  1  0.56426768  0.47743807  0.20677246  1
  S  S32  1  0.92027485  0.51019293  0.98672593  1
  S  S33  1  0.08562189  0.53505894  0.00939484  1
  S  S34  1  0.67447077  0.44608164  0.90979505  1
  S  S35  1  0.33537135  0.44362704  0.10656295  1
  S  S36  1  0.59074687  0.95624544  0.66659464  1
  S  S37  1  0.42065925  0.00711981  0.37109149  1
  S  S38  1  0.24887273  0.49797005  0.29575626  1
  S  S39  1  0.77143827  0.48672549  0.67863141  1
  S  S40  1  0.66520851  0.98393515  0.44499474  1
  S  S41  1  0.32076134  0.05282751  0.54671373  1
