# generated using pymatgen
data_Pr2Mn3(SbS3)4
_symmetry_space_group_name_H-M   'P 1'
_cell_length_a   20.02960800
_cell_length_b   3.90410600
_cell_length_c   14.95364829
_cell_angle_alpha   90.00000000
_cell_angle_beta   126.33350609
_cell_angle_gamma   90.00000000
_symmetry_Int_Tables_number   1
_chemical_formula_structural   Pr2Mn3(SbS3)4
_chemical_formula_sum   'Pr4 Mn6 Sb8 S24'
_cell_volume   942.00006694
_cell_formula_units_Z   2
loop_
 _symmetry_equiv_pos_site_id
 _symmetry_equiv_pos_as_xyz
  1  'x, y, z'
loop_
 _atom_site_type_symbol
 _atom_site_label
 _atom_site_symmetry_multiplicity
 _atom_site_fract_x
 _atom_site_fract_y
 _atom_site_fract_z
 _atom_site_occupancy
  Pr  Pr0  1  0.25833045  0.49615613  0.85865535  1
  Pr  Pr1  1  0.72621941  0.55158450  0.12899678  1
  Pr  Pr2  1  0.76510992  0.98027802  0.88089419  1
  Pr  Pr3  1  0.24762951  0.98828621  0.14622294  1
  Mn  Mn4  1  0.28223107  0.58203387  0.58725164  1
  Mn  Mn5  1  0.70303911  0.45579168  0.38630280  1
  Mn  Mn6  1  0.99664169  0.95961668  0.99657824  1
  Mn  Mn7  1  0.79704406  0.99293132  0.59661867  1
  Mn  Mn8  1  0.20239829  0.90332231  0.41460035  1
  Mn  Mn9  1  0.50270019  0.48955986  0.00593404  1
  Sb  Sb10  1  0.89231911  0.00336823  0.44907798  1
  Sb  Sb11  1  0.11196655  0.03138823  0.56370014  1
  Sb  Sb12  1  0.02386478  0.50905372  0.79884531  1
  Sb  Sb13  1  0.96980476  0.50116216  0.18240798  1
  Sb  Sb14  1  0.39697204  0.49586596  0.46515648  1
  Sb  Sb15  1  0.61132672  0.44499145  0.56809276  1
  Sb  Sb16  1  0.53163095  0.00748438  0.81815872  1
  Sb  Sb17  1  0.46240785  0.01858620  0.17451073  1
  S  S18  1  0.92256129  0.01775071  0.77223115  1
  S  S19  1  0.05496909  0.00386191  0.18637258  1
  S  S20  1  0.41950225  0.02242197  0.97868982  1
  S  S21  1  0.58791137  0.00101945  0.02340038  1
  S  S22  1  0.17316838  0.97515786  0.89763753  1
  S  S23  1  0.82908480  0.02546700  0.11069170  1
  S  S24  1  0.08506524  0.45503943  0.65099322  1
  S  S25  1  0.89370814  0.46846405  0.33344307  1
  S  S26  1  0.73713659  0.99097906  0.30738946  1
  S  S27  1  0.27018343  0.95997977  0.69821246  1
  S  S28  1  0.15849923  0.41681650  0.43445825  1
  S  S29  1  0.83157733  0.45084296  0.54176412  1
  S  S30  1  0.44430807  0.48932684  0.82070524  1
  S  S31  1  0.56455309  0.47680963  0.20684805  1
  S  S32  1  0.92011963  0.51003064  0.98675682  1
  S  S33  1  0.08581254  0.53469753  0.00947613  1
  S  S34  1  0.67429701  0.44628044  0.90993462  1
  S  S35  1  0.33553652  0.44320349  0.10631748  1
  S  S36  1  0.59094262  0.95502343  0.66687504  1
  S  S37  1  0.42098009  0.00624035  0.37093078  1
  S  S38  1  0.24894096  0.49666237  0.29559797  1
  S  S39  1  0.77140293  0.48753934  0.67853004  1
  S  S40  1  0.66518081  0.98334817  0.44460122  1
  S  S41  1  0.32096524  0.05220047  0.54665497  1
