# generated using pymatgen
data_Pr2Mn3(SbS3)4
_symmetry_space_group_name_H-M   'P 1'
_cell_length_a   20.02960800
_cell_length_b   3.90410600
_cell_length_c   14.95364829
_cell_angle_alpha   90.00000000
_cell_angle_beta   126.33350609
_cell_angle_gamma   90.00000000
_symmetry_Int_Tables_number   1
_chemical_formula_structural   Pr2Mn3(SbS3)4
_chemical_formula_sum   'Pr4 Mn6 Sb8 S24'
_cell_volume   942.00006694
_cell_formula_units_Z   2
loop_
 _symmetry_equiv_pos_site_id
 _symmetry_equiv_pos_as_xyz
  1  'x, y, z'
loop_
 _atom_site_type_symbol
 _atom_site_label
 _atom_site_symmetry_multiplicity
 _atom_site_fract_x
 _atom_site_fract_y
 _atom_site_fract_z
 _atom_site_occupancy
  Pr  Pr0  1  0.25842927  0.49594722  0.85899790  1
  Pr  Pr1  1  0.72613681  0.55196043  0.12891496  1
  Pr  Pr2  1  0.76502693  0.98045532  0.88075865  1
  Pr  Pr3  1  0.24764787  0.98929666  0.14619839  1
  Mn  Mn4  1  0.28205900  0.58250255  0.58739605  1
  Mn  Mn5  1  0.70324125  0.45633169  0.38649746  1
  Mn  Mn6  1  0.99679005  0.95955785  0.99656136  1
  Mn  Mn7  1  0.79722133  0.99319738  0.59662754  1
  Mn  Mn8  1  0.20259024  0.90251257  0.41455608  1
  Mn  Mn9  1  0.50287369  0.48968798  0.00588391  1
  Sb  Sb10  1  0.89236297  0.00303582  0.44915383  1
  Sb  Sb11  1  0.11208812  0.03169784  0.56400317  1
  Sb  Sb12  1  0.02372240  0.50925781  0.79875342  1
  Sb  Sb13  1  0.96998800  0.50030808  0.18227252  1
  Sb  Sb14  1  0.39703136  0.49593985  0.46497836  1
  Sb  Sb15  1  0.61114262  0.44413982  0.56799665  1
  Sb  Sb16  1  0.53154519  0.00803608  0.81809691  1
  Sb  Sb17  1  0.46237539  0.01769912  0.17465774  1
  S  S18  1  0.92241508  0.01774389  0.77165387  1
  S  S19  1  0.05488556  0.00312305  0.18612404  1
  S  S20  1  0.41970117  0.02300015  0.97907501  1
  S  S21  1  0.58799740  0.00110930  0.02312830  1
  S  S22  1  0.17327718  0.97464902  0.89767660  1
  S  S23  1  0.82924572  0.02526821  0.11057207  1
  S  S24  1  0.08523511  0.45640799  0.65087363  1
  S  S25  1  0.89401218  0.46783562  0.33391678  1
  S  S26  1  0.73742712  0.99229977  0.30754449  1
  S  S27  1  0.27002586  0.96102692  0.69788116  1
  S  S28  1  0.15859661  0.41635865  0.43457501  1
  S  S29  1  0.83170099  0.45021852  0.54177167  1
  S  S30  1  0.44419708  0.48883429  0.82090350  1
  S  S31  1  0.56471674  0.47661144  0.20693006  1
  S  S32  1  0.91990317  0.51049081  0.98648900  1
  S  S33  1  0.08602877  0.53447693  0.00964379  1
  S  S34  1  0.67411345  0.44710838  0.90989311  1
  S  S35  1  0.33558979  0.44280847  0.10583398  1
  S  S36  1  0.59111071  0.95389452  0.66702092  1
  S  S37  1  0.42142378  0.00541583  0.37077596  1
  S  S38  1  0.24909976  0.49550323  0.29540655  1
  S  S39  1  0.77144478  0.48800972  0.67857513  1
  S  S40  1  0.66514621  0.98249588  0.44444013  1
  S  S41  1  0.32113020  0.05138325  0.54648501  1
