# generated using pymatgen
data_Pr2Mn3(SbS3)4
_symmetry_space_group_name_H-M   'P 1'
_cell_length_a   20.02960800
_cell_length_b   3.90410600
_cell_length_c   14.95364829
_cell_angle_alpha   90.00000000
_cell_angle_beta   126.33350609
_cell_angle_gamma   90.00000000
_symmetry_Int_Tables_number   1
_chemical_formula_structural   Pr2Mn3(SbS3)4
_chemical_formula_sum   'Pr4 Mn6 Sb8 S24'
_cell_volume   942.00006694
_cell_formula_units_Z   2
loop_
 _symmetry_equiv_pos_site_id
 _symmetry_equiv_pos_as_xyz
  1  'x, y, z'
loop_
 _atom_site_type_symbol
 _atom_site_label
 _atom_site_symmetry_multiplicity
 _atom_site_fract_x
 _atom_site_fract_y
 _atom_site_fract_z
 _atom_site_occupancy
  Pr  Pr0  1  0.25848778  0.49577788  0.85932514  1
  Pr  Pr1  1  0.72602580  0.55218262  0.12890569  1
  Pr  Pr2  1  0.76491473  0.98042937  0.88057561  1
  Pr  Pr3  1  0.24766274  0.99035435  0.14618532  1
  Mn  Mn4  1  0.28196954  0.58260175  0.58762403  1
  Mn  Mn5  1  0.70355846  0.45692202  0.38670291  1
  Mn  Mn6  1  0.99687428  0.95995627  0.99646622  1
  Mn  Mn7  1  0.79726131  0.99314848  0.59649724  1
  Mn  Mn8  1  0.20281414  0.90201635  0.41466746  1
  Mn  Mn9  1  0.50290348  0.48950848  0.00580621  1
  Sb  Sb10  1  0.89239595  0.00297971  0.44918507  1
  Sb  Sb11  1  0.11218270  0.03198516  0.56431196  1
  Sb  Sb12  1  0.02360003  0.50942171  0.79870346  1
  Sb  Sb13  1  0.97010795  0.49948383  0.18214404  1
  Sb  Sb14  1  0.39712799  0.49628897  0.46484054  1
  Sb  Sb15  1  0.61089977  0.44299093  0.56791360  1
  Sb  Sb16  1  0.53159561  0.00874035  0.81820587  1
  Sb  Sb17  1  0.46235194  0.01715782  0.17471513  1
  S  S18  1  0.92233631  0.01782056  0.77128026  1
  S  S19  1  0.05476296  0.00203366  0.18574074  1
  S  S20  1  0.41993554  0.02348291  0.97952707  1
  S  S21  1  0.58813508  0.00054118  0.02302473  1
  S  S22  1  0.17316366  0.97410299  0.89737748  1
  S  S23  1  0.82929892  0.02474679  0.11055936  1
  S  S24  1  0.08544256  0.45746827  0.65077476  1
  S  S25  1  0.89443252  0.46753625  0.33420559  1
  S  S26  1  0.73757393  0.99396058  0.30758337  1
  S  S27  1  0.26988646  0.96146461  0.69765230  1
  S  S28  1  0.15880761  0.41595154  0.43482182  1
  S  S29  1  0.83187704  0.44927835  0.54165357  1
  S  S30  1  0.44403348  0.48855131  0.82109299  1
  S  S31  1  0.56495042  0.47730022  0.20702876  1
  S  S32  1  0.91948777  0.51065325  0.98588284  1
  S  S33  1  0.08613377  0.53457690  0.00964773  1
  S  S34  1  0.67408091  0.44795758  0.91000699  1
  S  S35  1  0.33551967  0.44257165  0.10531254  1
  S  S36  1  0.59124079  0.95329846  0.66738816  1
  S  S37  1  0.42180148  0.00471969  0.37067989  1
  S  S38  1  0.24924839  0.49484721  0.29523732  1
  S  S39  1  0.77141300  0.48926054  0.67866070  1
  S  S40  1  0.66516179  0.98172027  0.44427960  1
  S  S41  1  0.32123709  0.05077579  0.54621891  1
