# generated using pymatgen
data_Pr2Mn3(SbS3)4
_symmetry_space_group_name_H-M   'P 1'
_cell_length_a   20.02960800
_cell_length_b   3.90410600
_cell_length_c   14.95364829
_cell_angle_alpha   90.00000000
_cell_angle_beta   126.33350609
_cell_angle_gamma   90.00000000
_symmetry_Int_Tables_number   1
_chemical_formula_structural   Pr2Mn3(SbS3)4
_chemical_formula_sum   'Pr4 Mn6 Sb8 S24'
_cell_volume   942.00006694
_cell_formula_units_Z   2
loop_
 _symmetry_equiv_pos_site_id
 _symmetry_equiv_pos_as_xyz
  1  'x, y, z'
loop_
 _atom_site_type_symbol
 _atom_site_label
 _atom_site_symmetry_multiplicity
 _atom_site_fract_x
 _atom_site_fract_y
 _atom_site_fract_z
 _atom_site_occupancy
  Pr  Pr0  1  0.25851424  0.49550354  0.85963681  1
  Pr  Pr1  1  0.72586815  0.55244134  0.12880808  1
  Pr  Pr2  1  0.76476023  0.98048221  0.88046289  1
  Pr  Pr3  1  0.24771390  0.99150613  0.14620293  1
  Mn  Mn4  1  0.28187995  0.58265544  0.58781059  1
  Mn  Mn5  1  0.70378859  0.45749647  0.38690803  1
  Mn  Mn6  1  0.99701091  0.96010555  0.99636086  1
  Mn  Mn7  1  0.79725804  0.99245855  0.59635662  1
  Mn  Mn8  1  0.20303431  0.90148817  0.41480576  1
  Mn  Mn9  1  0.50289309  0.48949058  0.00555959  1
  Sb  Sb10  1  0.89237494  0.00332101  0.44921713  1
  Sb  Sb11  1  0.11232966  0.03300152  0.56467856  1
  Sb  Sb12  1  0.02349194  0.50951285  0.79863924  1
  Sb  Sb13  1  0.97014727  0.49886783  0.18200416  1
  Sb  Sb14  1  0.39733992  0.49672638  0.46482356  1
  Sb  Sb15  1  0.61068024  0.44191304  0.56775159  1
  Sb  Sb16  1  0.53167058  0.00902936  0.81841110  1
  Sb  Sb17  1  0.46231178  0.01658104  0.17470287  1
  S  S18  1  0.92214861  0.01815670  0.77065847  1
  S  S19  1  0.05453608  0.00115173  0.18534908  1
  S  S20  1  0.42005919  0.02429362  0.97995923  1
  S  S21  1  0.58828150  0.00051999  0.02286810  1
  S  S22  1  0.17298734  0.97385732  0.89704536  1
  S  S23  1  0.82942114  0.02455993  0.11044298  1
  S  S24  1  0.08554095  0.45867450  0.65049120  1
  S  S25  1  0.89490080  0.46681490  0.33442888  1
  S  S26  1  0.73778534  0.99522034  0.30755112  1
  S  S27  1  0.26974999  0.96229295  0.69760461  1
  S  S28  1  0.15911230  0.41612407  0.43516260  1
  S  S29  1  0.83202173  0.44773725  0.54137067  1
  S  S30  1  0.44371628  0.48817399  0.82107454  1
  S  S31  1  0.56506196  0.47835111  0.20717731  1
  S  S32  1  0.91914420  0.51116545  0.98547663  1
  S  S33  1  0.08622474  0.53423594  0.00966485  1
  S  S34  1  0.67401348  0.44866029  0.91023281  1
  S  S35  1  0.33548390  0.44218259  0.10488261  1
  S  S36  1  0.59152513  0.95237415  0.66797751  1
  S  S37  1  0.42210254  0.00456918  0.37061056  1
  S  S38  1  0.24945366  0.49413763  0.29486064  1
  S  S39  1  0.77141208  0.49064534  0.67886311  1
  S  S40  1  0.66523771  0.98074494  0.44411686  1
  S  S41  1  0.32147493  0.05099446  0.54611509  1
