# generated using pymatgen
data_Pr2Mn3(SbS3)4
_symmetry_space_group_name_H-M   'P 1'
_cell_length_a   20.02960800
_cell_length_b   3.90410600
_cell_length_c   14.95364829
_cell_angle_alpha   90.00000000
_cell_angle_beta   126.33350609
_cell_angle_gamma   90.00000000
_symmetry_Int_Tables_number   1
_chemical_formula_structural   Pr2Mn3(SbS3)4
_chemical_formula_sum   'Pr4 Mn6 Sb8 S24'
_cell_volume   942.00006694
_cell_formula_units_Z   2
loop_
 _symmetry_equiv_pos_site_id
 _symmetry_equiv_pos_as_xyz
  1  'x, y, z'
loop_
 _atom_site_type_symbol
 _atom_site_label
 _atom_site_symmetry_multiplicity
 _atom_site_fract_x
 _atom_site_fract_y
 _atom_site_fract_z
 _atom_site_occupancy
  Pr  Pr0  1  0.25852525  0.49523982  0.85982943  1
  Pr  Pr1  1  0.72573728  0.55234008  0.12868980  1
  Pr  Pr2  1  0.76461171  0.98071680  0.88035976  1
  Pr  Pr3  1  0.24771543  0.99248125  0.14621132  1
  Mn  Mn4  1  0.28194755  0.58271871  0.58811291  1
  Mn  Mn5  1  0.70401049  0.45793548  0.38706702  1
  Mn  Mn6  1  0.99715275  0.95978921  0.99612233  1
  Mn  Mn7  1  0.79735919  0.99218419  0.59611249  1
  Mn  Mn8  1  0.20327395  0.90063431  0.41493520  1
  Mn  Mn9  1  0.50300193  0.48972748  0.00540749  1
  Sb  Sb10  1  0.89234216  0.00337437  0.44925663  1
  Sb  Sb11  1  0.11244849  0.03400370  0.56493848  1
  Sb  Sb12  1  0.02343889  0.50958771  0.79863075  1
  Sb  Sb13  1  0.97022077  0.49856223  0.18189323  1
  Sb  Sb14  1  0.39756716  0.49721990  0.46478526  1
  Sb  Sb15  1  0.61049051  0.44120324  0.56762298  1
  Sb  Sb16  1  0.53167634  0.00949295  0.81855370  1
  Sb  Sb17  1  0.46238280  0.01603041  0.17471643  1
  S  S18  1  0.92199638  0.01879070  0.77026957  1
  S  S19  1  0.05440057  0.00009337  0.18498702  1
  S  S20  1  0.42007194  0.02462680  0.98038895  1
  S  S21  1  0.58842707  0.00008620  0.02283661  1
  S  S22  1  0.17285209  0.97401253  0.89675055  1
  S  S23  1  0.82959628  0.02366959  0.11056201  1
  S  S24  1  0.08566088  0.45997495  0.65023914  1
  S  S25  1  0.89527392  0.46673655  0.33466294  1
  S  S26  1  0.73789505  0.99660564  0.30744755  1
  S  S27  1  0.26953260  0.96321023  0.69754321  1
  S  S28  1  0.15940739  0.41618391  0.43546556  1
  S  S29  1  0.83216811  0.44606139  0.54094965  1
  S  S30  1  0.44331830  0.48701369  0.82092131  1
  S  S31  1  0.56503217  0.47907979  0.20720323  1
  S  S32  1  0.91878259  0.51108668  0.98502197  1
  S  S33  1  0.08627319  0.53381725  0.00979726  1
  S  S34  1  0.67384405  0.44893792  0.91032568  1
  S  S35  1  0.33528620  0.44260082  0.10443465  1
  S  S36  1  0.59188031  0.95163326  0.66857883  1
  S  S37  1  0.42238176  0.00450682  0.37046037  1
  S  S38  1  0.24966665  0.49387038  0.29456970  1
  S  S39  1  0.77127914  0.49147541  0.67892904  1
  S  S40  1  0.66513471  0.97993719  0.44410741  1
  S  S41  1  0.32180285  0.05121969  0.54591066  1
