# generated using pymatgen
data_Pr2Mn3(SbS3)4
_symmetry_space_group_name_H-M   'P 1'
_cell_length_a   20.02960800
_cell_length_b   3.90410600
_cell_length_c   14.95364829
_cell_angle_alpha   90.00000000
_cell_angle_beta   126.33350609
_cell_angle_gamma   90.00000000
_symmetry_Int_Tables_number   1
_chemical_formula_structural   Pr2Mn3(SbS3)4
_chemical_formula_sum   'Pr4 Mn6 Sb8 S24'
_cell_volume   942.00006694
_cell_formula_units_Z   2
loop_
 _symmetry_equiv_pos_site_id
 _symmetry_equiv_pos_as_xyz
  1  'x, y, z'
loop_
 _atom_site_type_symbol
 _atom_site_label
 _atom_site_symmetry_multiplicity
 _atom_site_fract_x
 _atom_site_fract_y
 _atom_site_fract_z
 _atom_site_occupancy
  Pr  Pr0  1  0.25851240  0.49502921  0.85997723  1
  Pr  Pr1  1  0.72563850  0.55250982  0.12863338  1
  Pr  Pr2  1  0.76445515  0.98082371  0.88022616  1
  Pr  Pr3  1  0.24772004  0.99356630  0.14626983  1
  Mn  Mn4  1  0.28199559  0.58264550  0.58831561  1
  Mn  Mn5  1  0.70433529  0.45813883  0.38724963  1
  Mn  Mn6  1  0.99722901  0.95918771  0.99590540  1
  Mn  Mn7  1  0.79747839  0.99189401  0.59599061  1
  Mn  Mn8  1  0.20349092  0.89999674  0.41505487  1
  Mn  Mn9  1  0.50301507  0.49004699  0.00518879  1
  Sb  Sb10  1  0.89235018  0.00337055  0.44930354  1
  Sb  Sb11  1  0.11254953  0.03478698  0.56527499  1
  Sb  Sb12  1  0.02340743  0.50961234  0.79860409  1
  Sb  Sb13  1  0.97029343  0.49826948  0.18177952  1
  Sb  Sb14  1  0.39775241  0.49780758  0.46478726  1
  Sb  Sb15  1  0.61024096  0.44053868  0.56748180  1
  Sb  Sb16  1  0.53166435  0.01028543  0.81860391  1
  Sb  Sb17  1  0.46244620  0.01552486  0.17471343  1
  S  S18  1  0.92196988  0.01888918  0.76995458  1
  S  S19  1  0.05435344  0.99877296  0.18456891  1
  S  S20  1  0.42015377  0.02467261  0.98082418  1
  S  S21  1  0.58848389  0.99962423  0.02295720  1
  S  S22  1  0.17270572  0.97475776  0.89634336  1
  S  S23  1  0.82965551  0.02378226  0.11036640  1
  S  S24  1  0.08579095  0.46126227  0.64996027  1
  S  S25  1  0.89556735  0.46610230  0.33487158  1
  S  S26  1  0.73794948  0.99773155  0.30725545  1
  S  S27  1  0.26922592  0.96405850  0.69727841  1
  S  S28  1  0.15974177  0.41656390  0.43560106  1
  S  S29  1  0.83224502  0.44511263  0.54033589  1
  S  S30  1  0.44291570  0.48623848  0.82074175  1
  S  S31  1  0.56495948  0.47939798  0.20696601  1
  S  S32  1  0.91845967  0.51046714  0.98464629  1
  S  S33  1  0.08630840  0.53354719  0.00989543  1
  S  S34  1  0.67368028  0.44974484  0.91045197  1
  S  S35  1  0.33505814  0.44296156  0.10408407  1
  S  S36  1  0.59213688  0.95070078  0.66903868  1
  S  S37  1  0.42286733  0.00382408  0.37051988  1
  S  S38  1  0.24987737  0.49384961  0.29425070  1
  S  S39  1  0.77120924  0.49198272  0.67892652  1
  S  S40  1  0.66509654  0.97989795  0.44420434  1
  S  S41  1  0.32213214  0.05141718  0.54581429  1
