# generated using pymatgen
data_Pr2Mn3(SbS3)4
_symmetry_space_group_name_H-M   'P 1'
_cell_length_a   20.02960800
_cell_length_b   3.90410600
_cell_length_c   14.95364829
_cell_angle_alpha   90.00000000
_cell_angle_beta   126.33350609
_cell_angle_gamma   90.00000000
_symmetry_Int_Tables_number   1
_chemical_formula_structural   Pr2Mn3(SbS3)4
_chemical_formula_sum   'Pr4 Mn6 Sb8 S24'
_cell_volume   942.00006694
_cell_formula_units_Z   2
loop_
 _symmetry_equiv_pos_site_id
 _symmetry_equiv_pos_as_xyz
  1  'x, y, z'
loop_
 _atom_site_type_symbol
 _atom_site_label
 _atom_site_symmetry_multiplicity
 _atom_site_fract_x
 _atom_site_fract_y
 _atom_site_fract_z
 _atom_site_occupancy
  Pr  Pr0  1  0.25847750  0.49449002  0.86011750  1
  Pr  Pr1  1  0.72553844  0.55254676  0.12866051  1
  Pr  Pr2  1  0.76435095  0.98091864  0.88021217  1
  Pr  Pr3  1  0.24771251  0.99459540  0.14626744  1
  Mn  Mn4  1  0.28198573  0.58215150  0.58842576  1
  Mn  Mn5  1  0.70462708  0.45821728  0.38742678  1
  Mn  Mn6  1  0.99731203  0.95837933  0.99574228  1
  Mn  Mn7  1  0.79762395  0.99202551  0.59605752  1
  Mn  Mn8  1  0.20367603  0.89949830  0.41511441  1
  Mn  Mn9  1  0.50303058  0.49016330  0.00490389  1
  Sb  Sb10  1  0.89239765  0.00336220  0.44942255  1
  Sb  Sb11  1  0.11258482  0.03541944  0.56553383  1
  Sb  Sb12  1  0.02334327  0.50958991  0.79861135  1
  Sb  Sb13  1  0.97036924  0.49780771  0.18159888  1
  Sb  Sb14  1  0.39796160  0.49819956  0.46491620  1
  Sb  Sb15  1  0.61002133  0.43974946  0.56737698  1
  Sb  Sb16  1  0.53174865  0.01088119  0.81878134  1
  Sb  Sb17  1  0.46249746  0.01509112  0.17470645  1
  S  S18  1  0.92201949  0.01876541  0.76959576  1
  S  S19  1  0.05437718  0.99842440  0.18413008  1
  S  S20  1  0.42037301  0.02519523  0.98133983  1
  S  S21  1  0.58848568  0.99901296  0.02314475  1
  S  S22  1  0.17246691  0.97560237  0.89591227  1
  S  S23  1  0.82959938  0.02397477  0.11009940  1
  S  S24  1  0.08602835  0.46359232  0.64979226  1
  S  S25  1  0.89577500  0.46522510  0.33516780  1
  S  S26  1  0.73792505  0.99854948  0.30710159  1
  S  S27  1  0.26878335  0.96532728  0.69709990  1
  S  S28  1  0.16014695  0.41663563  0.43599532  1
  S  S29  1  0.83214447  0.44454125  0.53970818  1
  S  S30  1  0.44251364  0.48592254  0.82057904  1
  S  S31  1  0.56503146  0.48012166  0.20686754  1
  S  S32  1  0.91831565  0.50992225  0.98431892  1
  S  S33  1  0.08627551  0.53267725  0.01008128  1
  S  S34  1  0.67361069  0.45045211  0.91071509  1
  S  S35  1  0.33487560  0.44324975  0.10382016  1
  S  S36  1  0.59228062  0.94999559  0.66947569  1
  S  S37  1  0.42318432  0.00312843  0.37045243  1
  S  S38  1  0.25008692  0.49327028  0.29387848  1
  S  S39  1  0.77125654  0.49198268  0.67904274  1
  S  S40  1  0.66512578  0.97955950  0.44444629  1
  S  S41  1  0.32255746  0.05197638  0.54584323  1
