# generated using pymatgen
data_Pr2Mn3(SbS3)4
_symmetry_space_group_name_H-M   'P 1'
_cell_length_a   20.02960800
_cell_length_b   3.90410600
_cell_length_c   14.95364829
_cell_angle_alpha   90.00000000
_cell_angle_beta   126.33350609
_cell_angle_gamma   90.00000000
_symmetry_Int_Tables_number   1
_chemical_formula_structural   Pr2Mn3(SbS3)4
_chemical_formula_sum   'Pr4 Mn6 Sb8 S24'
_cell_volume   942.00006694
_cell_formula_units_Z   2
loop_
 _symmetry_equiv_pos_site_id
 _symmetry_equiv_pos_as_xyz
  1  'x, y, z'
loop_
 _atom_site_type_symbol
 _atom_site_label
 _atom_site_symmetry_multiplicity
 _atom_site_fract_x
 _atom_site_fract_y
 _atom_site_fract_z
 _atom_site_occupancy
  Pr  Pr0  1  0.25847361  0.49384078  0.86028408  1
  Pr  Pr1  1  0.72545289  0.55272785  0.12867926  1
  Pr  Pr2  1  0.76422205  0.98106956  0.88012383  1
  Pr  Pr3  1  0.24775607  0.99516086  0.14633453  1
  Mn  Mn4  1  0.28197940  0.58194087  0.58859893  1
  Mn  Mn5  1  0.70483613  0.45830364  0.38758604  1
  Mn  Mn6  1  0.99740498  0.95742760  0.99558351  1
  Mn  Mn7  1  0.79763958  0.99213420  0.59588667  1
  Mn  Mn8  1  0.20366503  0.89860254  0.41506511  1
  Mn  Mn9  1  0.50309352  0.48987769  0.00455844  1
  Sb  Sb10  1  0.89245144  0.00306596  0.44951754  1
  Sb  Sb11  1  0.11261401  0.03569273  0.56571152  1
  Sb  Sb12  1  0.02330344  0.50955444  0.79858324  1
  Sb  Sb13  1  0.97047859  0.49723129  0.18154375  1
  Sb  Sb14  1  0.39816697  0.49852509  0.46499198  1
  Sb  Sb15  1  0.60982375  0.43889965  0.56737752  1
  Sb  Sb16  1  0.53171749  0.01168406  0.81884329  1
  Sb  Sb17  1  0.46247277  0.01449198  0.17468097  1
  S  S18  1  0.92210942  0.01887244  0.76923332  1
  S  S19  1  0.05430923  0.99809955  0.18338097  1
  S  S20  1  0.42047182  0.02585641  0.98179288  1
  S  S21  1  0.58844932  0.99870098  0.02332415  1
  S  S22  1  0.17239964  0.97588418  0.89556331  1
  S  S23  1  0.82963477  0.02474373  0.10977817  1
  S  S24  1  0.08637951  0.46581290  0.64965792  1
  S  S25  1  0.89593409  0.46468370  0.33562059  1
  S  S26  1  0.73805271  0.99876046  0.30713023  1
  S  S27  1  0.26839165  0.96708138  0.69708314  1
  S  S28  1  0.16035290  0.41645253  0.43614781  1
  S  S29  1  0.83193635  0.44413970  0.53901345  1
  S  S30  1  0.44212652  0.48506000  0.82027571  1
  S  S31  1  0.56502120  0.48069086  0.20672324  1
  S  S32  1  0.91827459  0.50916688  0.98405293  1
  S  S33  1  0.08615851  0.53227599  0.01033542  1
  S  S34  1  0.67361998  0.45100217  0.91093936  1
  S  S35  1  0.33477236  0.44347626  0.10367605  1
  S  S36  1  0.59248135  0.95006252  0.66982478  1
  S  S37  1  0.42357985  0.00145018  0.37047355  1
  S  S38  1  0.25021270  0.49242043  0.29343449  1
  S  S39  1  0.77120908  0.49237840  0.67897620  1
  S  S40  1  0.66535375  0.97932824  0.44486059  1
  S  S41  1  0.32308133  0.05211932  0.54596226  1
