# generated using pymatgen
data_Pr2Mn3(SbS3)4
_symmetry_space_group_name_H-M   'P 1'
_cell_length_a   20.02960800
_cell_length_b   3.90410600
_cell_length_c   14.95364829
_cell_angle_alpha   90.00000000
_cell_angle_beta   126.33350609
_cell_angle_gamma   90.00000000
_symmetry_Int_Tables_number   1
_chemical_formula_structural   Pr2Mn3(SbS3)4
_chemical_formula_sum   'Pr4 Mn6 Sb8 S24'
_cell_volume   942.00006694
_cell_formula_units_Z   2
loop_
 _symmetry_equiv_pos_site_id
 _symmetry_equiv_pos_as_xyz
  1  'x, y, z'
loop_
 _atom_site_type_symbol
 _atom_site_label
 _atom_site_symmetry_multiplicity
 _atom_site_fract_x
 _atom_site_fract_y
 _atom_site_fract_z
 _atom_site_occupancy
  Pr  Pr0  1  0.25844789  0.49332845  0.86054286  1
  Pr  Pr1  1  0.72532822  0.55248722  0.12867765  1
  Pr  Pr2  1  0.76406325  0.98104208  0.87993089  1
  Pr  Pr3  1  0.24781875  0.99563458  0.14644298  1
  Mn  Mn4  1  0.28203292  0.58148082  0.58871547  1
  Mn  Mn5  1  0.70505784  0.45809917  0.38777548  1
  Mn  Mn6  1  0.99753619  0.95631585  0.99540489  1
  Mn  Mn7  1  0.79760088  0.99241332  0.59565908  1
  Mn  Mn8  1  0.20367514  0.89784645  0.41503845  1
  Mn  Mn9  1  0.50308167  0.48998784  0.00411098  1
  Sb  Sb10  1  0.89245490  0.00269538  0.44963979  1
  Sb  Sb11  1  0.11259355  0.03600605  0.56589187  1
  Sb  Sb12  1  0.02323722  0.51019358  0.79853922  1
  Sb  Sb13  1  0.97063377  0.49646871  0.18156156  1
  Sb  Sb14  1  0.39834144  0.49902408  0.46504697  1
  Sb  Sb15  1  0.60955307  0.43815467  0.56736300  1
  Sb  Sb16  1  0.53166228  0.01255300  0.81881072  1
  Sb  Sb17  1  0.46244305  0.01374018  0.17459476  1
  S  S18  1  0.92225448  0.01917559  0.76886351  1
  S  S19  1  0.05430775  0.99751458  0.18281706  1
  S  S20  1  0.42050701  0.02620682  0.98221194  1
  S  S21  1  0.58827302  0.99919140  0.02343712  1
  S  S22  1  0.17230244  0.97588516  0.89532339  1
  S  S23  1  0.82972771  0.02514177  0.10966044  1
  S  S24  1  0.08675837  0.46833215  0.64949062  1
  S  S25  1  0.89615990  0.46453715  0.33623934  1
  S  S26  1  0.73828444  0.99923382  0.30726232  1
  S  S27  1  0.26789808  0.96845777  0.69694121  1
  S  S28  1  0.16062293  0.41603451  0.43629826  1
  S  S29  1  0.83174303  0.44303108  0.53843428  1
  S  S30  1  0.44189913  0.48433218  0.82030990  1
  S  S31  1  0.56504107  0.48101540  0.20657836  1
  S  S32  1  0.91823774  0.50864186  0.98373377  1
  S  S33  1  0.08612213  0.53201286  0.01057834  1
  S  S34  1  0.67373418  0.45190185  0.91140925  1
  S  S35  1  0.33472135  0.44425055  0.10355953  1
  S  S36  1  0.59263890  0.94988436  0.67022168  1
  S  S37  1  0.42384164  0.99954414  0.37046239  1
  S  S38  1  0.25029043  0.49182518  0.29306261  1
  S  S39  1  0.77111448  0.49233676  0.67878777  1
  S  S40  1  0.66568640  0.97930366  0.44549443  1
  S  S41  1  0.32363046  0.05170391  0.54615753  1
