# generated using pymatgen
data_Pr2Mn3(SbS3)4
_symmetry_space_group_name_H-M   'P 1'
_cell_length_a   20.02960800
_cell_length_b   3.90410600
_cell_length_c   14.95364829
_cell_angle_alpha   90.00000000
_cell_angle_beta   126.33350609
_cell_angle_gamma   90.00000000
_symmetry_Int_Tables_number   1
_chemical_formula_structural   Pr2Mn3(SbS3)4
_chemical_formula_sum   'Pr4 Mn6 Sb8 S24'
_cell_volume   942.00006694
_cell_formula_units_Z   2
loop_
 _symmetry_equiv_pos_site_id
 _symmetry_equiv_pos_as_xyz
  1  'x, y, z'
loop_
 _atom_site_type_symbol
 _atom_site_label
 _atom_site_symmetry_multiplicity
 _atom_site_fract_x
 _atom_site_fract_y
 _atom_site_fract_z
 _atom_site_occupancy
  Pr  Pr0  1  0.26976358  0.49521597  0.86715951  1
  Pr  Pr1  1  0.73393973  0.51438026  0.13265658  1
  Pr  Pr2  1  0.76412247  0.02394133  0.86335852  1
  Pr  Pr3  1  0.23344169  0.99639376  0.13127136  1
  Mn  Mn4  1  0.29650035  0.47501488  0.59953455  1
  Mn  Mn5  1  0.68605637  0.46177783  0.36305766  1
  Mn  Mn6  1  0.00496405  0.98898362  0.01032133  1
  Mn  Mn7  1  0.79730361  0.00402316  0.61778024  1
  Mn  Mn8  1  0.19648873  0.97790222  0.36831625  1
  Mn  Mn9  1  0.48688470  0.46708460  0.98537914  1
  Sb  Sb10  1  0.88840853  0.98772687  0.45120373  1
  Sb  Sb11  1  0.10927690  0.97995908  0.54485567  1
  Sb  Sb12  1  0.03570341  0.52674807  0.82021836  1
  Sb  Sb13  1  0.96723585  0.49801749  0.19032260  1
  Sb  Sb14  1  0.39231561  0.50092983  0.44783750  1
  Sb  Sb15  1  0.60572424  0.47453223  0.54701291  1
  Sb  Sb16  1  0.53405678  0.98242407  0.80861610  1
  Sb  Sb17  1  0.46557237  0.01533510  0.19049234  1
  S  S18  1  0.93573956  0.02216345  0.80757803  1
  S  S19  1  0.06487453  0.99519666  0.19866337  1
  S  S20  1  0.41973994  0.95441750  0.99064418  1
  S  S21  1  0.58420230  0.02608399  0.01527280  1
  S  S22  1  0.16956685  0.05470801  0.90027672  1
  S  S23  1  0.82683671  0.04062481  0.10172905  1
  S  S24  1  0.09003219  0.50247826  0.64586253  1
  S  S25  1  0.91627498  0.48028568  0.35812345  1
  S  S26  1  0.73932210  0.98871211  0.30367396  1
  S  S27  1  0.26060838  0.00641555  0.71216185  1
  S  S28  1  0.16548822  0.51872403  0.43292800  1
  S  S29  1  0.81637862  0.48907609  0.54640125  1
  S  S30  1  0.43138269  0.47426513  0.79583383  1
  S  S31  1  0.55454039  0.52318043  0.18097554  1
  S  S32  1  0.91881653  0.50190462  0.98902727  1
  S  S33  1  0.09262945  0.48925348  0.03160276  1
  S  S34  1  0.66296398  0.55372468  0.89359527  1
  S  S35  1  0.32587661  0.48742374  0.09178157  1
  S  S36  1  0.59281702  0.99605154  0.65093557  1
  S  S37  1  0.39980572  0.98907851  0.34343313  1
  S  S38  1  0.24271690  0.46378632  0.31578647  1
  S  S39  1  0.75955715  0.52331566  0.68760084  1
  S  S40  1  0.66390734  0.00110867  0.44799295  1
  S  S41  1  0.33198841  0.97858263  0.55595059  1
