# generated using pymatgen
data_Pr2Mn3(SbS3)4
_symmetry_space_group_name_H-M   'P 1'
_cell_length_a   20.02960800
_cell_length_b   3.90410600
_cell_length_c   14.95364829
_cell_angle_alpha   90.00000000
_cell_angle_beta   126.33350609
_cell_angle_gamma   90.00000000
_symmetry_Int_Tables_number   1
_chemical_formula_structural   Pr2Mn3(SbS3)4
_chemical_formula_sum   'Pr4 Mn6 Sb8 S24'
_cell_volume   942.00006694
_cell_formula_units_Z   2
loop_
 _symmetry_equiv_pos_site_id
 _symmetry_equiv_pos_as_xyz
  1  'x, y, z'
loop_
 _atom_site_type_symbol
 _atom_site_label
 _atom_site_symmetry_multiplicity
 _atom_site_fract_x
 _atom_site_fract_y
 _atom_site_fract_z
 _atom_site_occupancy
  Pr  Pr0  1  0.25849812  0.49309170  0.86078519  1
  Pr  Pr1  1  0.72522777  0.55253942  0.12867132  1
  Pr  Pr2  1  0.76391168  0.98045538  0.87984415  1
  Pr  Pr3  1  0.24794406  0.99633631  0.14662423  1
  Mn  Mn4  1  0.28202821  0.58088778  0.58876080  1
  Mn  Mn5  1  0.70525452  0.45845227  0.38808354  1
  Mn  Mn6  1  0.99769839  0.95484538  0.99525815  1
  Mn  Mn7  1  0.79763846  0.99244842  0.59553170  1
  Mn  Mn8  1  0.20356678  0.89658681  0.41476964  1
  Mn  Mn9  1  0.50313606  0.49006457  0.00376742  1
  Sb  Sb10  1  0.89252461  0.00227710  0.44980899  1
  Sb  Sb11  1  0.11256808  0.03637908  0.56611270  1
  Sb  Sb12  1  0.02319353  0.51126441  0.79848914  1
  Sb  Sb13  1  0.97078793  0.49580617  0.18161305  1
  Sb  Sb14  1  0.39856480  0.49954352  0.46516248  1
  Sb  Sb15  1  0.60931089  0.43756387  0.56736558  1
  Sb  Sb16  1  0.53154283  0.01294243  0.81873198  1
  Sb  Sb17  1  0.46234118  0.01294456  0.17438307  1
  S  S18  1  0.92221145  0.01906529  0.76853592  1
  S  S19  1  0.05421636  0.99778773  0.18230035  1
  S  S20  1  0.42037118  0.02615971  0.98260625  1
  S  S21  1  0.58834761  0.99953913  0.02386863  1
  S  S22  1  0.17223134  0.97522668  0.89479631  1
  S  S23  1  0.82979440  0.02547040  0.10942393  1
  S  S24  1  0.08707138  0.47061889  0.64944344  1
  S  S25  1  0.89624148  0.46412931  0.33680813  1
  S  S26  1  0.73858738  0.99937474  0.30753424  1
  S  S27  1  0.26749856  0.96912991  0.69688016  1
  S  S28  1  0.16080116  0.41588683  0.43634685  1
  S  S29  1  0.83155639  0.44177243  0.53797313  1
  S  S30  1  0.44166252  0.48341653  0.82028367  1
  S  S31  1  0.56514024  0.48086735  0.20640271  1
  S  S32  1  0.91817566  0.50856985  0.98343872  1
  S  S33  1  0.08584265  0.53097790  0.01067045  1
  S  S34  1  0.67379553  0.45299811  0.91184769  1
  S  S35  1  0.33481056  0.44606929  0.10352461  1
  S  S36  1  0.59280035  0.94939121  0.67070271  1
  S  S37  1  0.42401964  0.99762795  0.37042000  1
  S  S38  1  0.25039291  0.49113907  0.29243125  1
  S  S39  1  0.77102521  0.49248247  0.67866151  1
  S  S40  1  0.66599513  0.97952933  0.44584634  1
  S  S41  1  0.32410259  0.05168033  0.54619763  1
