# generated using pymatgen
data_Pr2Mn3(SbS3)4
_symmetry_space_group_name_H-M   'P 1'
_cell_length_a   20.02960800
_cell_length_b   3.90410600
_cell_length_c   14.95364829
_cell_angle_alpha   90.00000000
_cell_angle_beta   126.33350609
_cell_angle_gamma   90.00000000
_symmetry_Int_Tables_number   1
_chemical_formula_structural   Pr2Mn3(SbS3)4
_chemical_formula_sum   'Pr4 Mn6 Sb8 S24'
_cell_volume   942.00006694
_cell_formula_units_Z   2
loop_
 _symmetry_equiv_pos_site_id
 _symmetry_equiv_pos_as_xyz
  1  'x, y, z'
loop_
 _atom_site_type_symbol
 _atom_site_label
 _atom_site_symmetry_multiplicity
 _atom_site_fract_x
 _atom_site_fract_y
 _atom_site_fract_z
 _atom_site_occupancy
  Pr  Pr0  1  0.25859546  0.49266941  0.86105352  1
  Pr  Pr1  1  0.72513528  0.55249417  0.12863609  1
  Pr  Pr2  1  0.76379240  0.97968628  0.87978638  1
  Pr  Pr3  1  0.24802518  0.99679479  0.14665702  1
  Mn  Mn4  1  0.28206803  0.57985312  0.58893534  1
  Mn  Mn5  1  0.70544604  0.45857917  0.38847077  1
  Mn  Mn6  1  0.99794383  0.95337052  0.99524556  1
  Mn  Mn7  1  0.79760965  0.99282726  0.59532351  1
  Mn  Mn8  1  0.20342440  0.89544427  0.41449384  1
  Mn  Mn9  1  0.50321935  0.48979062  0.00359527  1
  Sb  Sb10  1  0.89256460  0.00181162  0.44991735  1
  Sb  Sb11  1  0.11254830  0.03686797  0.56626057  1
  Sb  Sb12  1  0.02321530  0.51258051  0.79849376  1
  Sb  Sb13  1  0.97103624  0.49559849  0.18183429  1
  Sb  Sb14  1  0.39883107  0.49991859  0.46534475  1
  Sb  Sb15  1  0.60900303  0.43698143  0.56731960  1
  Sb  Sb16  1  0.53140061  0.01340006  0.81862042  1
  Sb  Sb17  1  0.46219465  0.01226376  0.17418146  1
  S  S18  1  0.92220133  0.01895760  0.76814680  1
  S  S19  1  0.05407389  0.99817309  0.18203851  1
  S  S20  1  0.42029080  0.02596374  0.98298423  1
  S  S21  1  0.58831536  0.00016101  0.02428559  1
  S  S22  1  0.17208040  0.97558732  0.89419338  1
  S  S23  1  0.82970694  0.02549960  0.10910119  1
  S  S24  1  0.08737726  0.47293986  0.64943596  1
  S  S25  1  0.89636067  0.46329269  0.33746896  1
  S  S26  1  0.73892788  0.99999727  0.30781547  1
  S  S27  1  0.26723597  0.96924472  0.69690656  1
  S  S28  1  0.16096123  0.41526194  0.43645127  1
  S  S29  1  0.83128812  0.44088212  0.53727309  1
  S  S30  1  0.44142505  0.48173660  0.82013119  1
  S  S31  1  0.56515940  0.48083019  0.20612236  1
  S  S32  1  0.91807345  0.50851622  0.98314228  1
  S  S33  1  0.08553269  0.52949863  0.01072092  1
  S  S34  1  0.67398001  0.45391481  0.91242394  1
  S  S35  1  0.33475781  0.44744926  0.10342117  1
  S  S36  1  0.59302477  0.94864399  0.67116560  1
  S  S37  1  0.42412056  0.99591031  0.37048875  1
  S  S38  1  0.25057330  0.49045945  0.29189352  1
  S  S39  1  0.77090318  0.49227946  0.67852697  1
  S  S40  1  0.66637462  0.97939877  0.44624492  1
  S  S41  1  0.32464592  0.05209700  0.54642605  1
