# generated using pymatgen
data_Pr2Mn3(SbS3)4
_symmetry_space_group_name_H-M   'P 1'
_cell_length_a   20.02960800
_cell_length_b   3.90410600
_cell_length_c   14.95364829
_cell_angle_alpha   90.00000000
_cell_angle_beta   126.33350609
_cell_angle_gamma   90.00000000
_symmetry_Int_Tables_number   1
_chemical_formula_structural   Pr2Mn3(SbS3)4
_chemical_formula_sum   'Pr4 Mn6 Sb8 S24'
_cell_volume   942.00006694
_cell_formula_units_Z   2
loop_
 _symmetry_equiv_pos_site_id
 _symmetry_equiv_pos_as_xyz
  1  'x, y, z'
loop_
 _atom_site_type_symbol
 _atom_site_label
 _atom_site_symmetry_multiplicity
 _atom_site_fract_x
 _atom_site_fract_y
 _atom_site_fract_z
 _atom_site_occupancy
  Pr  Pr0  1  0.25868644  0.49240920  0.86138224  1
  Pr  Pr1  1  0.72507692  0.55209863  0.12865891  1
  Pr  Pr2  1  0.76371368  0.97897761  0.87976740  1
  Pr  Pr3  1  0.24808092  0.99743397  0.14672456  1
  Mn  Mn4  1  0.28201731  0.57852356  0.58898663  1
  Mn  Mn5  1  0.70560778  0.45920645  0.38874606  1
  Mn  Mn6  1  0.99816659  0.95186682  0.99523754  1
  Mn  Mn7  1  0.79764677  0.99298720  0.59512133  1
  Mn  Mn8  1  0.20326335  0.89484588  0.41416001  1
  Mn  Mn9  1  0.50336400  0.48898834  0.00356661  1
  Sb  Sb10  1  0.89254262  0.00143492  0.44992242  1
  Sb  Sb11  1  0.11251333  0.03744311  0.56640214  1
  Sb  Sb12  1  0.02326137  0.51361029  0.79853316  1
  Sb  Sb13  1  0.97128569  0.49541042  0.18206304  1
  Sb  Sb14  1  0.39905310  0.50054691  0.46551452  1
  Sb  Sb15  1  0.60882711  0.43614178  0.56739107  1
  Sb  Sb16  1  0.53129790  0.01349223  0.81854660  1
  Sb  Sb17  1  0.46207726  0.01194456  0.17409236  1
  S  S18  1  0.92202003  0.01890601  0.76761509  1
  S  S19  1  0.05378280  0.99858588  0.18185908  1
  S  S20  1  0.42017877  0.02654118  0.98350850  1
  S  S21  1  0.58815711  0.00063268  0.02451651  1
  S  S22  1  0.17194242  0.97592533  0.89354320  1
  S  S23  1  0.82959677  0.02505116  0.10888469  1
  S  S24  1  0.08768380  0.47448284  0.64943329  1
  S  S25  1  0.89656715  0.46330708  0.33818572  1
  S  S26  1  0.73911338  0.00039865  0.30790149  1
  S  S27  1  0.26704051  0.96949052  0.69690307  1
  S  S28  1  0.16110029  0.41506105  0.43637619  1
  S  S29  1  0.83096307  0.44023610  0.53651559  1
  S  S30  1  0.44120701  0.47994069  0.82003089  1
  S  S31  1  0.56525824  0.48103463  0.20612172  1
  S  S32  1  0.91799969  0.50828414  0.98295461  1
  S  S33  1  0.08518545  0.52816883  0.01074121  1
  S  S34  1  0.67421129  0.45520425  0.91302517  1
  S  S35  1  0.33480806  0.44841853  0.10362711  1
  S  S36  1  0.59319736  0.94773139  0.67154283  1
  S  S37  1  0.42425154  0.99399999  0.37055530  1
  S  S38  1  0.25072504  0.48992449  0.29133079  1
  S  S39  1  0.77087666  0.49250795  0.67846259  1
  S  S40  1  0.66688221  0.98016780  0.44666811  1
  S  S41  1  0.32497945  0.05291484  0.54656597  1
