# generated using pymatgen
data_Pr2Mn3(SbS3)4
_symmetry_space_group_name_H-M   'P 1'
_cell_length_a   20.02960800
_cell_length_b   3.90410600
_cell_length_c   14.95364829
_cell_angle_alpha   90.00000000
_cell_angle_beta   126.33350609
_cell_angle_gamma   90.00000000
_symmetry_Int_Tables_number   1
_chemical_formula_structural   Pr2Mn3(SbS3)4
_chemical_formula_sum   'Pr4 Mn6 Sb8 S24'
_cell_volume   942.00006694
_cell_formula_units_Z   2
loop_
 _symmetry_equiv_pos_site_id
 _symmetry_equiv_pos_as_xyz
  1  'x, y, z'
loop_
 _atom_site_type_symbol
 _atom_site_label
 _atom_site_symmetry_multiplicity
 _atom_site_fract_x
 _atom_site_fract_y
 _atom_site_fract_z
 _atom_site_occupancy
  Pr  Pr0  1  0.25878142  0.49240405  0.86174494  1
  Pr  Pr1  1  0.72498519  0.55177441  0.12861237  1
  Pr  Pr2  1  0.76366061  0.97833982  0.87978148  1
  Pr  Pr3  1  0.24813326  0.99806618  0.14684879  1
  Mn  Mn4  1  0.28190302  0.57704106  0.58919574  1
  Mn  Mn5  1  0.70567290  0.46084352  0.38894932  1
  Mn  Mn6  1  0.99827579  0.95062751  0.99518224  1
  Mn  Mn7  1  0.79763103  0.99349623  0.59499753  1
  Mn  Mn8  1  0.20300152  0.89428308  0.41380174  1
  Mn  Mn9  1  0.50348023  0.48874915  0.00353582  1
  Sb  Sb10  1  0.89255857  0.00105151  0.44982845  1
  Sb  Sb11  1  0.11247144  0.03766034  0.56645518  1
  Sb  Sb12  1  0.02324696  0.51437064  0.79850889  1
  Sb  Sb13  1  0.97145618  0.49547649  0.18221402  1
  Sb  Sb14  1  0.39926316  0.50129490  0.46563148  1
  Sb  Sb15  1  0.60859883  0.43567301  0.56740093  1
  Sb  Sb16  1  0.53124938  0.01316147  0.81846208  1
  Sb  Sb17  1  0.46197863  0.01194219  0.17402032  1
  S  S18  1  0.92191447  0.01882929  0.76728505  1
  S  S19  1  0.05359611  0.99896036  0.18175713  1
  S  S20  1  0.42010615  0.02660166  0.98416546  1
  S  S21  1  0.58820687  0.00104330  0.02466477  1
  S  S22  1  0.17175328  0.97660291  0.89309152  1
  S  S23  1  0.82952138  0.02485931  0.10872677  1
  S  S24  1  0.08810414  0.47502844  0.64964023  1
  S  S25  1  0.89673605  0.46386493  0.33881466  1
  S  S26  1  0.73938276  0.00049950  0.30800462  1
  S  S27  1  0.26679519  0.97035323  0.69686667  1
  S  S28  1  0.16121147  0.41515174  0.43620750  1
  S  S29  1  0.83047144  0.44016988  0.53576385  1
  S  S30  1  0.44094961  0.47839212  0.81996936  1
  S  S31  1  0.56551736  0.48116652  0.20630928  1
  S  S32  1  0.91791934  0.50843797  0.98271293  1
  S  S33  1  0.08461887  0.52700707  0.01062860  1
  S  S34  1  0.67431866  0.45616397  0.91357067  1
  S  S35  1  0.33488432  0.44901352  0.10395855  1
  S  S36  1  0.59345770  0.94714786  0.67204703  1
  S  S37  1  0.42437542  0.99239158  0.37053268  1
  S  S38  1  0.25095699  0.48985399  0.29097200  1
  S  S39  1  0.77095540  0.49241882  0.67851123  1
  S  S40  1  0.66746901  0.98058253  0.44719919  1
  S  S41  1  0.32533817  0.05372594  0.54649820  1
