# generated using pymatgen
data_Pr2Mn3(SbS3)4
_symmetry_space_group_name_H-M   'P 1'
_cell_length_a   20.02960800
_cell_length_b   3.90410600
_cell_length_c   14.95364829
_cell_angle_alpha   90.00000000
_cell_angle_beta   126.33350609
_cell_angle_gamma   90.00000000
_symmetry_Int_Tables_number   1
_chemical_formula_structural   Pr2Mn3(SbS3)4
_chemical_formula_sum   'Pr4 Mn6 Sb8 S24'
_cell_volume   942.00006694
_cell_formula_units_Z   2
loop_
 _symmetry_equiv_pos_site_id
 _symmetry_equiv_pos_as_xyz
  1  'x, y, z'
loop_
 _atom_site_type_symbol
 _atom_site_label
 _atom_site_symmetry_multiplicity
 _atom_site_fract_x
 _atom_site_fract_y
 _atom_site_fract_z
 _atom_site_occupancy
  Pr  Pr0  1  0.25885797  0.49219616  0.86212610  1
  Pr  Pr1  1  0.72488351  0.55136110  0.12856704  1
  Pr  Pr2  1  0.76360067  0.97779738  0.87982975  1
  Pr  Pr3  1  0.24824051  0.99890937  0.14701935  1
  Mn  Mn4  1  0.28183417  0.57578800  0.58932852  1
  Mn  Mn5  1  0.70580081  0.46218233  0.38915733  1
  Mn  Mn6  1  0.99844533  0.94907864  0.99511384  1
  Mn  Mn7  1  0.79763919  0.99452944  0.59498229  1
  Mn  Mn8  1  0.20273856  0.89397442  0.41345185  1
  Mn  Mn9  1  0.50348172  0.48794036  0.00342652  1
  Sb  Sb10  1  0.89254844  0.00042856  0.44976429  1
  Sb  Sb11  1  0.11240941  0.03796600  0.56659695  1
  Sb  Sb12  1  0.02328025  0.51511128  0.79851172  1
  Sb  Sb13  1  0.97155458  0.49543844  0.18229108  1
  Sb  Sb14  1  0.39950328  0.50218852  0.46570739  1
  Sb  Sb15  1  0.60842138  0.43540473  0.56737160  1
  Sb  Sb16  1  0.53128785  0.01277987  0.81852126  1
  Sb  Sb17  1  0.46195546  0.01205565  0.17401170  1
  S  S18  1  0.92186598  0.01805021  0.76697422  1
  S  S19  1  0.05332081  0.99971748  0.18157211  1
  S  S20  1  0.42015698  0.02695453  0.98498580  1
  S  S21  1  0.58812442  0.00161848  0.02479076  1
  S  S22  1  0.17150052  0.97752906  0.89262726  1
  S  S23  1  0.82929042  0.02496844  0.10833792  1
  S  S24  1  0.08843791  0.47522099  0.64967233  1
  S  S25  1  0.89684509  0.46484131  0.33926819  1
  S  S26  1  0.73965544  0.00031022  0.30799555  1
  S  S27  1  0.26649531  0.97140066  0.69671729  1
  S  S28  1  0.16133398  0.41479399  0.43615655  1
  S  S29  1  0.83013137  0.43996550  0.53521216  1
  S  S30  1  0.44067652  0.47734282  0.81988791  1
  S  S31  1  0.56583809  0.48171846  0.20648052  1
  S  S32  1  0.91793597  0.50846773  0.98252779  1
  S  S33  1  0.08416351  0.52578667  0.01036916  1
  S  S34  1  0.67430692  0.45669891  0.91397209  1
  S  S35  1  0.33497621  0.44957346  0.10433320  1
  S  S36  1  0.59360939  0.94698136  0.67246947  1
  S  S37  1  0.42468594  0.99130389  0.37087498  1
  S  S38  1  0.25130273  0.48970875  0.29078930  1
  S  S39  1  0.77096779  0.49281590  0.67864914  1
  S  S40  1  0.66797350  0.98125198  0.44747714  1
  S  S41  1  0.32572721  0.05480258  0.54642278  1
