# generated using pymatgen
data_Pr2Mn3(SbS3)4
_symmetry_space_group_name_H-M   'P 1'
_cell_length_a   20.02960800
_cell_length_b   3.90410600
_cell_length_c   14.95364829
_cell_angle_alpha   90.00000000
_cell_angle_beta   126.33350609
_cell_angle_gamma   90.00000000
_symmetry_Int_Tables_number   1
_chemical_formula_structural   Pr2Mn3(SbS3)4
_chemical_formula_sum   'Pr4 Mn6 Sb8 S24'
_cell_volume   942.00006694
_cell_formula_units_Z   2
loop_
 _symmetry_equiv_pos_site_id
 _symmetry_equiv_pos_as_xyz
  1  'x, y, z'
loop_
 _atom_site_type_symbol
 _atom_site_label
 _atom_site_symmetry_multiplicity
 _atom_site_fract_x
 _atom_site_fract_y
 _atom_site_fract_z
 _atom_site_occupancy
  Pr  Pr0  1  0.25896292  0.49195878  0.86248507  1
  Pr  Pr1  1  0.72492537  0.55104729  0.12858872  1
  Pr  Pr2  1  0.76356470  0.97724548  0.87982206  1
  Pr  Pr3  1  0.24832617  0.99960541  0.14713809  1
  Mn  Mn4  1  0.28165121  0.57500588  0.58925654  1
  Mn  Mn5  1  0.70590473  0.46331914  0.38923746  1
  Mn  Mn6  1  0.99860121  0.94813331  0.99495137  1
  Mn  Mn7  1  0.79768573  0.99576780  0.59507491  1
  Mn  Mn8  1  0.20259372  0.89366818  0.41314663  1
  Mn  Mn9  1  0.50342057  0.48708147  0.00330729  1
  Sb  Sb10  1  0.89252384  0.99972727  0.44973010  1
  Sb  Sb11  1  0.11231221  0.03843234  0.56671229  1
  Sb  Sb12  1  0.02326345  0.51569769  0.79853760  1
  Sb  Sb13  1  0.97160821  0.49534201  0.18230909  1
  Sb  Sb14  1  0.39968588  0.50288629  0.46567489  1
  Sb  Sb15  1  0.60825243  0.43493065  0.56734399  1
  Sb  Sb16  1  0.53134476  0.01246853  0.81856656  1
  Sb  Sb17  1  0.46199942  0.01223698  0.17413363  1
  S  S18  1  0.92185282  0.01720621  0.76653488  1
  S  S19  1  0.05313471  0.00037976  0.18145459  1
  S  S20  1  0.42020766  0.02666261  0.98561012  1
  S  S21  1  0.58791437  0.00208157  0.02463977  1
  S  S22  1  0.17116779  0.97864840  0.89210195  1
  S  S23  1  0.82906176  0.02509743  0.10799086  1
  S  S24  1  0.08888868  0.47558876  0.64984404  1
  S  S25  1  0.89691562  0.46571115  0.33969871  1
  S  S26  1  0.73987546  0.00086014  0.30791608  1
  S  S27  1  0.26628475  0.97246832  0.69668582  1
  S  S28  1  0.16161337  0.41495125  0.43632346  1
  S  S29  1  0.82979861  0.44011519  0.53471341  1
  S  S30  1  0.44035723  0.47622215  0.81982947  1
  S  S31  1  0.56611305  0.48164167  0.20673062  1
  S  S32  1  0.91799939  0.50888319  0.98246195  1
  S  S33  1  0.08395573  0.52419924  0.01023954  1
  S  S34  1  0.67420708  0.45701931  0.91406573  1
  S  S35  1  0.33499495  0.45036337  0.10466482  1
  S  S36  1  0.59390524  0.94626487  0.67302652  1
  S  S37  1  0.42491114  0.99035277  0.37112759  1
  S  S38  1  0.25155183  0.48968432  0.29044939  1
  S  S39  1  0.77091881  0.49322803  0.67878198  1
  S  S40  1  0.66838306  0.98173047  0.44770008  1
  S  S41  1  0.32614350  0.05594090  0.54653340  1
