# generated using pymatgen
data_Pr2Mn3(SbS3)4
_symmetry_space_group_name_H-M   'P 1'
_cell_length_a   20.02960800
_cell_length_b   3.90410600
_cell_length_c   14.95364829
_cell_angle_alpha   90.00000000
_cell_angle_beta   126.33350609
_cell_angle_gamma   90.00000000
_symmetry_Int_Tables_number   1
_chemical_formula_structural   Pr2Mn3(SbS3)4
_chemical_formula_sum   'Pr4 Mn6 Sb8 S24'
_cell_volume   942.00006694
_cell_formula_units_Z   2
loop_
 _symmetry_equiv_pos_site_id
 _symmetry_equiv_pos_as_xyz
  1  'x, y, z'
loop_
 _atom_site_type_symbol
 _atom_site_label
 _atom_site_symmetry_multiplicity
 _atom_site_fract_x
 _atom_site_fract_y
 _atom_site_fract_z
 _atom_site_occupancy
  Pr  Pr0  1  0.25908945  0.49124099  0.86283325  1
  Pr  Pr1  1  0.72506582  0.55039355  0.12868539  1
  Pr  Pr2  1  0.76349481  0.97673319  0.87979613  1
  Pr  Pr3  1  0.24837237  0.00015357  0.14728690  1
  Mn  Mn4  1  0.28147112  0.57385421  0.58904983  1
  Mn  Mn5  1  0.70590685  0.46435336  0.38928011  1
  Mn  Mn6  1  0.99874665  0.94733384  0.99481830  1
  Mn  Mn7  1  0.79769815  0.99659287  0.59506642  1
  Mn  Mn8  1  0.20244227  0.89329608  0.41296837  1
  Mn  Mn9  1  0.50344126  0.48610637  0.00313402  1
  Sb  Sb10  1  0.89250522  0.99881050  0.44974262  1
  Sb  Sb11  1  0.11217808  0.03877784  0.56676562  1
  Sb  Sb12  1  0.02330680  0.51633710  0.79872544  1
  Sb  Sb13  1  0.97177380  0.49566288  0.18237446  1
  Sb  Sb14  1  0.39986361  0.50355255  0.46571960  1
  Sb  Sb15  1  0.60804664  0.43447309  0.56734533  1
  Sb  Sb16  1  0.53148189  0.01190703  0.81872662  1
  Sb  Sb17  1  0.46212055  0.01249050  0.17427969  1
  S  S18  1  0.92205481  0.01637838  0.76622135  1
  S  S19  1  0.05303129  0.00117203  0.18135676  1
  S  S20  1  0.42023339  0.02575582  0.98631574  1
  S  S21  1  0.58774635  0.00199632  0.02449597  1
  S  S22  1  0.17088067  0.97996233  0.89169835  1
  S  S23  1  0.82888047  0.02553806  0.10776165  1
  S  S24  1  0.08929753  0.47611865  0.65004699  1
  S  S25  1  0.89716191  0.46655394  0.34015985  1
  S  S26  1  0.74025447  0.00098193  0.30805648  1
  S  S27  1  0.26595891  0.97363711  0.69658375  1
  S  S28  1  0.16192213  0.41556055  0.43643438  1
  S  S29  1  0.82958225  0.44010324  0.53429798  1
  S  S30  1  0.44014687  0.47441526  0.81983772  1
  S  S31  1  0.56645220  0.48161554  0.20701663  1
  S  S32  1  0.91790518  0.50884019  0.98238861  1
  S  S33  1  0.08371214  0.52344521  0.00984461  1
  S  S34  1  0.67405948  0.45685145  0.91411609  1
  S  S35  1  0.33503737  0.45129831  0.10503216  1
  S  S36  1  0.59399777  0.94605892  0.67330075  1
  S  S37  1  0.42504777  0.98936286  0.37119008  1
  S  S38  1  0.25189541  0.48975806  0.29008153  1
  S  S39  1  0.77086913  0.49408752  0.67879908  1
  S  S40  1  0.66864559  0.98285644  0.44781755  1
  S  S41  1  0.32650132  0.05669391  0.54642230  1
