# generated using pymatgen
data_Pr2Mn3(SbS3)4
_symmetry_space_group_name_H-M   'P 1'
_cell_length_a   20.02960800
_cell_length_b   3.90410600
_cell_length_c   14.95364829
_cell_angle_alpha   90.00000000
_cell_angle_beta   126.33350609
_cell_angle_gamma   90.00000000
_symmetry_Int_Tables_number   1
_chemical_formula_structural   Pr2Mn3(SbS3)4
_chemical_formula_sum   'Pr4 Mn6 Sb8 S24'
_cell_volume   942.00006694
_cell_formula_units_Z   2
loop_
 _symmetry_equiv_pos_site_id
 _symmetry_equiv_pos_as_xyz
  1  'x, y, z'
loop_
 _atom_site_type_symbol
 _atom_site_label
 _atom_site_symmetry_multiplicity
 _atom_site_fract_x
 _atom_site_fract_y
 _atom_site_fract_z
 _atom_site_occupancy
  Pr  Pr0  1  0.25921054  0.49063354  0.86316853  1
  Pr  Pr1  1  0.72515319  0.55024954  0.12873162  1
  Pr  Pr2  1  0.76348093  0.97666203  0.87980194  1
  Pr  Pr3  1  0.24849154  0.00042884  0.14751829  1
  Mn  Mn4  1  0.28142093  0.57260498  0.58889238  1
  Mn  Mn5  1  0.70590777  0.46575572  0.38931538  1
  Mn  Mn6  1  0.99896328  0.94706606  0.99473825  1
  Mn  Mn7  1  0.79769860  0.99720076  0.59517023  1
  Mn  Mn8  1  0.20237225  0.89281715  0.41277431  1
  Mn  Mn9  1  0.50344804  0.48553571  0.00290320  1
  Sb  Sb10  1  0.89240083  0.99779924  0.44967697  1
  Sb  Sb11  1  0.11211998  0.03894517  0.56688592  1
  Sb  Sb12  1  0.02332495  0.51706248  0.79882860  1
  Sb  Sb13  1  0.97189014  0.49589886  0.18242942  1
  Sb  Sb14  1  0.39997236  0.50402926  0.46576991  1
  Sb  Sb15  1  0.60785620  0.43416409  0.56735166  1
  Sb  Sb16  1  0.53158758  0.01118313  0.81880485  1
  Sb  Sb17  1  0.46227929  0.01278031  0.17441946  1
  S  S18  1  0.92217119  0.01593640  0.76578811  1
  S  S19  1  0.05298514  0.00158126  0.18142256  1
  S  S20  1  0.42037735  0.02489858  0.98690933  1
  S  S21  1  0.58761492  0.00125883  0.02435354  1
  S  S22  1  0.17076544  0.98158967  0.89136485  1
  S  S23  1  0.82868741  0.02594222  0.10757917  1
  S  S24  1  0.08957091  0.47700399  0.65007506  1
  S  S25  1  0.89727591  0.46668956  0.34063246  1
  S  S26  1  0.74050859  0.00056283  0.30809188  1
  S  S27  1  0.26576409  0.97484700  0.69637838  1
  S  S28  1  0.16204707  0.41638719  0.43636723  1
  S  S29  1  0.82968712  0.44023376  0.53419525  1
  S  S30  1  0.43974888  0.47205289  0.81961764  1
  S  S31  1  0.56657229  0.48177033  0.20702796  1
  S  S32  1  0.91770513  0.50919364  0.98232301  1
  S  S33  1  0.08351840  0.52261617  0.00946235  1
  S  S34  1  0.67381349  0.45657810  0.91393743  1
  S  S35  1  0.33514257  0.45262609  0.10552652  1
  S  S36  1  0.59405977  0.94562686  0.67356968  1
  S  S37  1  0.42515544  0.98849544  0.37118319  1
  S  S38  1  0.25214556  0.48997181  0.28970856  1
  S  S39  1  0.77087612  0.49466216  0.67891174  1
  S  S40  1  0.66880812  0.98319826  0.44796242  1
  S  S41  1  0.32693963  0.05720470  0.54649302  1
