# generated using pymatgen
data_Pr2Mn3(SbS3)4
_symmetry_space_group_name_H-M   'P 1'
_cell_length_a   20.02960800
_cell_length_b   3.90410600
_cell_length_c   14.95364829
_cell_angle_alpha   90.00000000
_cell_angle_beta   126.33350609
_cell_angle_gamma   90.00000000
_symmetry_Int_Tables_number   1
_chemical_formula_structural   Pr2Mn3(SbS3)4
_chemical_formula_sum   'Pr4 Mn6 Sb8 S24'
_cell_volume   942.00006694
_cell_formula_units_Z   2
loop_
 _symmetry_equiv_pos_site_id
 _symmetry_equiv_pos_as_xyz
  1  'x, y, z'
loop_
 _atom_site_type_symbol
 _atom_site_label
 _atom_site_symmetry_multiplicity
 _atom_site_fract_x
 _atom_site_fract_y
 _atom_site_fract_z
 _atom_site_occupancy
  Pr  Pr0  1  0.25925351  0.49029192  0.86336194  1
  Pr  Pr1  1  0.72518878  0.55013681  0.12880194  1
  Pr  Pr2  1  0.76349912  0.97651754  0.87982258  1
  Pr  Pr3  1  0.24850104  0.00102074  0.14765172  1
  Mn  Mn4  1  0.28130373  0.57122481  0.58874261  1
  Mn  Mn5  1  0.70597485  0.46689989  0.38938376  1
  Mn  Mn6  1  0.99912914  0.94693088  0.99472685  1
  Mn  Mn7  1  0.79762154  0.99810698  0.59522989  1
  Mn  Mn8  1  0.20228588  0.89233781  0.41269079  1
  Mn  Mn9  1  0.50337995  0.48473071  0.00264424  1
  Sb  Sb10  1  0.89227664  0.99724746  0.44953284  1
  Sb  Sb11  1  0.11205562  0.03885275  0.56699717  1
  Sb  Sb12  1  0.02337160  0.51769710  0.79889084  1
  Sb  Sb13  1  0.97204546  0.49621619  0.18246866  1
  Sb  Sb14  1  0.40007828  0.50458063  0.46584001  1
  Sb  Sb15  1  0.60771762  0.43393547  0.56732624  1
  Sb  Sb16  1  0.53156854  0.01063907  0.81881776  1
  Sb  Sb17  1  0.46245491  0.01303915  0.17464350  1
  S  S18  1  0.92232618  0.01506035  0.76525625  1
  S  S19  1  0.05304954  0.00193172  0.18156369  1
  S  S20  1  0.42042718  0.02358758  0.98719774  1
  S  S21  1  0.58747037  0.00127423  0.02434728  1
  S  S22  1  0.17074709  0.98288358  0.89129479  1
  S  S23  1  0.82854591  0.02620537  0.10728020  1
  S  S24  1  0.08990647  0.47808066  0.65026344  1
  S  S25  1  0.89746763  0.46698987  0.34113137  1
  S  S26  1  0.74072079  0.00015888  0.30794575  1
  S  S27  1  0.26542369  0.97569143  0.69605834  1
  S  S28  1  0.16211735  0.41722534  0.43626354  1
  S  S29  1  0.82982431  0.44107136  0.53430560  1
  S  S30  1  0.43940231  0.47004751  0.81945256  1
  S  S31  1  0.56678235  0.48165003  0.20723056  1
  S  S32  1  0.91746922  0.50903144  0.98220186  1
  S  S33  1  0.08329267  0.52149424  0.00916628  1
  S  S34  1  0.67352416  0.45631028  0.91343510  1
  S  S35  1  0.33511542  0.45369199  0.10565944  1
  S  S36  1  0.59411394  0.94594381  0.67388877  1
  S  S37  1  0.42535210  0.98658624  0.37117196  1
  S  S38  1  0.25237896  0.49030296  0.28941187  1
  S  S39  1  0.77080942  0.49479009  0.67893092  1
  S  S40  1  0.66913640  0.98242451  0.44823558  1
  S  S41  1  0.32741609  0.05740538  0.54669583  1
