# generated using pymatgen
data_Pr2Mn3(SbS3)4
_symmetry_space_group_name_H-M   'P 1'
_cell_length_a   20.02960800
_cell_length_b   3.90410600
_cell_length_c   14.95364829
_cell_angle_alpha   90.00000000
_cell_angle_beta   126.33350609
_cell_angle_gamma   90.00000000
_symmetry_Int_Tables_number   1
_chemical_formula_structural   Pr2Mn3(SbS3)4
_chemical_formula_sum   'Pr4 Mn6 Sb8 S24'
_cell_volume   942.00006694
_cell_formula_units_Z   2
loop_
 _symmetry_equiv_pos_site_id
 _symmetry_equiv_pos_as_xyz
  1  'x, y, z'
loop_
 _atom_site_type_symbol
 _atom_site_label
 _atom_site_symmetry_multiplicity
 _atom_site_fract_x
 _atom_site_fract_y
 _atom_site_fract_z
 _atom_site_occupancy
  Pr  Pr0  1  0.25932196  0.48979862  0.86364378  1
  Pr  Pr1  1  0.72520216  0.54994787  0.12887132  1
  Pr  Pr2  1  0.76348968  0.97688685  0.87976109  1
  Pr  Pr3  1  0.24849513  0.00164607  0.14777122  1
  Mn  Mn4  1  0.28131346  0.57008161  0.58855431  1
  Mn  Mn5  1  0.70584899  0.46742615  0.38920423  1
  Mn  Mn6  1  0.99917263  0.94692628  0.99475903  1
  Mn  Mn7  1  0.79765832  0.99869206  0.59534619  1
  Mn  Mn8  1  0.20214552  0.89232604  0.41263093  1
  Mn  Mn9  1  0.50334231  0.48416659  0.00246197  1
  Sb  Sb10  1  0.89214237  0.99671661  0.44928957  1
  Sb  Sb11  1  0.11201179  0.03875927  0.56705349  1
  Sb  Sb12  1  0.02345027  0.51841612  0.79893800  1
  Sb  Sb13  1  0.97224501  0.49643636  0.18257559  1
  Sb  Sb14  1  0.40010677  0.50486934  0.46579775  1
  Sb  Sb15  1  0.60764639  0.43391317  0.56736006  1
  Sb  Sb16  1  0.53157205  0.01017122  0.81887522  1
  Sb  Sb17  1  0.46269121  0.01327788  0.17489548  1
  S  S18  1  0.92248200  0.01400629  0.76473605  1
  S  S19  1  0.05316958  0.00227582  0.18178896  1
  S  S20  1  0.42045980  0.02223965  0.98739034  1
  S  S21  1  0.58741897  0.00103170  0.02437652  1
  S  S22  1  0.17059014  0.98326705  0.89115586  1
  S  S23  1  0.82853847  0.02697520  0.10710626  1
  S  S24  1  0.09005185  0.47953449  0.65036336  1
  S  S25  1  0.89753222  0.46744631  0.34154423  1
  S  S26  1  0.74105470  0.99994434  0.30785649  1
  S  S27  1  0.26515462  0.97611520  0.69578346  1
  S  S28  1  0.16195214  0.41789277  0.43603149  1
  S  S29  1  0.83001745  0.44192730  0.53446975  1
  S  S30  1  0.43907581  0.46915687  0.81924394  1
  S  S31  1  0.56691730  0.48152305  0.20729630  1
  S  S32  1  0.91733756  0.50951573  0.98212549  1
  S  S33  1  0.08299369  0.52040367  0.00899486  1
  S  S34  1  0.67324516  0.45611917  0.91293567  1
  S  S35  1  0.33514964  0.45485534  0.10582243  1
  S  S36  1  0.59399060  0.94651654  0.67403519  1
  S  S37  1  0.42565008  0.98443610  0.37133678  1
  S  S38  1  0.25254131  0.49043365  0.28919879  1
  S  S39  1  0.77054043  0.49476488  0.67863391  1
  S  S40  1  0.66940323  0.98215554  0.44844293  1
  S  S41  1  0.32764994  0.05816492  0.54657163  1
