# generated using pymatgen
data_Pr2Mn3(SbS3)4
_symmetry_space_group_name_H-M   'P 1'
_cell_length_a   20.02960800
_cell_length_b   3.90410600
_cell_length_c   14.95364829
_cell_angle_alpha   90.00000000
_cell_angle_beta   126.33350609
_cell_angle_gamma   90.00000000
_symmetry_Int_Tables_number   1
_chemical_formula_structural   Pr2Mn3(SbS3)4
_chemical_formula_sum   'Pr4 Mn6 Sb8 S24'
_cell_volume   942.00006694
_cell_formula_units_Z   2
loop_
 _symmetry_equiv_pos_site_id
 _symmetry_equiv_pos_as_xyz
  1  'x, y, z'
loop_
 _atom_site_type_symbol
 _atom_site_label
 _atom_site_symmetry_multiplicity
 _atom_site_fract_x
 _atom_site_fract_y
 _atom_site_fract_z
 _atom_site_occupancy
  Pr  Pr0  1  0.26967798  0.49518427  0.86711265  1
  Pr  Pr1  1  0.73392445  0.51466190  0.13267945  1
  Pr  Pr2  1  0.76428653  0.02359648  0.86346980  1
  Pr  Pr3  1  0.23346765  0.99603694  0.13141743  1
  Mn  Mn4  1  0.29659681  0.47486413  0.59954072  1
  Mn  Mn5  1  0.68591611  0.46213087  0.36277288  1
  Mn  Mn6  1  0.00484363  0.98894921  0.01018329  1
  Mn  Mn7  1  0.79720540  0.00538226  0.61774187  1
  Mn  Mn8  1  0.19651799  0.97831509  0.36824718  1
  Mn  Mn9  1  0.48677122  0.46708127  0.98520087  1
  Sb  Sb10  1  0.88849287  0.98792872  0.45125851  1
  Sb  Sb11  1  0.10934311  0.98003856  0.54490715  1
  Sb  Sb12  1  0.03584203  0.52635885  0.82044501  1
  Sb  Sb13  1  0.96724121  0.49803237  0.19031246  1
  Sb  Sb14  1  0.39228339  0.50056272  0.44775089  1
  Sb  Sb15  1  0.60574113  0.47477263  0.54689229  1
  Sb  Sb16  1  0.53403795  0.98229268  0.80844512  1
  Sb  Sb17  1  0.46569365  0.01524225  0.19046464  1
  S  S18  1  0.93553346  0.02093786  0.80729626  1
  S  S19  1  0.06488557  0.99571295  0.19870146  1
  S  S20  1  0.41949433  0.95431931  0.99043671  1
  S  S21  1  0.58421758  0.02613603  0.01544252  1
  S  S22  1  0.16975300  0.05460049  0.90055423  1
  S  S23  1  0.82670949  0.04023359  0.10159022  1
  S  S24  1  0.09011202  0.50180674  0.64578225  1
  S  S25  1  0.91617079  0.48094589  0.35799625  1
  S  S26  1  0.73952976  0.98951149  0.30396181  1
  S  S27  1  0.26046939  0.00718555  0.71195008  1
  S  S28  1  0.16538311  0.51920721  0.43278670  1
  S  S29  1  0.81606870  0.48997550  0.54628009  1
  S  S30  1  0.43137126  0.47312761  0.79570102  1
  S  S31  1  0.55459830  0.52291058  0.18124470  1
  S  S32  1  0.91898477  0.50258697  0.98928306  1
  S  S33  1  0.09264745  0.48949873  0.03133471  1
  S  S34  1  0.66301782  0.55374651  0.89372103  1
  S  S35  1  0.32593378  0.48636744  0.09166700  1
  S  S36  1  0.59256339  0.99570262  0.65091602  1
  S  S37  1  0.39982316  0.98938108  0.34342148  1
  S  S38  1  0.24279687  0.46375897  0.31575661  1
  S  S39  1  0.75947261  0.52306560  0.68748931  1
  S  S40  1  0.66391161  0.00044564  0.44802016  1
  S  S41  1  0.33191309  0.97846243  0.55580724  1
