# generated using pymatgen
data_Pr2Mn3(SbS3)4
_symmetry_space_group_name_H-M   'P 1'
_cell_length_a   20.02960800
_cell_length_b   3.90410600
_cell_length_c   14.95364829
_cell_angle_alpha   90.00000000
_cell_angle_beta   126.33350609
_cell_angle_gamma   90.00000000
_symmetry_Int_Tables_number   1
_chemical_formula_structural   Pr2Mn3(SbS3)4
_chemical_formula_sum   'Pr4 Mn6 Sb8 S24'
_cell_volume   942.00006694
_cell_formula_units_Z   2
loop_
 _symmetry_equiv_pos_site_id
 _symmetry_equiv_pos_as_xyz
  1  'x, y, z'
loop_
 _atom_site_type_symbol
 _atom_site_label
 _atom_site_symmetry_multiplicity
 _atom_site_fract_x
 _atom_site_fract_y
 _atom_site_fract_z
 _atom_site_occupancy
  Pr  Pr0  1  0.25938168  0.48914656  0.86386248  1
  Pr  Pr1  1  0.72527372  0.54970537  0.12891591  1
  Pr  Pr2  1  0.76350994  0.97703678  0.87980803  1
  Pr  Pr3  1  0.24852154  0.00193973  0.14788563  1
  Mn  Mn4  1  0.28144287  0.56890754  0.58830418  1
  Mn  Mn5  1  0.70571164  0.46785869  0.38905970  1
  Mn  Mn6  1  0.99911414  0.94716419  0.99482427  1
  Mn  Mn7  1  0.79770342  0.99927975  0.59561027  1
  Mn  Mn8  1  0.20193983  0.89231955  0.41244609  1
  Mn  Mn9  1  0.50332991  0.48358534  0.00240755  1
  Sb  Sb10  1  0.89206443  0.99624275  0.44909736  1
  Sb  Sb11  1  0.11200770  0.03881393  0.56709414  1
  Sb  Sb12  1  0.02352151  0.51915241  0.79908932  1
  Sb  Sb13  1  0.97245943  0.49673890  0.18257952  1
  Sb  Sb14  1  0.40015907  0.50496981  0.46575322  1
  Sb  Sb15  1  0.60760617  0.43384246  0.56747433  1
  Sb  Sb16  1  0.53155820  0.00963533  0.81895119  1
  Sb  Sb17  1  0.46288197  0.01348320  0.17505232  1
  S  S18  1  0.92234228  0.01264923  0.76396773  1
  S  S19  1  0.05340809  0.00275926  0.18216688  1
  S  S20  1  0.42054591  0.02166009  0.98760322  1
  S  S21  1  0.58709507  0.00017208  0.02409101  1
  S  S22  1  0.17058065  0.98310157  0.89105151  1
  S  S23  1  0.82865774  0.02789731  0.10705231  1
  S  S24  1  0.09020103  0.48101787  0.65079142  1
  S  S25  1  0.89774911  0.46830806  0.34221388  1
  S  S26  1  0.74138429  0.99978696  0.30783037  1
  S  S27  1  0.26493405  0.97577123  0.69555078  1
  S  S28  1  0.16186536  0.41797756  0.43587968  1
  S  S29  1  0.83019222  0.44286419  0.53448818  1
  S  S30  1  0.43869231  0.46890050  0.81903193  1
  S  S31  1  0.56699853  0.48114038  0.20730728  1
  S  S32  1  0.91736065  0.51007992  0.98223584  1
  S  S33  1  0.08272903  0.51937881  0.00880461  1
  S  S34  1  0.67288065  0.45633343  0.91229128  1
  S  S35  1  0.33507623  0.45644069  0.10576092  1
  S  S36  1  0.59389312  0.94687923  0.67406370  1
  S  S37  1  0.42577943  0.98230243  0.37143237  1
  S  S38  1  0.25280662  0.49065497  0.28902901  1
  S  S39  1  0.77021564  0.49495613  0.67841573  1
  S  S40  1  0.66963119  0.98166364  0.44854895  1
  S  S41  1  0.32771384  0.05870937  0.54616828  1
