# generated using pymatgen
data_Pr2Mn3(SbS3)4
_symmetry_space_group_name_H-M   'P 1'
_cell_length_a   20.02960800
_cell_length_b   3.90410600
_cell_length_c   14.95364829
_cell_angle_alpha   90.00000000
_cell_angle_beta   126.33350609
_cell_angle_gamma   90.00000000
_symmetry_Int_Tables_number   1
_chemical_formula_structural   Pr2Mn3(SbS3)4
_chemical_formula_sum   'Pr4 Mn6 Sb8 S24'
_cell_volume   942.00006694
_cell_formula_units_Z   2
loop_
 _symmetry_equiv_pos_site_id
 _symmetry_equiv_pos_as_xyz
  1  'x, y, z'
loop_
 _atom_site_type_symbol
 _atom_site_label
 _atom_site_symmetry_multiplicity
 _atom_site_fract_x
 _atom_site_fract_y
 _atom_site_fract_z
 _atom_site_occupancy
  Pr  Pr0  1  0.25940352  0.48838402  0.86400327  1
  Pr  Pr1  1  0.72532342  0.54963880  0.12898658  1
  Pr  Pr2  1  0.76352917  0.97748414  0.87991318  1
  Pr  Pr3  1  0.24854178  0.00214116  0.14797570  1
  Mn  Mn4  1  0.28159174  0.56757368  0.58818573  1
  Mn  Mn5  1  0.70547795  0.46817876  0.38881598  1
  Mn  Mn6  1  0.99913232  0.94734854  0.99497301  1
  Mn  Mn7  1  0.79787578  0.99990676  0.59594344  1
  Mn  Mn8  1  0.20170219  0.89231645  0.41235290  1
  Mn  Mn9  1  0.50329272  0.48320083  0.00224094  1
  Sb  Sb10  1  0.89206033  0.99601978  0.44896508  1
  Sb  Sb11  1  0.11192641  0.03880311  0.56703251  1
  Sb  Sb12  1  0.02355501  0.51984720  0.79931908  1
  Sb  Sb13  1  0.97270100  0.49694489  0.18259576  1
  Sb  Sb14  1  0.40022334  0.50518705  0.46575478  1
  Sb  Sb15  1  0.60755212  0.43379785  0.56751292  1
  Sb  Sb16  1  0.53155758  0.00881731  0.81898747  1
  Sb  Sb17  1  0.46304991  0.01382464  0.17518524  1
  S  S18  1  0.92239823  0.01128478  0.76366145  1
  S  S19  1  0.05377685  0.00383303  0.18262849  1
  S  S20  1  0.42069144  0.02097125  0.98748872  1
  S  S21  1  0.58684799  0.99950496  0.02393990  1
  S  S22  1  0.17042150  0.98329022  0.89083665  1
  S  S23  1  0.82889254  0.02801263  0.10706100  1
  S  S24  1  0.09050171  0.48182640  0.65136263  1
  S  S25  1  0.89794096  0.46965196  0.34289598  1
  S  S26  1  0.74144040  0.99929009  0.30753338  1
  S  S27  1  0.26471234  0.97558293  0.69536739  1
  S  S28  1  0.16180110  0.41719405  0.43578451  1
  S  S29  1  0.83025747  0.44365775  0.53457602  1
  S  S30  1  0.43847685  0.46883508  0.81909656  1
  S  S31  1  0.56706063  0.48048593  0.20723526  1
  S  S32  1  0.91720068  0.51014842  0.98233854  1
  S  S33  1  0.08245292  0.51886863  0.00852364  1
  S  S34  1  0.67244317  0.45679661  0.91152932  1
  S  S35  1  0.33494524  0.45774464  0.10559237  1
  S  S36  1  0.59364091  0.94685923  0.67406063  1
  S  S37  1  0.42584144  0.98025058  0.37143838  1
  S  S38  1  0.25309053  0.49108625  0.28889252  1
  S  S39  1  0.76988730  0.49529514  0.67813372  1
  S  S40  1  0.66994741  0.98047333  0.44866089  1
  S  S41  1  0.32782826  0.05864012  0.54603988  1
