# generated using pymatgen
data_Pr2Mn3(SbS3)4
_symmetry_space_group_name_H-M   'P 1'
_cell_length_a   20.02960800
_cell_length_b   3.90410600
_cell_length_c   14.95364829
_cell_angle_alpha   90.00000000
_cell_angle_beta   126.33350609
_cell_angle_gamma   90.00000000
_symmetry_Int_Tables_number   1
_chemical_formula_structural   Pr2Mn3(SbS3)4
_chemical_formula_sum   'Pr4 Mn6 Sb8 S24'
_cell_volume   942.00006694
_cell_formula_units_Z   2
loop_
 _symmetry_equiv_pos_site_id
 _symmetry_equiv_pos_as_xyz
  1  'x, y, z'
loop_
 _atom_site_type_symbol
 _atom_site_label
 _atom_site_symmetry_multiplicity
 _atom_site_fract_x
 _atom_site_fract_y
 _atom_site_fract_z
 _atom_site_occupancy
  Pr  Pr0  1  0.25939873  0.48769963  0.86414887  1
  Pr  Pr1  1  0.72541246  0.54960834  0.12907475  1
  Pr  Pr2  1  0.76352911  0.97800618  0.88000602  1
  Pr  Pr3  1  0.24849016  0.00219699  0.14801202  1
  Mn  Mn4  1  0.28183956  0.56642805  0.58814027  1
  Mn  Mn5  1  0.70521645  0.46867865  0.38855644  1
  Mn  Mn6  1  0.99921426  0.94741880  0.99515312  1
  Mn  Mn7  1  0.79810926  0.99997264  0.59628146  1
  Mn  Mn8  1  0.20155503  0.89231735  0.41236218  1
  Mn  Mn9  1  0.50328955  0.48259276  0.00214687  1
  Sb  Sb10  1  0.89200221  0.99572748  0.44875550  1
  Sb  Sb11  1  0.11187188  0.03874539  0.56693340  1
  Sb  Sb12  1  0.02356117  0.52050816  0.79946452  1
  Sb  Sb13  1  0.97292666  0.49758440  0.18260878  1
  Sb  Sb14  1  0.40027720  0.50528216  0.46583761  1
  Sb  Sb15  1  0.60749099  0.43387040  0.56753072  1
  Sb  Sb16  1  0.53144678  0.00831664  0.81891529  1
  Sb  Sb17  1  0.46317890  0.01419509  0.17534353  1
  S  S18  1  0.92257819  0.01032917  0.76357501  1
  S  S19  1  0.05414335  0.00474941  0.18323549  1
  S  S20  1  0.42099488  0.02083218  0.98764788  1
  S  S21  1  0.58675946  0.99869898  0.02382187  1
  S  S22  1  0.17035843  0.98321197  0.89082153  1
  S  S23  1  0.82913691  0.02794320  0.10710027  1
  S  S24  1  0.09082888  0.48197438  0.65180786  1
  S  S25  1  0.89810498  0.47089637  0.34368482  1
  S  S26  1  0.74140652  0.99893885  0.30702671  1
  S  S27  1  0.26471262  0.97610090  0.69525634  1
  S  S28  1  0.16172022  0.41680450  0.43569091  1
  S  S29  1  0.83018487  0.44388149  0.53458618  1
  S  S30  1  0.43830398  0.46879628  0.81920998  1
  S  S31  1  0.56713456  0.47950656  0.20732817  1
  S  S32  1  0.91690787  0.50990629  0.98232804  1
  S  S33  1  0.08216375  0.51855748  0.00810463  1
  S  S34  1  0.67196852  0.45761006  0.91078416  1
  S  S35  1  0.33480320  0.45899433  0.10554040  1
  S  S36  1  0.59340913  0.94636017  0.67402812  1
  S  S37  1  0.42579084  0.97813680  0.37144307  1
  S  S38  1  0.25331887  0.49170210  0.28878469  1
  S  S39  1  0.76956506  0.49532002  0.67801286  1
  S  S40  1  0.67023881  0.97858410  0.44879648  1
  S  S41  1  0.32795625  0.05825076  0.54579019  1
