# generated using pymatgen
data_Pr2Mn3(SbS3)4
_symmetry_space_group_name_H-M   'P 1'
_cell_length_a   20.02960800
_cell_length_b   3.90410600
_cell_length_c   14.95364829
_cell_angle_alpha   90.00000000
_cell_angle_beta   126.33350609
_cell_angle_gamma   90.00000000
_symmetry_Int_Tables_number   1
_chemical_formula_structural   Pr2Mn3(SbS3)4
_chemical_formula_sum   'Pr4 Mn6 Sb8 S24'
_cell_volume   942.00006694
_cell_formula_units_Z   2
loop_
 _symmetry_equiv_pos_site_id
 _symmetry_equiv_pos_as_xyz
  1  'x, y, z'
loop_
 _atom_site_type_symbol
 _atom_site_label
 _atom_site_symmetry_multiplicity
 _atom_site_fract_x
 _atom_site_fract_y
 _atom_site_fract_z
 _atom_site_occupancy
  Pr  Pr0  1  0.25939245  0.48728356  0.86425380  1
  Pr  Pr1  1  0.72544976  0.54946958  0.12913619  1
  Pr  Pr2  1  0.76355725  0.97825671  0.88006219  1
  Pr  Pr3  1  0.24837207  0.00206578  0.14791384  1
  Mn  Mn4  1  0.28198513  0.56500709  0.58798402  1
  Mn  Mn5  1  0.70493942  0.46898891  0.38840948  1
  Mn  Mn6  1  0.99933043  0.94741511  0.99536498  1
  Mn  Mn7  1  0.79835062  0.00020736  0.59676907  1
  Mn  Mn8  1  0.20137524  0.89200379  0.41242180  1
  Mn  Mn9  1  0.50322986  0.48205610  0.00207167  1
  Sb  Sb10  1  0.89199949  0.99492732  0.44860609  1
  Sb  Sb11  1  0.11185710  0.03895146  0.56678918  1
  Sb  Sb12  1  0.02366091  0.52094675  0.79966961  1
  Sb  Sb13  1  0.97317978  0.49801512  0.18266317  1
  Sb  Sb14  1  0.40029567  0.50512105  0.46592016  1
  Sb  Sb15  1  0.60740203  0.43378978  0.56753372  1
  Sb  Sb16  1  0.53143411  0.00775280  0.81898497  1
  Sb  Sb17  1  0.46328588  0.01445204  0.17545965  1
  S  S18  1  0.92280212  0.00909615  0.76361743  1
  S  S19  1  0.05449285  0.00508581  0.18384471  1
  S  S20  1  0.42122117  0.02112072  0.98780145  1
  S  S21  1  0.58672440  0.99811881  0.02376931  1
  S  S22  1  0.17035030  0.98324957  0.89085387  1
  S  S23  1  0.82953001  0.02841759  0.10722440  1
  S  S24  1  0.09130510  0.48212857  0.65232291  1
  S  S25  1  0.89833989  0.47205225  0.34447672  1
  S  S26  1  0.74129901  0.99842627  0.30660433  1
  S  S27  1  0.26478713  0.97701301  0.69521012  1
  S  S28  1  0.16169070  0.41651870  0.43578751  1
  S  S29  1  0.83019715  0.44381289  0.53468388  1
  S  S30  1  0.43799714  0.46849239  0.81909882  1
  S  S31  1  0.56737645  0.47868752  0.20751859  1
  S  S32  1  0.91675004  0.51006722  0.98250594  1
  S  S33  1  0.08188454  0.51850118  0.00769086  1
  S  S34  1  0.67154204  0.45829551  0.90999362  1
  S  S35  1  0.33462238  0.46013117  0.10554367  1
  S  S36  1  0.59317718  0.94594036  0.67400931  1
  S  S37  1  0.42565119  0.97634886  0.37144356  1
  S  S38  1  0.25351334  0.49205708  0.28855679  1
  S  S39  1  0.76913859  0.49527323  0.67771527  1
  S  S40  1  0.67042077  0.97640793  0.44897652  1
  S  S41  1  0.32807026  0.05694791  0.54537150  1
