# generated using pymatgen
data_Pr2Mn3(SbS3)4
_symmetry_space_group_name_H-M   'P 1'
_cell_length_a   20.02960800
_cell_length_b   3.90410600
_cell_length_c   14.95364829
_cell_angle_alpha   90.00000000
_cell_angle_beta   126.33350609
_cell_angle_gamma   90.00000000
_symmetry_Int_Tables_number   1
_chemical_formula_structural   Pr2Mn3(SbS3)4
_chemical_formula_sum   'Pr4 Mn6 Sb8 S24'
_cell_volume   942.00006694
_cell_formula_units_Z   2
loop_
 _symmetry_equiv_pos_site_id
 _symmetry_equiv_pos_as_xyz
  1  'x, y, z'
loop_
 _atom_site_type_symbol
 _atom_site_label
 _atom_site_symmetry_multiplicity
 _atom_site_fract_x
 _atom_site_fract_y
 _atom_site_fract_z
 _atom_site_occupancy
  Pr  Pr0  1  0.25936398  0.48679048  0.86434926  1
  Pr  Pr1  1  0.72551373  0.54945915  0.12913984  1
  Pr  Pr2  1  0.76357944  0.97864391  0.88011291  1
  Pr  Pr3  1  0.24826141  0.00201267  0.14785590  1
  Mn  Mn4  1  0.28222506  0.56359226  0.58782812  1
  Mn  Mn5  1  0.70461238  0.46913087  0.38827087  1
  Mn  Mn6  1  0.99933998  0.94768512  0.99534473  1
  Mn  Mn7  1  0.79871669  0.00068188  0.59727621  1
  Mn  Mn8  1  0.20124341  0.89124055  0.41238644  1
  Mn  Mn9  1  0.50314653  0.48147672  0.00206977  1
  Sb  Sb10  1  0.89200727  0.99431296  0.44839344  1
  Sb  Sb11  1  0.11178881  0.03894008  0.56656466  1
  Sb  Sb12  1  0.02378597  0.52130845  0.79991009  1
  Sb  Sb13  1  0.97338012  0.49830049  0.18271387  1
  Sb  Sb14  1  0.40036756  0.50507783  0.46606783  1
  Sb  Sb15  1  0.60730612  0.43431085  0.56764970  1
  Sb  Sb16  1  0.53141842  0.00709219  0.81906641  1
  Sb  Sb17  1  0.46336795  0.01470233  0.17551313  1
  S  S18  1  0.92308197  0.00793999  0.76371649  1
  S  S19  1  0.05482882  0.00568247  0.18450042  1
  S  S20  1  0.42148853  0.02028765  0.98804956  1
  S  S21  1  0.58662529  0.99795372  0.02355256  1
  S  S22  1  0.17036784  0.98345276  0.89092629  1
  S  S23  1  0.82994541  0.02924859  0.10739527  1
  S  S24  1  0.09183124  0.48169614  0.65285906  1
  S  S25  1  0.89856136  0.47275121  0.34531321  1
  S  S26  1  0.74136619  0.99747500  0.30637394  1
  S  S27  1  0.26468034  0.97834171  0.69492628  1
  S  S28  1  0.16140455  0.41621791  0.43586918  1
  S  S29  1  0.83033693  0.44339540  0.53487176  1
  S  S30  1  0.43772520  0.46801652  0.81907528  1
  S  S31  1  0.56770320  0.47748509  0.20786823  1
  S  S32  1  0.91646571  0.51053520  0.98263829  1
  S  S33  1  0.08163759  0.51859739  0.00723580  1
  S  S34  1  0.67111162  0.45863925  0.90915318  1
  S  S35  1  0.33455729  0.46090099  0.10565907  1
  S  S36  1  0.59300369  0.94562644  0.67403313  1
  S  S37  1  0.42546603  0.97370764  0.37143111  1
  S  S38  1  0.25368786  0.49273599  0.28835122  1
  S  S39  1  0.76865641  0.49520137  0.67736620  1
  S  S40  1  0.67045696  0.97474175  0.44880105  1
  S  S41  1  0.32824208  0.05601741  0.54498080  1
