# generated using pymatgen
data_Pr2Mn3(SbS3)4
_symmetry_space_group_name_H-M   'P 1'
_cell_length_a   20.02960800
_cell_length_b   3.90410600
_cell_length_c   14.95364829
_cell_angle_alpha   90.00000000
_cell_angle_beta   126.33350609
_cell_angle_gamma   90.00000000
_symmetry_Int_Tables_number   1
_chemical_formula_structural   Pr2Mn3(SbS3)4
_chemical_formula_sum   'Pr4 Mn6 Sb8 S24'
_cell_volume   942.00006694
_cell_formula_units_Z   2
loop_
 _symmetry_equiv_pos_site_id
 _symmetry_equiv_pos_as_xyz
  1  'x, y, z'
loop_
 _atom_site_type_symbol
 _atom_site_label
 _atom_site_symmetry_multiplicity
 _atom_site_fract_x
 _atom_site_fract_y
 _atom_site_fract_z
 _atom_site_occupancy
  Pr  Pr0  1  0.25934538  0.48642227  0.86436964  1
  Pr  Pr1  1  0.72563758  0.54938184  0.12927418  1
  Pr  Pr2  1  0.76361019  0.97921223  0.88013828  1
  Pr  Pr3  1  0.24808039  0.00188465  0.14780476  1
  Mn  Mn4  1  0.28248351  0.56198533  0.58772458  1
  Mn  Mn5  1  0.70437713  0.46929970  0.38827515  1
  Mn  Mn6  1  0.99933786  0.94815065  0.99538750  1
  Mn  Mn7  1  0.79898340  0.00103810  0.59757452  1
  Mn  Mn8  1  0.20116551  0.89028027  0.41243266  1
  Mn  Mn9  1  0.50312379  0.48108258  0.00191131  1
  Sb  Sb10  1  0.89209421  0.99400977  0.44827681  1
  Sb  Sb11  1  0.11167483  0.03888254  0.56632988  1
  Sb  Sb12  1  0.02380381  0.52163634  0.80001957  1
  Sb  Sb13  1  0.97361552  0.49853444  0.18282346  1
  Sb  Sb14  1  0.40041783  0.50496411  0.46625143  1
  Sb  Sb15  1  0.60722003  0.43486578  0.56760297  1
  Sb  Sb16  1  0.53151139  0.00644847  0.81925126  1
  Sb  Sb17  1  0.46346688  0.01518429  0.17549566  1
  S  S18  1  0.92348898  0.00677992  0.76381471  1
  S  S19  1  0.05523430  0.00683947  0.18515850  1
  S  S20  1  0.42165636  0.01948114  0.98809934  1
  S  S21  1  0.58644317  0.99778352  0.02336489  1
  S  S22  1  0.17032397  0.98371219  0.89102887  1
  S  S23  1  0.83027721  0.03046096  0.10745139  1
  S  S24  1  0.09237376  0.48113201  0.65349072  1
  S  S25  1  0.89873534  0.47324556  0.34605655  1
  S  S26  1  0.74129124  0.99693450  0.30611021  1
  S  S27  1  0.26460035  0.97950848  0.69457092  1
  S  S28  1  0.16102100  0.41583104  0.43591743  1
  S  S29  1  0.83057990  0.44387452  0.53495645  1
  S  S30  1  0.43741450  0.46758588  0.81917094  1
  S  S31  1  0.56812670  0.47670589  0.20834614  1
  S  S32  1  0.91635973  0.51192164  0.98275433  1
  S  S33  1  0.08146368  0.51916172  0.00683702  1
  S  S34  1  0.67061245  0.45924594  0.90838494  1
  S  S35  1  0.33461629  0.46226872  0.10578384  1
  S  S36  1  0.59282967  0.94613457  0.67416404  1
  S  S37  1  0.42507030  0.97126398  0.37128513  1
  S  S38  1  0.25378279  0.49304129  0.28816710  1
  S  S39  1  0.76828333  0.49556445  0.67704250  1
  S  S40  1  0.67048251  0.97373182  0.44850089  1
  S  S41  1  0.32845487  0.05568758  0.54467251  1
