# generated using pymatgen
data_Pr2Mn3(SbS3)4
_symmetry_space_group_name_H-M   'P 1'
_cell_length_a   20.02960800
_cell_length_b   3.90410600
_cell_length_c   14.95364829
_cell_angle_alpha   90.00000000
_cell_angle_beta   126.33350609
_cell_angle_gamma   90.00000000
_symmetry_Int_Tables_number   1
_chemical_formula_structural   Pr2Mn3(SbS3)4
_chemical_formula_sum   'Pr4 Mn6 Sb8 S24'
_cell_volume   942.00006694
_cell_formula_units_Z   2
loop_
 _symmetry_equiv_pos_site_id
 _symmetry_equiv_pos_as_xyz
  1  'x, y, z'
loop_
 _atom_site_type_symbol
 _atom_site_label
 _atom_site_symmetry_multiplicity
 _atom_site_fract_x
 _atom_site_fract_y
 _atom_site_fract_z
 _atom_site_occupancy
  Pr  Pr0  1  0.25934258  0.48614251  0.86439149  1
  Pr  Pr1  1  0.72568687  0.54926066  0.12932389  1
  Pr  Pr2  1  0.76361097  0.97991462  0.88011599  1
  Pr  Pr3  1  0.24801833  0.00190723  0.14784049  1
  Mn  Mn4  1  0.28271420  0.56037052  0.58776095  1
  Mn  Mn5  1  0.70410578  0.47002547  0.38809608  1
  Mn  Mn6  1  0.99926237  0.94838961  0.99547477  1
  Mn  Mn7  1  0.79924463  0.00115551  0.59767622  1
  Mn  Mn8  1  0.20104943  0.88942379  0.41246007  1
  Mn  Mn9  1  0.50310872  0.48084321  0.00175893  1
  Sb  Sb10  1  0.89217887  0.99324505  0.44819086  1
  Sb  Sb11  1  0.11158686  0.03871184  0.56616339  1
  Sb  Sb12  1  0.02378068  0.52209833  0.80017510  1
  Sb  Sb13  1  0.97382380  0.49879904  0.18292593  1
  Sb  Sb14  1  0.40041300  0.50460641  0.46638762  1
  Sb  Sb15  1  0.60719795  0.43559213  0.56757216  1
  Sb  Sb16  1  0.53156668  0.00562369  0.81945803  1
  Sb  Sb17  1  0.46354148  0.01576190  0.17550254  1
  S  S18  1  0.92397061  0.00591750  0.76397594  1
  S  S19  1  0.05560796  0.00752286  0.18581608  1
  S  S20  1  0.42184718  0.01828734  0.98804339  1
  S  S21  1  0.58632944  0.99793779  0.02339649  1
  S  S22  1  0.17033969  0.98361799  0.89131562  1
  S  S23  1  0.83053923  0.03170699  0.10736379  1
  S  S24  1  0.09282653  0.48044355  0.65398224  1
  S  S25  1  0.89906001  0.47330291  0.34696177  1
  S  S26  1  0.74123130  0.99614407  0.30602515  1
  S  S27  1  0.26454516  0.97995534  0.69426821  1
  S  S28  1  0.16075179  0.41615161  0.43611815  1
  S  S29  1  0.83089540  0.44449860  0.53500496  1
  S  S30  1  0.43709784  0.46700465  0.81934625  1
  S  S31  1  0.56850384  0.47590187  0.20867345  1
  S  S32  1  0.91621190  0.51293696  0.98289355  1
  S  S33  1  0.08129238  0.51966161  0.00639144  1
  S  S34  1  0.67001222  0.45987407  0.90762857  1
  S  S35  1  0.33468184  0.46337147  0.10579473  1
  S  S36  1  0.59261541  0.94646337  0.67423756  1
  S  S37  1  0.42447633  0.96931841  0.37093180  1
  S  S38  1  0.25381549  0.49334958  0.28796476  1
  S  S39  1  0.76804946  0.49647487  0.67684471  1
  S  S40  1  0.67054923  0.97412864  0.44814371  1
  S  S41  1  0.32849882  0.05555549  0.54422809  1
