# generated using pymatgen
data_Pr2Mn3(SbS3)4
_symmetry_space_group_name_H-M   'P 1'
_cell_length_a   20.02960800
_cell_length_b   3.90410600
_cell_length_c   14.95364829
_cell_angle_alpha   90.00000000
_cell_angle_beta   126.33350609
_cell_angle_gamma   90.00000000
_symmetry_Int_Tables_number   1
_chemical_formula_structural   Pr2Mn3(SbS3)4
_chemical_formula_sum   'Pr4 Mn6 Sb8 S24'
_cell_volume   942.00006694
_cell_formula_units_Z   2
loop_
 _symmetry_equiv_pos_site_id
 _symmetry_equiv_pos_as_xyz
  1  'x, y, z'
loop_
 _atom_site_type_symbol
 _atom_site_label
 _atom_site_symmetry_multiplicity
 _atom_site_fract_x
 _atom_site_fract_y
 _atom_site_fract_z
 _atom_site_occupancy
  Pr  Pr0  1  0.25931912  0.48579603  0.86441007  1
  Pr  Pr1  1  0.72571417  0.54884363  0.12936524  1
  Pr  Pr2  1  0.76359432  0.98067358  0.88010509  1
  Pr  Pr3  1  0.24790746  0.00202801  0.14777168  1
  Mn  Mn4  1  0.28294513  0.55908495  0.58772341  1
  Mn  Mn5  1  0.70374191  0.47120769  0.38786621  1
  Mn  Mn6  1  0.99927273  0.94909850  0.99561789  1
  Mn  Mn7  1  0.79939167  0.00156449  0.59788626  1
  Mn  Mn8  1  0.20086883  0.88817218  0.41247850  1
  Mn  Mn9  1  0.50307527  0.48125821  0.00156080  1
  Sb  Sb10  1  0.89226505  0.99253235  0.44812137  1
  Sb  Sb11  1  0.11153513  0.03822296  0.56601668  1
  Sb  Sb12  1  0.02365342  0.52249783  0.80015206  1
  Sb  Sb13  1  0.97398233  0.49933368  0.18293582  1
  Sb  Sb14  1  0.40042706  0.50431008  0.46651830  1
  Sb  Sb15  1  0.60720159  0.43599285  0.56754039  1
  Sb  Sb16  1  0.53158526  0.00503201  0.81961010  1
  Sb  Sb17  1  0.46356640  0.01630776  0.17548935  1
  S  S18  1  0.92430542  0.00541979  0.76415713  1
  S  S19  1  0.05602430  0.00815734  0.18636113  1
  S  S20  1  0.42199350  0.01685015  0.98799794  1
  S  S21  1  0.58617613  0.99763634  0.02338536  1
  S  S22  1  0.17034037  0.98306738  0.89186819  1
  S  S23  1  0.83084372  0.03230338  0.10722245  1
  S  S24  1  0.09329932  0.47950067  0.65462158  1
  S  S25  1  0.89928722  0.47333143  0.34767740  1
  S  S26  1  0.74109438  0.99551239  0.30578652  1
  S  S27  1  0.26455705  0.98022762  0.69402122  1
  S  S28  1  0.16056889  0.41667896  0.43634747  1
  S  S29  1  0.83120955  0.44478496  0.53511565  1
  S  S30  1  0.43683193  0.46659030  0.81929551  1
  S  S31  1  0.56882735  0.47567157  0.20904004  1
  S  S32  1  0.91617574  0.51440862  0.98308550  1
  S  S33  1  0.08105766  0.51960764  0.00574029  1
  S  S34  1  0.66932844  0.46056610  0.90697906  1
  S  S35  1  0.33489775  0.46370822  0.10581166  1
  S  S36  1  0.59235088  0.94686558  0.67422816  1
  S  S37  1  0.42410808  0.96695254  0.37081281  1
  S  S38  1  0.25373653  0.49321119  0.28783066  1
  S  S39  1  0.76762589  0.49751967  0.67646325  1
  S  S40  1  0.67062597  0.97543064  0.44783900  1
  S  S41  1  0.32852384  0.05566840  0.54376557  1
