# generated using pymatgen
data_Pr2Mn3(SbS3)4
_symmetry_space_group_name_H-M   'P 1'
_cell_length_a   20.02960800
_cell_length_b   3.90410600
_cell_length_c   14.95364829
_cell_angle_alpha   90.00000000
_cell_angle_beta   126.33350609
_cell_angle_gamma   90.00000000
_symmetry_Int_Tables_number   1
_chemical_formula_structural   Pr2Mn3(SbS3)4
_chemical_formula_sum   'Pr4 Mn6 Sb8 S24'
_cell_volume   942.00006694
_cell_formula_units_Z   2
loop_
 _symmetry_equiv_pos_site_id
 _symmetry_equiv_pos_as_xyz
  1  'x, y, z'
loop_
 _atom_site_type_symbol
 _atom_site_label
 _atom_site_symmetry_multiplicity
 _atom_site_fract_x
 _atom_site_fract_y
 _atom_site_fract_z
 _atom_site_occupancy
  Pr  Pr0  1  0.25930001  0.48581441  0.86443338  1
  Pr  Pr1  1  0.72568053  0.54880967  0.12940156  1
  Pr  Pr2  1  0.76362570  0.98117524  0.88013578  1
  Pr  Pr3  1  0.24786490  0.00205855  0.14776009  1
  Mn  Mn4  1  0.28314617  0.55783280  0.58764746  1
  Mn  Mn5  1  0.70345396  0.47232695  0.38789176  1
  Mn  Mn6  1  0.99916613  0.95014993  0.99556562  1
  Mn  Mn7  1  0.79963900  0.00209968  0.59818487  1
  Mn  Mn8  1  0.20068615  0.88741214  0.41264124  1
  Mn  Mn9  1  0.50296042  0.48161554  0.00136106  1
  Sb  Sb10  1  0.89239894  0.99156718  0.44806164  1
  Sb  Sb11  1  0.11153998  0.03772211  0.56589955  1
  Sb  Sb12  1  0.02348207  0.52315043  0.80012988  1
  Sb  Sb13  1  0.97404376  0.49947697  0.18297012  1
  Sb  Sb14  1  0.40040515  0.50411538  0.46655500  1
  Sb  Sb15  1  0.60718251  0.43621327  0.56749756  1
  Sb  Sb16  1  0.53161761  0.00487441  0.81986536  1
  Sb  Sb17  1  0.46360553  0.01682047  0.17536475  1
  S  S18  1  0.92465027  0.00474042  0.76444537  1
  S  S19  1  0.05642713  0.00851972  0.18687056  1
  S  S20  1  0.42210295  0.01552238  0.98801047  1
  S  S21  1  0.58622917  0.99758924  0.02342357  1
  S  S22  1  0.17051428  0.98246039  0.89265454  1
  S  S23  1  0.83111355  0.03263580  0.10705896  1
  S  S24  1  0.09367431  0.47841200  0.65524605  1
  S  S25  1  0.89951571  0.47334546  0.34830998  1
  S  S26  1  0.74082751  0.99562522  0.30560039  1
  S  S27  1  0.26454255  0.98005386  0.69392675  1
  S  S28  1  0.16019517  0.41661802  0.43626332  1
  S  S29  1  0.83159960  0.44495598  0.53535481  1
  S  S30  1  0.43657277  0.46622910  0.81939209  1
  S  S31  1  0.56891984  0.47564985  0.20913316  1
  S  S32  1  0.91606669  0.51613966  0.98312638  1
  S  S33  1  0.08088355  0.51987255  0.00523357  1
  S  S34  1  0.66849284  0.46116698  0.90623654  1
  S  S35  1  0.33500577  0.46375978  0.10571801  1
  S  S36  1  0.59213472  0.94676396  0.67430904  1
  S  S37  1  0.42393373  0.96517411  0.37087029  1
  S  S38  1  0.25384355  0.49333507  0.28783780  1
  S  S39  1  0.76725913  0.49740502  0.67595406  1
  S  S40  1  0.67056318  0.97744445  0.44736023  1
  S  S41  1  0.32849487  0.05601150  0.54325958  1
