# generated using pymatgen
data_Pr2Mn3(SbS3)4
_symmetry_space_group_name_H-M   'P 1'
_cell_length_a   20.02960800
_cell_length_b   3.90410600
_cell_length_c   14.95364829
_cell_angle_alpha   90.00000000
_cell_angle_beta   126.33350609
_cell_angle_gamma   90.00000000
_symmetry_Int_Tables_number   1
_chemical_formula_structural   Pr2Mn3(SbS3)4
_chemical_formula_sum   'Pr4 Mn6 Sb8 S24'
_cell_volume   942.00006694
_cell_formula_units_Z   2
loop_
 _symmetry_equiv_pos_site_id
 _symmetry_equiv_pos_as_xyz
  1  'x, y, z'
loop_
 _atom_site_type_symbol
 _atom_site_label
 _atom_site_symmetry_multiplicity
 _atom_site_fract_x
 _atom_site_fract_y
 _atom_site_fract_z
 _atom_site_occupancy
  Pr  Pr0  1  0.25927428  0.48578545  0.86433512  1
  Pr  Pr1  1  0.72567498  0.54882864  0.12950481  1
  Pr  Pr2  1  0.76373252  0.98140714  0.88023534  1
  Pr  Pr3  1  0.24779969  0.00196601  0.14773814  1
  Mn  Mn4  1  0.28328581  0.55648841  0.58748826  1
  Mn  Mn5  1  0.70307385  0.47360759  0.38781439  1
  Mn  Mn6  1  0.99903669  0.95118169  0.99546323  1
  Mn  Mn7  1  0.79983612  0.00228205  0.59834174  1
  Mn  Mn8  1  0.20048866  0.88698576  0.41277941  1
  Mn  Mn9  1  0.50286160  0.48234920  0.00131188  1
  Sb  Sb10  1  0.89250362  0.99074965  0.44798903  1
  Sb  Sb11  1  0.11146887  0.03747900  0.56566434  1
  Sb  Sb12  1  0.02326355  0.52407546  0.80007003  1
  Sb  Sb13  1  0.97407776  0.49931066  0.18305439  1
  Sb  Sb14  1  0.40034584  0.50375382  0.46653272  1
  Sb  Sb15  1  0.60723528  0.43635352  0.56749922  1
  Sb  Sb16  1  0.53161561  0.00477959  0.82010009  1
  Sb  Sb17  1  0.46363619  0.01732381  0.17523925  1
  S  S18  1  0.92503133  0.00495708  0.76477119  1
  S  S19  1  0.05662409  0.00849578  0.18721122  1
  S  S20  1  0.42222710  0.01466097  0.98800075  1
  S  S21  1  0.58633431  0.99815706  0.02354352  1
  S  S22  1  0.17071131  0.98205812  0.89357696  1
  S  S23  1  0.83121002  0.03271140  0.10690772  1
  S  S24  1  0.09409423  0.47840680  0.65587165  1
  S  S25  1  0.89967537  0.47382494  0.34878290  1
  S  S26  1  0.74051579  0.99540472  0.30547926  1
  S  S27  1  0.26454094  0.98017888  0.69374391  1
  S  S28  1  0.15991079  0.41633819  0.43620810  1
  S  S29  1  0.83195821  0.44509935  0.53557901  1
  S  S30  1  0.43622043  0.46656097  0.81933445  1
  S  S31  1  0.56890179  0.47614284  0.20922327  1
  S  S32  1  0.91604415  0.51746487  0.98308167  1
  S  S33  1  0.08082869  0.52036823  0.00482069  1
  S  S34  1  0.66777960  0.46152717  0.90571296  1
  S  S35  1  0.33511339  0.46330035  0.10578819  1
  S  S36  1  0.59198846  0.94636993  0.67438609  1
  S  S37  1  0.42368365  0.96354490  0.37082285  1
  S  S38  1  0.25376371  0.49362563  0.28771721  1
  S  S39  1  0.76691815  0.49741753  0.67528751  1
  S  S40  1  0.67048180  0.97875324  0.44693530  1
  S  S41  1  0.32830577  0.05628750  0.54273982  1
