# generated using pymatgen
data_Pr2Mn3(SbS3)4
_symmetry_space_group_name_H-M   'P 1'
_cell_length_a   20.02960800
_cell_length_b   3.90410600
_cell_length_c   14.95364829
_cell_angle_alpha   90.00000000
_cell_angle_beta   126.33350609
_cell_angle_gamma   90.00000000
_symmetry_Int_Tables_number   1
_chemical_formula_structural   Pr2Mn3(SbS3)4
_chemical_formula_sum   'Pr4 Mn6 Sb8 S24'
_cell_volume   942.00006694
_cell_formula_units_Z   2
loop_
 _symmetry_equiv_pos_site_id
 _symmetry_equiv_pos_as_xyz
  1  'x, y, z'
loop_
 _atom_site_type_symbol
 _atom_site_label
 _atom_site_symmetry_multiplicity
 _atom_site_fract_x
 _atom_site_fract_y
 _atom_site_fract_z
 _atom_site_occupancy
  Pr  Pr0  1  0.26962156  0.49522300  0.86711600  1
  Pr  Pr1  1  0.73394514  0.51466432  0.13274172  1
  Pr  Pr2  1  0.76443717  0.02345923  0.86355861  1
  Pr  Pr3  1  0.23343202  0.99580335  0.13158388  1
  Mn  Mn4  1  0.29675562  0.47456609  0.59974634  1
  Mn  Mn5  1  0.68572504  0.46203473  0.36251276  1
  Mn  Mn6  1  0.00473660  0.98891911  0.01012027  1
  Mn  Mn7  1  0.79710522  0.00648318  0.61776297  1
  Mn  Mn8  1  0.19649473  0.97847939  0.36819704  1
  Mn  Mn9  1  0.48676347  0.46725375  0.98503508  1
  Sb  Sb10  1  0.88855819  0.98805871  0.45129733  1
  Sb  Sb11  1  0.10944110  0.98006353  0.54495433  1
  Sb  Sb12  1  0.03603631  0.52603110  0.82081886  1
  Sb  Sb13  1  0.96730373  0.49812060  0.19032085  1
  Sb  Sb14  1  0.39223246  0.50048025  0.44767844  1
  Sb  Sb15  1  0.60576582  0.47508664  0.54678168  1
  Sb  Sb16  1  0.53408882  0.98211340  0.80838088  1
  Sb  Sb17  1  0.46581942  0.01523505  0.19044671  1
  S  S18  1  0.93527329  0.02008016  0.80702397  1
  S  S19  1  0.06486162  0.99682158  0.19867742  1
  S  S20  1  0.41931138  0.95412875  0.99025579  1
  S  S21  1  0.58428899  0.02657220  0.01551905  1
  S  S22  1  0.16990389  0.05470118  0.90066776  1
  S  S23  1  0.82666768  0.03966668  0.10158503  1
  S  S24  1  0.09015425  0.50098478  0.64561787  1
  S  S25  1  0.91602524  0.48140884  0.35788688  1
  S  S26  1  0.73962840  0.98933933  0.30415784  1
  S  S27  1  0.26043059  0.00813794  0.71183251  1
  S  S28  1  0.16515921  0.51951029  0.43258392  1
  S  S29  1  0.81572970  0.49097810  0.54603954  1
  S  S30  1  0.43138341  0.47206636  0.79566131  1
  S  S31  1  0.55466334  0.52257920  0.18146811  1
  S  S32  1  0.91918153  0.50305072  0.98947149  1
  S  S33  1  0.09270967  0.48973914  0.03125303  1
  S  S34  1  0.66299700  0.55364463  0.89374582  1
  S  S35  1  0.32597066  0.48516789  0.09159376  1
  S  S36  1  0.59235282  0.99548646  0.65095281  1
  S  S37  1  0.39977148  0.98933709  0.34340436  1
  S  S38  1  0.24289968  0.46363624  0.31568448  1
  S  S39  1  0.75925182  0.52277067  0.68728168  1
  S  S40  1  0.66388715  0.99979226  0.44793445  1
  S  S41  1  0.33190927  0.97828762  0.55582460  1
