# generated using pymatgen
data_Pr2Mn3(SbS3)4
_symmetry_space_group_name_H-M   'P 1'
_cell_length_a   20.02960800
_cell_length_b   3.90410600
_cell_length_c   14.95364829
_cell_angle_alpha   90.00000000
_cell_angle_beta   126.33350609
_cell_angle_gamma   90.00000000
_symmetry_Int_Tables_number   1
_chemical_formula_structural   Pr2Mn3(SbS3)4
_chemical_formula_sum   'Pr4 Mn6 Sb8 S24'
_cell_volume   942.00006694
_cell_formula_units_Z   2
loop_
 _symmetry_equiv_pos_site_id
 _symmetry_equiv_pos_as_xyz
  1  'x, y, z'
loop_
 _atom_site_type_symbol
 _atom_site_label
 _atom_site_symmetry_multiplicity
 _atom_site_fract_x
 _atom_site_fract_y
 _atom_site_fract_z
 _atom_site_occupancy
  Pr  Pr0  1  0.25924583  0.48549399  0.86427253  1
  Pr  Pr1  1  0.72566258  0.54867174  0.12951661  1
  Pr  Pr2  1  0.76379352  0.98142906  0.88017620  1
  Pr  Pr3  1  0.24772411  0.00182429  0.14776696  1
  Mn  Mn4  1  0.28345201  0.55499398  0.58718624  1
  Mn  Mn5  1  0.70269195  0.47471622  0.38764943  1
  Mn  Mn6  1  0.99901171  0.95251441  0.99553271  1
  Mn  Mn7  1  0.79995946  0.00286535  0.59842312  1
  Mn  Mn8  1  0.20032677  0.88686543  0.41291113  1
  Mn  Mn9  1  0.50277900  0.48284879  0.00125652  1
  Sb  Sb10  1  0.89259616  0.99000169  0.44797373  1
  Sb  Sb11  1  0.11134260  0.03716210  0.56537598  1
  Sb  Sb12  1  0.02311079  0.52472395  0.79995915  1
  Sb  Sb13  1  0.97414474  0.49913833  0.18313402  1
  Sb  Sb14  1  0.40033111  0.50360280  0.46647829  1
  Sb  Sb15  1  0.60723732  0.43621557  0.56750678  1
  Sb  Sb16  1  0.53158926  0.00458628  0.82022038  1
  Sb  Sb17  1  0.46356671  0.01770844  0.17505836  1
  S  S18  1  0.92527309  0.00559468  0.76508072  1
  S  S19  1  0.05670045  0.00878736  0.18746536  1
  S  S20  1  0.42228893  0.01369674  0.98771642  1
  S  S21  1  0.58636299  0.99901181  0.02361733  1
  S  S22  1  0.17083037  0.98121543  0.89420525  1
  S  S23  1  0.83123523  0.03268356  0.10679591  1
  S  S24  1  0.09456718  0.47821585  0.65643467  1
  S  S25  1  0.89969512  0.47410212  0.34894590  1
  S  S26  1  0.74009100  0.99479429  0.30518371  1
  S  S27  1  0.26459477  0.98000521  0.69364342  1
  S  S28  1  0.15953218  0.41599080  0.43624647  1
  S  S29  1  0.83231853  0.44570987  0.53594706  1
  S  S30  1  0.43575815  0.46754690  0.81913610  1
  S  S31  1  0.56879239  0.47624536  0.20912041  1
  S  S32  1  0.91598855  0.51928356  0.98292194  1
  S  S33  1  0.08063634  0.51992560  0.00432213  1
  S  S34  1  0.66724141  0.46204003  0.90538811  1
  S  S35  1  0.33536175  0.46238861  0.10599975  1
  S  S36  1  0.59203694  0.94649577  0.67438328  1
  S  S37  1  0.42352205  0.96300871  0.37089862  1
  S  S38  1  0.25369561  0.49427446  0.28754382  1
  S  S39  1  0.76660781  0.49747294  0.67473892  1
  S  S40  1  0.67031938  0.98023928  0.44633879  1
  S  S41  1  0.32806775  0.05700152  0.54206728  1
