# generated using pymatgen
data_Pr2Mn3(SbS3)4
_symmetry_space_group_name_H-M   'P 1'
_cell_length_a   20.02960800
_cell_length_b   3.90410600
_cell_length_c   14.95364829
_cell_angle_alpha   90.00000000
_cell_angle_beta   126.33350609
_cell_angle_gamma   90.00000000
_symmetry_Int_Tables_number   1
_chemical_formula_structural   Pr2Mn3(SbS3)4
_chemical_formula_sum   'Pr4 Mn6 Sb8 S24'
_cell_volume   942.00006694
_cell_formula_units_Z   2
loop_
 _symmetry_equiv_pos_site_id
 _symmetry_equiv_pos_as_xyz
  1  'x, y, z'
loop_
 _atom_site_type_symbol
 _atom_site_label
 _atom_site_symmetry_multiplicity
 _atom_site_fract_x
 _atom_site_fract_y
 _atom_site_fract_z
 _atom_site_occupancy
  Pr  Pr0  1  0.25921858  0.48515066  0.86415049  1
  Pr  Pr1  1  0.72573600  0.54850854  0.12968443  1
  Pr  Pr2  1  0.76393582  0.98100555  0.88031195  1
  Pr  Pr3  1  0.24763520  0.00180238  0.14779461  1
  Mn  Mn4  1  0.28356849  0.55365163  0.58699322  1
  Mn  Mn5  1  0.70232575  0.47537637  0.38760903  1
  Mn  Mn6  1  0.99886939  0.95382589  0.99549855  1
  Mn  Mn7  1  0.80000445  0.00366107  0.59851795  1
  Mn  Mn8  1  0.20017431  0.88677363  0.41294368  1
  Mn  Mn9  1  0.50277831  0.48348425  0.00129245  1
  Sb  Sb10  1  0.89267608  0.98973790  0.44798874  1
  Sb  Sb11  1  0.11123628  0.03703239  0.56506258  1
  Sb  Sb12  1  0.02298340  0.52531494  0.79997891  1
  Sb  Sb13  1  0.97419676  0.49916666  0.18322100  1
  Sb  Sb14  1  0.40027522  0.50377981  0.46632157  1
  Sb  Sb15  1  0.60718634  0.43611628  0.56754501  1
  Sb  Sb16  1  0.53155422  0.00404614  0.82029994  1
  Sb  Sb17  1  0.46359518  0.01824016  0.17497864  1
  S  S18  1  0.92546149  0.00605527  0.76540825  1
  S  S19  1  0.05677915  0.00894300  0.18761058  1
  S  S20  1  0.42236990  0.01302734  0.98743821  1
  S  S21  1  0.58637725  0.99915751  0.02363829  1
  S  S22  1  0.17088114  0.97999750  0.89482231  1
  S  S23  1  0.83124292  0.03316627  0.10662974  1
  S  S24  1  0.09504019  0.47778508  0.65694305  1
  S  S25  1  0.89953994  0.47476004  0.34897273  1
  S  S26  1  0.73970579  0.99386380  0.30488451  1
  S  S27  1  0.26466418  0.97964517  0.69376155  1
  S  S28  1  0.15918087  0.41516784  0.43626895  1
  S  S29  1  0.83265007  0.44639923  0.53619573  1
  S  S30  1  0.43523122  0.46787019  0.81880092  1
  S  S31  1  0.56856573  0.47574228  0.20878566  1
  S  S32  1  0.91600585  0.52097839  0.98274789  1
  S  S33  1  0.08072440  0.51954763  0.00404474  1
  S  S34  1  0.66672127  0.46285813  0.90485057  1
  S  S35  1  0.33560914  0.46164631  0.10637908  1
  S  S36  1  0.59213326  0.94660645  0.67440271  1
  S  S37  1  0.42342031  0.96232301  0.37093851  1
  S  S38  1  0.25362494  0.49541763  0.28726426  1
  S  S39  1  0.76626123  0.49784583  0.67410858  1
  S  S40  1  0.67011825  0.98061043  0.44588690  1
  S  S41  1  0.32779554  0.05762189  0.54142848  1
