# generated using pymatgen
data_Pr2Mn3(SbS3)4
_symmetry_space_group_name_H-M   'P 1'
_cell_length_a   20.02960800
_cell_length_b   3.90410600
_cell_length_c   14.95364829
_cell_angle_alpha   90.00000000
_cell_angle_beta   126.33350609
_cell_angle_gamma   90.00000000
_symmetry_Int_Tables_number   1
_chemical_formula_structural   Pr2Mn3(SbS3)4
_chemical_formula_sum   'Pr4 Mn6 Sb8 S24'
_cell_volume   942.00006694
_cell_formula_units_Z   2
loop_
 _symmetry_equiv_pos_site_id
 _symmetry_equiv_pos_as_xyz
  1  'x, y, z'
loop_
 _atom_site_type_symbol
 _atom_site_label
 _atom_site_symmetry_multiplicity
 _atom_site_fract_x
 _atom_site_fract_y
 _atom_site_fract_z
 _atom_site_occupancy
  Pr  Pr0  1  0.25921762  0.48467800  0.86402896  1
  Pr  Pr1  1  0.72584760  0.54863092  0.12993691  1
  Pr  Pr2  1  0.76407284  0.98048451  0.88047072  1
  Pr  Pr3  1  0.24752048  0.00186651  0.14775338  1
  Mn  Mn4  1  0.28373890  0.55245573  0.58680942  1
  Mn  Mn5  1  0.70194546  0.47631250  0.38753742  1
  Mn  Mn6  1  0.99866474  0.95487954  0.99547532  1
  Mn  Mn7  1  0.80001974  0.00398925  0.59857626  1
  Mn  Mn8  1  0.19991240  0.88658142  0.41295555  1
  Mn  Mn9  1  0.50288601  0.48363375  0.00136720  1
  Sb  Sb10  1  0.89269547  0.98947617  0.44795426  1
  Sb  Sb11  1  0.11117793  0.03715566  0.56471599  1
  Sb  Sb12  1  0.02290607  0.52603271  0.80007680  1
  Sb  Sb13  1  0.97417098  0.49926839  0.18326664  1
  Sb  Sb14  1  0.40014623  0.50385441  0.46613548  1
  Sb  Sb15  1  0.60716066  0.43605940  0.56765989  1
  Sb  Sb16  1  0.53151978  0.00387839  0.82040601  1
  Sb  Sb17  1  0.46353949  0.01887782  0.17499152  1
  S  S18  1  0.92559903  0.00707366  0.76558628  1
  S  S19  1  0.05695416  0.00929003  0.18785687  1
  S  S20  1  0.42232074  0.01205577  0.98703621  1
  S  S21  1  0.58631581  0.99986049  0.02347858  1
  S  S22  1  0.17098834  0.97877185  0.89538937  1
  S  S23  1  0.83121222  0.03361749  0.10654203  1
  S  S24  1  0.09549080  0.47764445  0.65748029  1
  S  S25  1  0.89938922  0.47481568  0.34894656  1
  S  S26  1  0.73942033  0.99293507  0.30464756  1
  S  S27  1  0.26461802  0.97936976  0.69374765  1
  S  S28  1  0.15904142  0.41457342  0.43633174  1
  S  S29  1  0.83300518  0.44713428  0.53647379  1
  S  S30  1  0.43478022  0.46765199  0.81886530  1
  S  S31  1  0.56837436  0.47551855  0.20851610  1
  S  S32  1  0.91585760  0.52229284  0.98229573  1
  S  S33  1  0.08085885  0.51914531  0.00374507  1
  S  S34  1  0.66619578  0.46349314  0.90437176  1
  S  S35  1  0.33573485  0.46081939  0.10663781  1
  S  S36  1  0.59219353  0.94628051  0.67448031  1
  S  S37  1  0.42339907  0.96185945  0.37101636  1
  S  S38  1  0.25361550  0.49705679  0.28699461  1
  S  S39  1  0.76595945  0.49840916  0.67363481  1
  S  S40  1  0.67016587  0.98108224  0.44582432  1
  S  S41  1  0.32756242  0.05844633  0.54076051  1
