# generated using pymatgen
data_Pr2Mn3(SbS3)4
_symmetry_space_group_name_H-M   'P 1'
_cell_length_a   20.02960800
_cell_length_b   3.90410600
_cell_length_c   14.95364829
_cell_angle_alpha   90.00000000
_cell_angle_beta   126.33350609
_cell_angle_gamma   90.00000000
_symmetry_Int_Tables_number   1
_chemical_formula_structural   Pr2Mn3(SbS3)4
_chemical_formula_sum   'Pr4 Mn6 Sb8 S24'
_cell_volume   942.00006694
_cell_formula_units_Z   2
loop_
 _symmetry_equiv_pos_site_id
 _symmetry_equiv_pos_as_xyz
  1  'x, y, z'
loop_
 _atom_site_type_symbol
 _atom_site_label
 _atom_site_symmetry_multiplicity
 _atom_site_fract_x
 _atom_site_fract_y
 _atom_site_fract_z
 _atom_site_occupancy
  Pr  Pr0  1  0.25915619  0.48418055  0.86384248  1
  Pr  Pr1  1  0.72602176  0.54859256  0.13018371  1
  Pr  Pr2  1  0.76413803  0.98002774  0.88052174  1
  Pr  Pr3  1  0.24739352  0.00186512  0.14776672  1
  Mn  Mn4  1  0.28382255  0.55116564  0.58670606  1
  Mn  Mn5  1  0.70156627  0.47711288  0.38742775  1
  Mn  Mn6  1  0.99841599  0.95588636  0.99532319  1
  Mn  Mn7  1  0.80005632  0.00396815  0.59860930  1
  Mn  Mn8  1  0.19966650  0.88645918  0.41292243  1
  Mn  Mn9  1  0.50301992  0.48371385  0.00146407  1
  Sb  Sb10  1  0.89280089  0.98878002  0.44801961  1
  Sb  Sb11  1  0.11118434  0.03713853  0.56440056  1
  Sb  Sb12  1  0.02274581  0.52682505  0.80008439  1
  Sb  Sb13  1  0.97420788  0.49908125  0.18320731  1
  Sb  Sb14  1  0.40003148  0.50340235  0.46593886  1
  Sb  Sb15  1  0.60715197  0.43618348  0.56775092  1
  Sb  Sb16  1  0.53151047  0.00370559  0.82053233  1
  Sb  Sb17  1  0.46356166  0.01945483  0.17506297  1
  S  S18  1  0.92583873  0.00757049  0.76589609  1
  S  S19  1  0.05716580  0.00948367  0.18810554  1
  S  S20  1  0.42209147  0.01118869  0.98653143  1
  S  S21  1  0.58618629  0.00001585  0.02321451  1
  S  S22  1  0.17126441  0.97798096  0.89596960  1
  S  S23  1  0.83116495  0.03427360  0.10656055  1
  S  S24  1  0.09580328  0.47789036  0.65792672  1
  S  S25  1  0.89921843  0.47536994  0.34905847  1
  S  S26  1  0.73911228  0.99186244  0.30446848  1
  S  S27  1  0.26444794  0.97897591  0.69357328  1
  S  S28  1  0.15886159  0.41381640  0.43632171  1
  S  S29  1  0.83320123  0.44818464  0.53664934  1
  S  S30  1  0.43446121  0.46767881  0.81901145  1
  S  S31  1  0.56815558  0.47470296  0.20819673  1
  S  S32  1  0.91570792  0.52341663  0.98168742  1
  S  S33  1  0.08093692  0.51876267  0.00340877  1
  S  S34  1  0.66558220  0.46421329  0.90377627  1
  S  S35  1  0.33575157  0.46038795  0.10673978  1
  S  S36  1  0.59225839  0.94522606  0.67448851  1
  S  S37  1  0.42346219  0.96135063  0.37126674  1
  S  S38  1  0.25369568  0.49850775  0.28676504  1
  S  S39  1  0.76550907  0.49793249  0.67317134  1
  S  S40  1  0.67007309  0.98094109  0.44560964  1
  S  S41  1  0.32736902  0.05902135  0.54021641  1
