# generated using pymatgen
data_Pr2Mn3(SbS3)4
_symmetry_space_group_name_H-M   'P 1'
_cell_length_a   20.02960800
_cell_length_b   3.90410600
_cell_length_c   14.95364829
_cell_angle_alpha   90.00000000
_cell_angle_beta   126.33350609
_cell_angle_gamma   90.00000000
_symmetry_Int_Tables_number   1
_chemical_formula_structural   Pr2Mn3(SbS3)4
_chemical_formula_sum   'Pr4 Mn6 Sb8 S24'
_cell_volume   942.00006694
_cell_formula_units_Z   2
loop_
 _symmetry_equiv_pos_site_id
 _symmetry_equiv_pos_as_xyz
  1  'x, y, z'
loop_
 _atom_site_type_symbol
 _atom_site_label
 _atom_site_symmetry_multiplicity
 _atom_site_fract_x
 _atom_site_fract_y
 _atom_site_fract_z
 _atom_site_occupancy
  Pr  Pr0  1  0.25903050  0.48363598  0.86363924  1
  Pr  Pr1  1  0.72613198  0.54843587  0.13036833  1
  Pr  Pr2  1  0.76420045  0.97965737  0.88062427  1
  Pr  Pr3  1  0.24737232  0.00175603  0.14785111  1
  Mn  Mn4  1  0.28386528  0.54992011  0.58657375  1
  Mn  Mn5  1  0.70119173  0.47808549  0.38704404  1
  Mn  Mn6  1  0.99828299  0.95675056  0.99526012  1
  Mn  Mn7  1  0.80015064  0.00302033  0.59874510  1
  Mn  Mn8  1  0.19943445  0.88612679  0.41293430  1
  Mn  Mn9  1  0.50319729  0.48377648  0.00156556  1
  Sb  Sb10  1  0.89292354  0.98810624  0.44819907  1
  Sb  Sb11  1  0.11114162  0.03698950  0.56408267  1
  Sb  Sb12  1  0.02250923  0.52759698  0.80008432  1
  Sb  Sb13  1  0.97420443  0.49871165  0.18318879  1
  Sb  Sb14  1  0.39988487  0.50294841  0.46575072  1
  Sb  Sb15  1  0.60714879  0.43613036  0.56787033  1
  Sb  Sb16  1  0.53150237  0.00357901  0.82072775  1
  Sb  Sb17  1  0.46360102  0.01991940  0.17515629  1
  S  S18  1  0.92626781  0.00811856  0.76625713  1
  S  S19  1  0.05739106  0.00949241  0.18826050  1
  S  S20  1  0.42191443  0.01038063  0.98606884  1
  S  S21  1  0.58605616  0.99982180  0.02285850  1
  S  S22  1  0.17157047  0.97791886  0.89649769  1
  S  S23  1  0.83103878  0.03428254  0.10646430  1
  S  S24  1  0.09613157  0.47786627  0.65833127  1
  S  S25  1  0.89914161  0.47585958  0.34911695  1
  S  S26  1  0.73897050  0.99029376  0.30453674  1
  S  S27  1  0.26440349  0.97820124  0.69350175  1
  S  S28  1  0.15865959  0.41366120  0.43628237  1
  S  S29  1  0.83343484  0.44931905  0.53692304  1
  S  S30  1  0.43429721  0.46793015  0.81910880  1
  S  S31  1  0.56791197  0.47424014  0.20767293  1
  S  S32  1  0.91561411  0.52363549  0.98116486  1
  S  S33  1  0.08102845  0.51897132  0.00308213  1
  S  S34  1  0.66511614  0.46431294  0.90346513  1
  S  S35  1  0.33574054  0.46020295  0.10694146  1
  S  S36  1  0.59238486  0.94446888  0.67451965  1
  S  S37  1  0.42363608  0.96101477  0.37166462  1
  S  S38  1  0.25375512  0.49947742  0.28636824  1
  S  S39  1  0.76503921  0.49769406  0.67276341  1
  S  S40  1  0.66990566  0.98117907  0.44538779  1
  S  S41  1  0.32699942  0.05943247  0.53945015  1
