# generated using pymatgen
data_Pr2Mn3(SbS3)4
_symmetry_space_group_name_H-M   'P 1'
_cell_length_a   20.02960800
_cell_length_b   3.90410600
_cell_length_c   14.95364829
_cell_angle_alpha   90.00000000
_cell_angle_beta   126.33350609
_cell_angle_gamma   90.00000000
_symmetry_Int_Tables_number   1
_chemical_formula_structural   Pr2Mn3(SbS3)4
_chemical_formula_sum   'Pr4 Mn6 Sb8 S24'
_cell_volume   942.00006694
_cell_formula_units_Z   2
loop_
 _symmetry_equiv_pos_site_id
 _symmetry_equiv_pos_as_xyz
  1  'x, y, z'
loop_
 _atom_site_type_symbol
 _atom_site_label
 _atom_site_symmetry_multiplicity
 _atom_site_fract_x
 _atom_site_fract_y
 _atom_site_fract_z
 _atom_site_occupancy
  Pr  Pr0  1  0.25889812  0.48322610  0.86347765  1
  Pr  Pr1  1  0.72631603  0.54802341  0.13065500  1
  Pr  Pr2  1  0.76429163  0.97913426  0.88077270  1
  Pr  Pr3  1  0.24725348  0.00173214  0.14783442  1
  Mn  Mn4  1  0.28390494  0.54897904  0.58660223  1
  Mn  Mn5  1  0.70090030  0.47871763  0.38670189  1
  Mn  Mn6  1  0.99812889  0.95734648  0.99505952  1
  Mn  Mn7  1  0.80018837  0.00223965  0.59902349  1
  Mn  Mn8  1  0.19929266  0.88599274  0.41297574  1
  Mn  Mn9  1  0.50340242  0.48422850  0.00175582  1
  Sb  Sb10  1  0.89306166  0.98762671  0.44837154  1
  Sb  Sb11  1  0.11108882  0.03701226  0.56379791  1
  Sb  Sb12  1  0.02225489  0.52853578  0.80011363  1
  Sb  Sb13  1  0.97417622  0.49886811  0.18318300  1
  Sb  Sb14  1  0.39977512  0.50174828  0.46565179  1
  Sb  Sb15  1  0.60714974  0.43599296  0.56794798  1
  Sb  Sb16  1  0.53143811  0.00322527  0.82091752  1
  Sb  Sb17  1  0.46362928  0.01998945  0.17527958  1
  S  S18  1  0.92670421  0.00783285  0.76662533  1
  S  S19  1  0.05768725  0.00913492  0.18863702  1
  S  S20  1  0.42170693  0.01025767  0.98565268  1
  S  S21  1  0.58586058  0.99968136  0.02239397  1
  S  S22  1  0.17172429  0.97739392  0.89684018  1
  S  S23  1  0.83092783  0.03473418  0.10647775  1
  S  S24  1  0.09653628  0.47725890  0.65857194  1
  S  S25  1  0.89927744  0.47617209  0.34928811  1
  S  S26  1  0.73898618  0.98838329  0.30471578  1
  S  S27  1  0.26438056  0.97776981  0.69351417  1
  S  S28  1  0.15846769  0.41332168  0.43618046  1
  S  S29  1  0.83351169  0.45090188  0.53716110  1
  S  S30  1  0.43412636  0.46807940  0.81903972  1
  S  S31  1  0.56762056  0.47347316  0.20706838  1
  S  S32  1  0.91560540  0.52357706  0.98078420  1
  S  S33  1  0.08117435  0.51835291  0.00285170  1
  S  S34  1  0.66472862  0.46439491  0.90312768  1
  S  S35  1  0.33573211  0.46031396  0.10717531  1
  S  S36  1  0.59243159  0.94427738  0.67441544  1
  S  S37  1  0.42382974  0.96090784  0.37172541  1
  S  S38  1  0.25385356  0.50043096  0.28614197  1
  S  S39  1  0.76458758  0.49828725  0.67230700  1
  S  S40  1  0.66951492  0.98110103  0.44482450  1
  S  S41  1  0.32662811  0.05978142  0.53875667  1
