# generated using pymatgen
data_Pr2Mn3(SbS3)4
_symmetry_space_group_name_H-M   'P 1'
_cell_length_a   20.02960800
_cell_length_b   3.90410600
_cell_length_c   14.95364829
_cell_angle_alpha   90.00000000
_cell_angle_beta   126.33350609
_cell_angle_gamma   90.00000000
_symmetry_Int_Tables_number   1
_chemical_formula_structural   Pr2Mn3(SbS3)4
_chemical_formula_sum   'Pr4 Mn6 Sb8 S24'
_cell_volume   942.00006694
_cell_formula_units_Z   2
loop_
 _symmetry_equiv_pos_site_id
 _symmetry_equiv_pos_as_xyz
  1  'x, y, z'
loop_
 _atom_site_type_symbol
 _atom_site_label
 _atom_site_symmetry_multiplicity
 _atom_site_fract_x
 _atom_site_fract_y
 _atom_site_fract_z
 _atom_site_occupancy
  Pr  Pr0  1  0.25884372  0.48281202  0.86342369  1
  Pr  Pr1  1  0.72649423  0.54749661  0.13092576  1
  Pr  Pr2  1  0.76447056  0.97853898  0.88100391  1
  Pr  Pr3  1  0.24717968  0.00144592  0.14777481  1
  Mn  Mn4  1  0.28393969  0.54874066  0.58667863  1
  Mn  Mn5  1  0.70066792  0.47926753  0.38654489  1
  Mn  Mn6  1  0.99799934  0.95760548  0.99482787  1
  Mn  Mn7  1  0.80021828  0.00153705  0.59921281  1
  Mn  Mn8  1  0.19915732  0.88588309  0.41303203  1
  Mn  Mn9  1  0.50369261  0.48471765  0.00206510  1
  Sb  Sb10  1  0.89314635  0.98721507  0.44849496  1
  Sb  Sb11  1  0.11105947  0.03725155  0.56347951  1
  Sb  Sb12  1  0.02196510  0.52966622  0.80007247  1
  Sb  Sb13  1  0.97412021  0.49920805  0.18322941  1
  Sb  Sb14  1  0.39962251  0.50036511  0.46551973  1
  Sb  Sb15  1  0.60720040  0.43591819  0.56807116  1
  Sb  Sb16  1  0.53141321  0.00271224  0.82116594  1
  Sb  Sb17  1  0.46373787  0.01998204  0.17546697  1
  S  S18  1  0.92701668  0.00766821  0.76695606  1
  S  S19  1  0.05806939  0.00899804  0.18892578  1
  S  S20  1  0.42157571  0.01006234  0.98530491  1
  S  S21  1  0.58577929  0.00039274  0.02206197  1
  S  S22  1  0.17188818  0.97717309  0.89708844  1
  S  S23  1  0.83072537  0.03525263  0.10631823  1
  S  S24  1  0.09693717  0.47627690  0.65840910  1
  S  S25  1  0.89935033  0.47627026  0.34929127  1
  S  S26  1  0.73883790  0.98620098  0.30474684  1
  S  S27  1  0.26434140  0.97775918  0.69348754  1
  S  S28  1  0.15838741  0.41342994  0.43602564  1
  S  S29  1  0.83353321  0.45194097  0.53724720  1
  S  S30  1  0.43393840  0.46866674  0.81893082  1
  S  S31  1  0.56750525  0.47261237  0.20661493  1
  S  S32  1  0.91570926  0.52348047  0.98049697  1
  S  S33  1  0.08138030  0.51781120  0.00282856  1
  S  S34  1  0.66431349  0.46470373  0.90275925  1
  S  S35  1  0.33560196  0.46034435  0.10716336  1
  S  S36  1  0.59239625  0.94426693  0.67443627  1
  S  S37  1  0.42397655  0.96072314  0.37165802  1
  S  S38  1  0.25378362  0.50107213  0.28575917  1
  S  S39  1  0.76407840  0.49889757  0.67188575  1
  S  S40  1  0.66914195  0.98047550  0.44418697  1
  S  S41  1  0.32625392  0.06023084  0.53798626  1
