# generated using pymatgen
data_Pr2Mn3(SbS3)4
_symmetry_space_group_name_H-M   'P 1'
_cell_length_a   20.02960800
_cell_length_b   3.90410600
_cell_length_c   14.95364829
_cell_angle_alpha   90.00000000
_cell_angle_beta   126.33350609
_cell_angle_gamma   90.00000000
_symmetry_Int_Tables_number   1
_chemical_formula_structural   Pr2Mn3(SbS3)4
_chemical_formula_sum   'Pr4 Mn6 Sb8 S24'
_cell_volume   942.00006694
_cell_formula_units_Z   2
loop_
 _symmetry_equiv_pos_site_id
 _symmetry_equiv_pos_as_xyz
  1  'x, y, z'
loop_
 _atom_site_type_symbol
 _atom_site_label
 _atom_site_symmetry_multiplicity
 _atom_site_fract_x
 _atom_site_fract_y
 _atom_site_fract_z
 _atom_site_occupancy
  Pr  Pr0  1  0.25876785  0.48244658  0.86332063  1
  Pr  Pr1  1  0.72669513  0.54700440  0.13114847  1
  Pr  Pr2  1  0.76468018  0.97816452  0.88117729  1
  Pr  Pr3  1  0.24713877  0.00137211  0.14772281  1
  Mn  Mn4  1  0.28410637  0.54945628  0.58685093  1
  Mn  Mn5  1  0.70049424  0.47984108  0.38645010  1
  Mn  Mn6  1  0.99800158  0.95759861  0.99473272  1
  Mn  Mn7  1  0.80022881  0.00098643  0.59942848  1
  Mn  Mn8  1  0.19904711  0.88564239  0.41313354  1
  Mn  Mn9  1  0.50407566  0.48533299  0.00246535  1
  Sb  Sb10  1  0.89318573  0.98689973  0.44857192  1
  Sb  Sb11  1  0.11102514  0.03748031  0.56319998  1
  Sb  Sb12  1  0.02168602  0.53072792  0.80002650  1
  Sb  Sb13  1  0.97401355  0.49942856  0.18328866  1
  Sb  Sb14  1  0.39943471  0.49913863  0.46526107  1
  Sb  Sb15  1  0.60734008  0.43595086  0.56829368  1
  Sb  Sb16  1  0.53134236  0.00235270  0.82133392  1
  Sb  Sb17  1  0.46379007  0.02022401  0.17569657  1
  S  S18  1  0.92720244  0.00746350  0.76722700  1
  S  S19  1  0.05845033  0.00887658  0.18916171  1
  S  S20  1  0.42154019  0.00998464  0.98506585  1
  S  S21  1  0.58556342  0.00094505  0.02149547  1
  S  S22  1  0.17190936  0.97697361  0.89735995  1
  S  S23  1  0.83068170  0.03566807  0.10620519  1
  S  S24  1  0.09711446  0.47561203  0.65826655  1
  S  S25  1  0.89931328  0.47602541  0.34911631  1
  S  S26  1  0.73861053  0.98455036  0.30478246  1
  S  S27  1  0.26441229  0.97777928  0.69342437  1
  S  S28  1  0.15794129  0.41363677  0.43549642  1
  S  S29  1  0.83354767  0.45256288  0.53733711  1
  S  S30  1  0.43392114  0.46909725  0.81900068  1
  S  S31  1  0.56738459  0.47143642  0.20633577  1
  S  S32  1  0.91579271  0.52350538  0.98039773  1
  S  S33  1  0.08161506  0.51728923  0.00292637  1
  S  S34  1  0.66397937  0.46420786  0.90249764  1
  S  S35  1  0.33561346  0.46033907  0.10731316  1
  S  S36  1  0.59225009  0.94422491  0.67415721  1
  S  S37  1  0.42405698  0.96068258  0.37144119  1
  S  S38  1  0.25370206  0.50207796  0.28546129  1
  S  S39  1  0.76372246  0.49950614  0.67147067  1
  S  S40  1  0.66875474  0.98007866  0.44348898  1
  S  S41  1  0.32598663  0.06124841  0.53732187  1
