# generated using pymatgen
data_Pr2Mn3(SbS3)4
_symmetry_space_group_name_H-M   'P 1'
_cell_length_a   20.02960800
_cell_length_b   3.90410600
_cell_length_c   14.95364829
_cell_angle_alpha   90.00000000
_cell_angle_beta   126.33350609
_cell_angle_gamma   90.00000000
_symmetry_Int_Tables_number   1
_chemical_formula_structural   Pr2Mn3(SbS3)4
_chemical_formula_sum   'Pr4 Mn6 Sb8 S24'
_cell_volume   942.00006694
_cell_formula_units_Z   2
loop_
 _symmetry_equiv_pos_site_id
 _symmetry_equiv_pos_as_xyz
  1  'x, y, z'
loop_
 _atom_site_type_symbol
 _atom_site_label
 _atom_site_symmetry_multiplicity
 _atom_site_fract_x
 _atom_site_fract_y
 _atom_site_fract_z
 _atom_site_occupancy
  Pr  Pr0  1  0.25871763  0.48226334  0.86324523  1
  Pr  Pr1  1  0.72685799  0.54669432  0.13137011  1
  Pr  Pr2  1  0.76487309  0.97786517  0.88133779  1
  Pr  Pr3  1  0.24713696  0.00106040  0.14771522  1
  Mn  Mn4  1  0.28436387  0.55011554  0.58714773  1
  Mn  Mn5  1  0.70038173  0.48039162  0.38645412  1
  Mn  Mn6  1  0.99809227  0.95736650  0.99485411  1
  Mn  Mn7  1  0.80016476  0.00068005  0.59966370  1
  Mn  Mn8  1  0.19902228  0.88562003  0.41335482  1
  Mn  Mn9  1  0.50439502  0.48623590  0.00276125  1
  Sb  Sb10  1  0.89318920  0.98656883  0.44866365  1
  Sb  Sb11  1  0.11097093  0.03749632  0.56290875  1
  Sb  Sb12  1  0.02133588  0.53212174  0.79994383  1
  Sb  Sb13  1  0.97400407  0.49919015  0.18344111  1
  Sb  Sb14  1  0.39930933  0.49786790  0.46498400  1
  Sb  Sb15  1  0.60750192  0.43608095  0.56855245  1
  Sb  Sb16  1  0.53127129  0.00203511  0.82153939  1
  Sb  Sb17  1  0.46382902  0.02025570  0.17592595  1
  S  S18  1  0.92737155  0.00696397  0.76739509  1
  S  S19  1  0.05882362  0.00870053  0.18943330  1
  S  S20  1  0.42167292  0.00987747  0.98514975  1
  S  S21  1  0.58541747  0.00152685  0.02101736  1
  S  S22  1  0.17196879  0.97687982  0.89780461  1
  S  S23  1  0.83063468  0.03567674  0.10605492  1
  S  S24  1  0.09716624  0.47545337  0.65799321  1
  S  S25  1  0.89940626  0.47626264  0.34894734  1
  S  S26  1  0.73843738  0.98229811  0.30490091  1
  S  S27  1  0.26454543  0.97766196  0.69368157  1
  S  S28  1  0.15768399  0.41434650  0.43509443  1
  S  S29  1  0.83356700  0.45299824  0.53749646  1
  S  S30  1  0.43386687  0.46914970  0.81898720  1
  S  S31  1  0.56727199  0.47045898  0.20598860  1
  S  S32  1  0.91589078  0.52327025  0.98017004  1
  S  S33  1  0.08179978  0.51642879  0.00295465  1
  S  S34  1  0.66356214  0.46341231  0.90217087  1
  S  S35  1  0.33564174  0.46097935  0.10748912  1
  S  S36  1  0.59216261  0.94382243  0.67393567  1
  S  S37  1  0.42422008  0.96078365  0.37113824  1
  S  S38  1  0.25367806  0.50317057  0.28527002  1
  S  S39  1  0.76341811  0.49993202  0.67117462  1
  S  S40  1  0.66846351  0.97915220  0.44292813  1
  S  S41  1  0.32573178  0.06178586  0.53666394  1
