# generated using pymatgen
data_Pr2Mn3(SbS3)4
_symmetry_space_group_name_H-M   'P 1'
_cell_length_a   20.02960800
_cell_length_b   3.90410600
_cell_length_c   14.95364829
_cell_angle_alpha   90.00000000
_cell_angle_beta   126.33350609
_cell_angle_gamma   90.00000000
_symmetry_Int_Tables_number   1
_chemical_formula_structural   Pr2Mn3(SbS3)4
_chemical_formula_sum   'Pr4 Mn6 Sb8 S24'
_cell_volume   942.00006694
_cell_formula_units_Z   2
loop_
 _symmetry_equiv_pos_site_id
 _symmetry_equiv_pos_as_xyz
  1  'x, y, z'
loop_
 _atom_site_type_symbol
 _atom_site_label
 _atom_site_symmetry_multiplicity
 _atom_site_fract_x
 _atom_site_fract_y
 _atom_site_fract_z
 _atom_site_occupancy
  Pr  Pr0  1  0.25865663  0.48231551  0.86322861  1
  Pr  Pr1  1  0.72700972  0.54633917  0.13149923  1
  Pr  Pr2  1  0.76500774  0.97770744  0.88133321  1
  Pr  Pr3  1  0.24708791  0.00076983  0.14762512  1
  Mn  Mn4  1  0.28465277  0.55094364  0.58738329  1
  Mn  Mn5  1  0.70034173  0.48052458  0.38647362  1
  Mn  Mn6  1  0.99811808  0.95750518  0.99495998  1
  Mn  Mn7  1  0.79994890  0.00025760  0.59982358  1
  Mn  Mn8  1  0.19907768  0.88621983  0.41365573  1
  Mn  Mn9  1  0.50471627  0.48737133  0.00311974  1
  Sb  Sb10  1  0.89325764  0.98653183  0.44885345  1
  Sb  Sb11  1  0.11094142  0.03744348  0.56269544  1
  Sb  Sb12  1  0.02112577  0.53324764  0.79992217  1
  Sb  Sb13  1  0.97402302  0.49891278  0.18359788  1
  Sb  Sb14  1  0.39916300  0.49668778  0.46467958  1
  Sb  Sb15  1  0.60763455  0.43615603  0.56878341  1
  Sb  Sb16  1  0.53123415  0.00164322  0.82172150  1
  Sb  Sb17  1  0.46383672  0.02021973  0.17611823  1
  S  S18  1  0.92757530  0.00617196  0.76755482  1
  S  S19  1  0.05894154  0.00800619  0.18932232  1
  S  S20  1  0.42191251  0.00940941  0.98537516  1
  S  S21  1  0.58524511  0.00197626  0.02061332  1
  S  S22  1  0.17204918  0.97665774  0.89823055  1
  S  S23  1  0.83070741  0.03512045  0.10598049  1
  S  S24  1  0.09721887  0.47465580  0.65773957  1
  S  S25  1  0.89963778  0.47585822  0.34888176  1
  S  S26  1  0.73822153  0.97990469  0.30500839  1
  S  S27  1  0.26471531  0.97756117  0.69388799  1
  S  S28  1  0.15747206  0.41505230  0.43476813  1
  S  S29  1  0.83353298  0.45329138  0.53761938  1
  S  S30  1  0.43378974  0.46953053  0.81884754  1
  S  S31  1  0.56733596  0.46946806  0.20593231  1
  S  S32  1  0.91599873  0.52284514  0.98007099  1
  S  S33  1  0.08206767  0.51576987  0.00296316  1
  S  S34  1  0.66329925  0.46292211  0.90208813  1
  S  S35  1  0.33560596  0.46147080  0.10751957  1
  S  S36  1  0.59215118  0.94357434  0.67382701  1
  S  S37  1  0.42462027  0.96111000  0.37096333  1
  S  S38  1  0.25377616  0.50502919  0.28518248  1
  S  S39  1  0.76322656  0.49945657  0.67116264  1
  S  S40  1  0.66819831  0.97820925  0.44249023  1
  S  S41  1  0.32561163  0.06194360  0.53609010  1
