# generated using pymatgen
data_Pr2Mn3(SbS3)4
_symmetry_space_group_name_H-M   'P 1'
_cell_length_a   20.02960800
_cell_length_b   3.90410600
_cell_length_c   14.95364829
_cell_angle_alpha   90.00000000
_cell_angle_beta   126.33350609
_cell_angle_gamma   90.00000000
_symmetry_Int_Tables_number   1
_chemical_formula_structural   Pr2Mn3(SbS3)4
_chemical_formula_sum   'Pr4 Mn6 Sb8 S24'
_cell_volume   942.00006694
_cell_formula_units_Z   2
loop_
 _symmetry_equiv_pos_site_id
 _symmetry_equiv_pos_as_xyz
  1  'x, y, z'
loop_
 _atom_site_type_symbol
 _atom_site_label
 _atom_site_symmetry_multiplicity
 _atom_site_fract_x
 _atom_site_fract_y
 _atom_site_fract_z
 _atom_site_occupancy
  Pr  Pr0  1  0.26953131  0.49533620  0.86711117  1
  Pr  Pr1  1  0.73396765  0.51466423  0.13282410  1
  Pr  Pr2  1  0.76460717  0.02334585  0.86363071  1
  Pr  Pr3  1  0.23337610  0.99564844  0.13175817  1
  Mn  Mn4  1  0.29680982  0.47427878  0.59978678  1
  Mn  Mn5  1  0.68546642  0.46158555  0.36225304  1
  Mn  Mn6  1  0.00464590  0.98877857  0.01013461  1
  Mn  Mn7  1  0.79706216  0.00739817  0.61791516  1
  Mn  Mn8  1  0.19643483  0.97880859  0.36820130  1
  Mn  Mn9  1  0.48669362  0.46776024  0.98491620  1
  Sb  Sb10  1  0.88861554  0.98821321  0.45128328  1
  Sb  Sb11  1  0.10955348  0.98019254  0.54500672  1
  Sb  Sb12  1  0.03614684  0.52564217  0.82100323  1
  Sb  Sb13  1  0.96735383  0.49829458  0.19031853  1
  Sb  Sb14  1  0.39217824  0.50073346  0.44756235  1
  Sb  Sb15  1  0.60578694  0.47533663  0.54658316  1
  Sb  Sb16  1  0.53405594  0.98178020  0.80826021  1
  Sb  Sb17  1  0.46591066  0.01548098  0.19048553  1
  S  S18  1  0.93508714  0.01909965  0.80680574  1
  S  S19  1  0.06490066  0.99802858  0.19886571  1
  S  S20  1  0.41907721  0.95461161  0.99023362  1
  S  S21  1  0.58438212  0.02676238  0.01558000  1
  S  S22  1  0.16997445  0.05482112  0.90074399  1
  S  S23  1  0.82650859  0.03915514  0.10131339  1
  S  S24  1  0.09027125  0.50011976  0.64554457  1
  S  S25  1  0.91594128  0.48196010  0.35781615  1
  S  S26  1  0.73980472  0.98891027  0.30435271  1
  S  S27  1  0.26030559  0.00914083  0.71156925  1
  S  S28  1  0.16493265  0.51970048  0.43241056  1
  S  S29  1  0.81547096  0.49175144  0.54595391  1
  S  S30  1  0.43140861  0.47091609  0.79566361  1
  S  S31  1  0.55471698  0.52253622  0.18162841  1
  S  S32  1  0.91938643  0.50356551  0.98967153  1
  S  S33  1  0.09264467  0.49028561  0.03119948  1
  S  S34  1  0.66307426  0.55380207  0.89385298  1
  S  S35  1  0.32619729  0.48454073  0.09175672  1
  S  S36  1  0.59218190  0.99542994  0.65090478  1
  S  S37  1  0.39973146  0.98950005  0.34334905  1
  S  S38  1  0.24308240  0.46346116  0.31586235  1
  S  S39  1  0.75917282  0.52276140  0.68723700  1
  S  S40  1  0.66385326  0.99909576  0.44776456  1
  S  S41  1  0.33188312  0.97848108  0.55570913  1
