# generated using pymatgen
data_Pr2Mn3(SbS3)4
_symmetry_space_group_name_H-M   'P 1'
_cell_length_a   20.02960800
_cell_length_b   3.90410600
_cell_length_c   14.95364829
_cell_angle_alpha   90.00000000
_cell_angle_beta   126.33350609
_cell_angle_gamma   90.00000000
_symmetry_Int_Tables_number   1
_chemical_formula_structural   Pr2Mn3(SbS3)4
_chemical_formula_sum   'Pr4 Mn6 Sb8 S24'
_cell_volume   942.00006694
_cell_formula_units_Z   2
loop_
 _symmetry_equiv_pos_site_id
 _symmetry_equiv_pos_as_xyz
  1  'x, y, z'
loop_
 _atom_site_type_symbol
 _atom_site_label
 _atom_site_symmetry_multiplicity
 _atom_site_fract_x
 _atom_site_fract_y
 _atom_site_fract_z
 _atom_site_occupancy
  Pr  Pr0  1  0.25866387  0.48216442  0.86321420  1
  Pr  Pr1  1  0.72710438  0.54610011  0.13155511  1
  Pr  Pr2  1  0.76513008  0.97749394  0.88138694  1
  Pr  Pr3  1  0.24704080  0.00086289  0.14758659  1
  Mn  Mn4  1  0.28507689  0.55178409  0.58771382  1
  Mn  Mn5  1  0.70034770  0.48020283  0.38645371  1
  Mn  Mn6  1  0.99799571  0.95748861  0.99480853  1
  Mn  Mn7  1  0.79983910  0.99994027  0.60006620  1
  Mn  Mn8  1  0.19903899  0.88671866  0.41388849  1
  Mn  Mn9  1  0.50500680  0.48815876  0.00353729  1
  Sb  Sb10  1  0.89334999  0.98666498  0.44904230  1
  Sb  Sb11  1  0.11097692  0.03780632  0.56256809  1
  Sb  Sb12  1  0.02102066  0.53447080  0.79996131  1
  Sb  Sb13  1  0.97396857  0.49835168  0.18361800  1
  Sb  Sb14  1  0.39893826  0.49530824  0.46427066  1
  Sb  Sb15  1  0.60769311  0.43627895  0.56892198  1
  Sb  Sb16  1  0.53121613  0.00107976  0.82186406  1
  Sb  Sb17  1  0.46383853  0.02004770  0.17621772  1
  S  S18  1  0.92778964  0.00487196  0.76780688  1
  S  S19  1  0.05904198  0.00757333  0.18915845  1
  S  S20  1  0.42222205  0.00920214  0.98552324  1
  S  S21  1  0.58512475  0.00222768  0.02031899  1
  S  S22  1  0.17214976  0.97686041  0.89867226  1
  S  S23  1  0.83099439  0.03453323  0.10587996  1
  S  S24  1  0.09707907  0.47368845  0.65760019  1
  S  S25  1  0.90001699  0.47523175  0.34898415  1
  S  S26  1  0.73797380  0.97753285  0.30513659  1
  S  S27  1  0.26484175  0.97697382  0.69413823  1
  S  S28  1  0.15718890  0.41554292  0.43439807  1
  S  S29  1  0.83355973  0.45381977  0.53768327  1
  S  S30  1  0.43362755  0.46962311  0.81859603  1
  S  S31  1  0.56731308  0.46864377  0.20583555  1
  S  S32  1  0.91602623  0.52105469  0.97992232  1
  S  S33  1  0.08217978  0.51517348  0.00284313  1
  S  S34  1  0.66325229  0.46285330  0.90212690  1
  S  S35  1  0.33547028  0.46169807  0.10746689  1
  S  S36  1  0.59224118  0.94391072  0.67377104  1
  S  S37  1  0.42488950  0.96108510  0.37086252  1
  S  S38  1  0.25396704  0.50666720  0.28495571  1
  S  S39  1  0.76305099  0.49882299  0.67121040  1
  S  S40  1  0.66792746  0.97624956  0.44188589  1
  S  S41  1  0.32557960  0.06199742  0.53573935  1
