# generated using pymatgen
data_Pr2Mn3(SbS3)4
_symmetry_space_group_name_H-M   'P 1'
_cell_length_a   20.02960800
_cell_length_b   3.90410600
_cell_length_c   14.95364829
_cell_angle_alpha   90.00000000
_cell_angle_beta   126.33350609
_cell_angle_gamma   90.00000000
_symmetry_Int_Tables_number   1
_chemical_formula_structural   Pr2Mn3(SbS3)4
_chemical_formula_sum   'Pr4 Mn6 Sb8 S24'
_cell_volume   942.00006694
_cell_formula_units_Z   2
loop_
 _symmetry_equiv_pos_site_id
 _symmetry_equiv_pos_as_xyz
  1  'x, y, z'
loop_
 _atom_site_type_symbol
 _atom_site_label
 _atom_site_symmetry_multiplicity
 _atom_site_fract_x
 _atom_site_fract_y
 _atom_site_fract_z
 _atom_site_occupancy
  Pr  Pr0  1  0.25863507  0.48221897  0.86316757  1
  Pr  Pr1  1  0.72717334  0.54576714  0.13163078  1
  Pr  Pr2  1  0.76525007  0.97715788  0.88145739  1
  Pr  Pr3  1  0.24697203  0.00056520  0.14758042  1
  Mn  Mn4  1  0.28549919  0.55226958  0.58816104  1
  Mn  Mn5  1  0.70034143  0.47986045  0.38645306  1
  Mn  Mn6  1  0.99798428  0.95778731  0.99473541  1
  Mn  Mn7  1  0.79968559  0.99963760  0.60020476  1
  Mn  Mn8  1  0.19898545  0.88777882  0.41402457  1
  Mn  Mn9  1  0.50530956  0.48924741  0.00400695  1
  Sb  Sb10  1  0.89342933  0.98663487  0.44931932  1
  Sb  Sb11  1  0.11100388  0.03817861  0.56233535  1
  Sb  Sb12  1  0.02086269  0.53569843  0.79990653  1
  Sb  Sb13  1  0.97383381  0.49784211  0.18343805  1
  Sb  Sb14  1  0.39877844  0.49416624  0.46397877  1
  Sb  Sb15  1  0.60783766  0.43627149  0.56912344  1
  Sb  Sb16  1  0.53116491  0.00032796  0.82200232  1
  Sb  Sb17  1  0.46380935  0.01975522  0.17622507  1
  S  S18  1  0.92800079  0.00354684  0.76806637  1
  S  S19  1  0.05912391  0.00740960  0.18896957  1
  S  S20  1  0.42254801  0.00959466  0.98564412  1
  S  S21  1  0.58508807  0.00256414  0.02006130  1
  S  S22  1  0.17216907  0.97677332  0.89903027  1
  S  S23  1  0.83136209  0.03439432  0.10593068  1
  S  S24  1  0.09714553  0.47249503  0.65775781  1
  S  S25  1  0.90038658  0.47434726  0.34917307  1
  S  S26  1  0.73771351  0.97488183  0.30502643  1
  S  S27  1  0.26474144  0.97662330  0.69428464  1
  S  S28  1  0.15693697  0.41606890  0.43401888  1
  S  S29  1  0.83350099  0.45427633  0.53773882  1
  S  S30  1  0.43358552  0.47013773  0.81857580  1
  S  S31  1  0.56746420  0.46733135  0.20567273  1
  S  S32  1  0.91608597  0.51928546  0.97984256  1
  S  S33  1  0.08217508  0.51493367  0.00273949  1
  S  S34  1  0.66325121  0.46254457  0.90206044  1
  S  S35  1  0.33526436  0.46114128  0.10733603  1
  S  S36  1  0.59229402  0.94396326  0.67352538  1
  S  S37  1  0.42520281  0.96093129  0.37057171  1
  S  S38  1  0.25412965  0.50782844  0.28471703  1
  S  S39  1  0.76288563  0.49841629  0.67129359  1
  S  S40  1  0.66757051  0.97444242  0.44120307  1
  S  S41  1  0.32545339  0.06246143  0.53529420  1
