# generated using pymatgen
data_Pr2Mn3(SbS3)4
_symmetry_space_group_name_H-M   'P 1'
_cell_length_a   20.02960800
_cell_length_b   3.90410600
_cell_length_c   14.95364829
_cell_angle_alpha   90.00000000
_cell_angle_beta   126.33350609
_cell_angle_gamma   90.00000000
_symmetry_Int_Tables_number   1
_chemical_formula_structural   Pr2Mn3(SbS3)4
_chemical_formula_sum   'Pr4 Mn6 Sb8 S24'
_cell_volume   942.00006694
_cell_formula_units_Z   2
loop_
 _symmetry_equiv_pos_site_id
 _symmetry_equiv_pos_as_xyz
  1  'x, y, z'
loop_
 _atom_site_type_symbol
 _atom_site_label
 _atom_site_symmetry_multiplicity
 _atom_site_fract_x
 _atom_site_fract_y
 _atom_site_fract_z
 _atom_site_occupancy
  Pr  Pr0  1  0.25863017  0.48265426  0.86307635  1
  Pr  Pr1  1  0.72723566  0.54575044  0.13168181  1
  Pr  Pr2  1  0.76541773  0.97728285  0.88155713  1
  Pr  Pr3  1  0.24685117  0.00013080  0.14751441  1
  Mn  Mn4  1  0.28586766  0.55269195  0.58871123  1
  Mn  Mn5  1  0.70032370  0.47971195  0.38652962  1
  Mn  Mn6  1  0.99798229  0.95807572  0.99467505  1
  Mn  Mn7  1  0.79969707  0.99932540  0.60046360  1
  Mn  Mn8  1  0.19882562  0.88909680  0.41388478  1
  Mn  Mn9  1  0.50554499  0.49003244  0.00451349  1
  Sb  Sb10  1  0.89352905  0.98654562  0.44964894  1
  Sb  Sb11  1  0.11107316  0.03842037  0.56212908  1
  Sb  Sb12  1  0.02071485  0.53666867  0.79987692  1
  Sb  Sb13  1  0.97368874  0.49717071  0.18320863  1
  Sb  Sb14  1  0.39869044  0.49316654  0.46381545  1
  Sb  Sb15  1  0.60798689  0.43663138  0.56928835  1
  Sb  Sb16  1  0.53117900  0.99943945  0.82223152  1
  Sb  Sb17  1  0.46380530  0.01948860  0.17623381  1
  S  S18  1  0.92815364  0.00300601  0.76819698  1
  S  S19  1  0.05915317  0.00729062  0.18863741  1
  S  S20  1  0.42278419  0.00962262  0.98571919  1
  S  S21  1  0.58513356  0.00283231  0.01980288  1
  S  S22  1  0.17208732  0.97665311  0.89909772  1
  S  S23  1  0.83173500  0.03432251  0.10590955  1
  S  S24  1  0.09718865  0.47124516  0.65780189  1
  S  S25  1  0.90074304  0.47356042  0.34932745  1
  S  S26  1  0.73749952  0.97231121  0.30489238  1
  S  S27  1  0.26454478  0.97578592  0.69430722  1
  S  S28  1  0.15667580  0.41678696  0.43371135  1
  S  S29  1  0.83342943  0.45434810  0.53777254  1
  S  S30  1  0.43369109  0.47108140  0.81852356  1
  S  S31  1  0.56763465  0.46608104  0.20536350  1
  S  S32  1  0.91611723  0.51744540  0.97958381  1
  S  S33  1  0.08225130  0.51459429  0.00279623  1
  S  S34  1  0.66308423  0.46185337  0.90183903  1
  S  S35  1  0.33516658  0.46092423  0.10733791  1
  S  S36  1  0.59222267  0.94429528  0.67335213  1
  S  S37  1  0.42561458  0.96038282  0.37039338  1
  S  S38  1  0.25421515  0.50810447  0.28441911  1
  S  S39  1  0.76273147  0.49826943  0.67129002  1
  S  S40  1  0.66731314  0.97300787  0.44049876  1
  S  S41  1  0.32541053  0.06335359  0.53497252  1
