# generated using pymatgen
data_Pr2Mn3(SbS3)4
_symmetry_space_group_name_H-M   'P 1'
_cell_length_a   20.02960800
_cell_length_b   3.90410600
_cell_length_c   14.95364829
_cell_angle_alpha   90.00000000
_cell_angle_beta   126.33350609
_cell_angle_gamma   90.00000000
_symmetry_Int_Tables_number   1
_chemical_formula_structural   Pr2Mn3(SbS3)4
_chemical_formula_sum   'Pr4 Mn6 Sb8 S24'
_cell_volume   942.00006694
_cell_formula_units_Z   2
loop_
 _symmetry_equiv_pos_site_id
 _symmetry_equiv_pos_as_xyz
  1  'x, y, z'
loop_
 _atom_site_type_symbol
 _atom_site_label
 _atom_site_symmetry_multiplicity
 _atom_site_fract_x
 _atom_site_fract_y
 _atom_site_fract_z
 _atom_site_occupancy
  Pr  Pr0  1  0.25861241  0.48317974  0.86296762  1
  Pr  Pr1  1  0.72728174  0.54548247  0.13164715  1
  Pr  Pr2  1  0.76558324  0.97744081  0.88173727  1
  Pr  Pr3  1  0.24672058  0.99946772  0.14738440  1
  Mn  Mn4  1  0.28613019  0.55296746  0.58916017  1
  Mn  Mn5  1  0.70040572  0.47942404  0.38662735  1
  Mn  Mn6  1  0.99795875  0.95856214  0.99452866  1
  Mn  Mn7  1  0.79966001  0.99955892  0.60058019  1
  Mn  Mn8  1  0.19868866  0.89067103  0.41361970  1
  Mn  Mn9  1  0.50573052  0.49118791  0.00493852  1
  Sb  Sb10  1  0.89357424  0.98601954  0.44987846  1
  Sb  Sb11  1  0.11110099  0.03863656  0.56188513  1
  Sb  Sb12  1  0.02049853  0.53745722  0.79981361  1
  Sb  Sb13  1  0.97362270  0.49636875  0.18299515  1
  Sb  Sb14  1  0.39862080  0.49254999  0.46366672  1
  Sb  Sb15  1  0.60815423  0.43709769  0.56948148  1
  Sb  Sb16  1  0.53119881  0.99880010  0.82232162  1
  Sb  Sb17  1  0.46364042  0.01898124  0.17617893  1
  S  S18  1  0.92839796  0.00241523  0.76850292  1
  S  S19  1  0.05911565  0.00665040  0.18825234  1
  S  S20  1  0.42308411  0.00963560  0.98598950  1
  S  S21  1  0.58494356  0.00261916  0.01944746  1
  S  S22  1  0.17206441  0.97632317  0.89932856  1
  S  S23  1  0.83212554  0.03431328  0.10597532  1
  S  S24  1  0.09719260  0.47001427  0.65777095  1
  S  S25  1  0.90102608  0.47319128  0.34932705  1
  S  S26  1  0.73726122  0.96992852  0.30451947  1
  S  S27  1  0.26427438  0.97452003  0.69427997  1
  S  S28  1  0.15641902  0.41774949  0.43340913  1
  S  S29  1  0.83337282  0.45387521  0.53784304  1
  S  S30  1  0.43377303  0.47175473  0.81863985  1
  S  S31  1  0.56777293  0.46522807  0.20504270  1
  S  S32  1  0.91612810  0.51624503  0.97947060  1
  S  S33  1  0.08237667  0.51372708  0.00270327  1
  S  S34  1  0.66296066  0.46162814  0.90168563  1
  S  S35  1  0.33512643  0.46156808  0.10724768  1
  S  S36  1  0.59219720  0.94488822  0.67325232  1
  S  S37  1  0.42592218  0.95998156  0.37008150  1
  S  S38  1  0.25427972  0.50848128  0.28416044  1
  S  S39  1  0.76245890  0.49901872  0.67125989  1
  S  S40  1  0.66693350  0.97222395  0.43987832  1
  S  S41  1  0.32542656  0.06404514  0.53465959  1
