# generated using pymatgen
data_Pr2Mn3(SbS3)4
_symmetry_space_group_name_H-M   'P 1'
_cell_length_a   20.02960800
_cell_length_b   3.90410600
_cell_length_c   14.95364829
_cell_angle_alpha   90.00000000
_cell_angle_beta   126.33350609
_cell_angle_gamma   90.00000000
_symmetry_Int_Tables_number   1
_chemical_formula_structural   Pr2Mn3(SbS3)4
_chemical_formula_sum   'Pr4 Mn6 Sb8 S24'
_cell_volume   942.00006694
_cell_formula_units_Z   2
loop_
 _symmetry_equiv_pos_site_id
 _symmetry_equiv_pos_as_xyz
  1  'x, y, z'
loop_
 _atom_site_type_symbol
 _atom_site_label
 _atom_site_symmetry_multiplicity
 _atom_site_fract_x
 _atom_site_fract_y
 _atom_site_fract_z
 _atom_site_occupancy
  Pr  Pr0  1  0.25861233  0.48370149  0.86288083  1
  Pr  Pr1  1  0.72726595  0.54516279  0.13148358  1
  Pr  Pr2  1  0.76577672  0.97745674  0.88194348  1
  Pr  Pr3  1  0.24661250  0.99858913  0.14730140  1
  Mn  Mn4  1  0.28633548  0.55343479  0.58959156  1
  Mn  Mn5  1  0.70039218  0.47893697  0.38654895  1
  Mn  Mn6  1  0.99788853  0.95859759  0.99429409  1
  Mn  Mn7  1  0.79948566  0.00025102  0.60063898  1
  Mn  Mn8  1  0.19842322  0.89132136  0.41329608  1
  Mn  Mn9  1  0.50604231  0.49232528  0.00538337  1
  Sb  Sb10  1  0.89371898  0.98559680  0.45011878  1
  Sb  Sb11  1  0.11116965  0.03887951  0.56172700  1
  Sb  Sb12  1  0.02032781  0.53795559  0.79982876  1
  Sb  Sb13  1  0.97358539  0.49533540  0.18275894  1
  Sb  Sb14  1  0.39863570  0.49207432  0.46364456  1
  Sb  Sb15  1  0.60826093  0.43761873  0.56960037  1
  Sb  Sb16  1  0.53118354  0.99825410  0.82242264  1
  Sb  Sb17  1  0.46346936  0.01817966  0.17608750  1
  S  S18  1  0.92852015  0.00240096  0.76879825  1
  S  S19  1  0.05896922  0.00557515  0.18797183  1
  S  S20  1  0.42348171  0.00970160  0.98650015  1
  S  S21  1  0.58483157  0.00239443  0.01927002  1
  S  S22  1  0.17190696  0.97654610  0.89938604  1
  S  S23  1  0.83235918  0.03394710  0.10599315  1
  S  S24  1  0.09712622  0.46889227  0.65788587  1
  S  S25  1  0.90135197  0.47305523  0.34947496  1
  S  S26  1  0.73710546  0.96833624  0.30427571  1
  S  S27  1  0.26423313  0.97366073  0.69440021  1
  S  S28  1  0.15624465  0.41842977  0.43317418  1
  S  S29  1  0.83343589  0.45378100  0.53800830  1
  S  S30  1  0.43397932  0.47222338  0.81878630  1
  S  S31  1  0.56798835  0.46466777  0.20497661  1
  S  S32  1  0.91617869  0.51516875  0.97939227  1
  S  S33  1  0.08244525  0.51269509  0.00264234  1
  S  S34  1  0.66276005  0.46161726  0.90153410  1
  S  S35  1  0.33520063  0.46270191  0.10714653  1
  S  S36  1  0.59222860  0.94510014  0.67321768  1
  S  S37  1  0.42633870  0.95934873  0.36992653  1
  S  S38  1  0.25439142  0.50912063  0.28389071  1
  S  S39  1  0.76202787  0.50003381  0.67119340  1
  S  S40  1  0.66671704  0.97132723  0.43949947  1
  S  S41  1  0.32542513  0.06442876  0.53451358  1
