# generated using pymatgen
data_Pr2Mn3(SbS3)4
_symmetry_space_group_name_H-M   'P 1'
_cell_length_a   20.02960800
_cell_length_b   3.90410600
_cell_length_c   14.95364829
_cell_angle_alpha   90.00000000
_cell_angle_beta   126.33350609
_cell_angle_gamma   90.00000000
_symmetry_Int_Tables_number   1
_chemical_formula_structural   Pr2Mn3(SbS3)4
_chemical_formula_sum   'Pr4 Mn6 Sb8 S24'
_cell_volume   942.00006694
_cell_formula_units_Z   2
loop_
 _symmetry_equiv_pos_site_id
 _symmetry_equiv_pos_as_xyz
  1  'x, y, z'
loop_
 _atom_site_type_symbol
 _atom_site_label
 _atom_site_symmetry_multiplicity
 _atom_site_fract_x
 _atom_site_fract_y
 _atom_site_fract_z
 _atom_site_occupancy
  Pr  Pr0  1  0.25861631  0.48394767  0.86277673  1
  Pr  Pr1  1  0.72731261  0.54500522  0.13136286  1
  Pr  Pr2  1  0.76599744  0.97737959  0.88224830  1
  Pr  Pr3  1  0.24662922  0.99775419  0.14730297  1
  Mn  Mn4  1  0.28650903  0.55377558  0.58987333  1
  Mn  Mn5  1  0.70026099  0.47861397  0.38638025  1
  Mn  Mn6  1  0.99786954  0.95897775  0.99427743  1
  Mn  Mn7  1  0.79931303  0.00085585  0.60065269  1
  Mn  Mn8  1  0.19828963  0.89267209  0.41315972  1
  Mn  Mn9  1  0.50635360  0.49356282  0.00576590  1
  Sb  Sb10  1  0.89383255  0.98541317  0.45038604  1
  Sb  Sb11  1  0.11120517  0.03891860  0.56151542  1
  Sb  Sb12  1  0.02014018  0.53839040  0.79988227  1
  Sb  Sb13  1  0.97361865  0.49448000  0.18264164  1
  Sb  Sb14  1  0.39869080  0.49197458  0.46369042  1
  Sb  Sb15  1  0.60828249  0.43831651  0.56970894  1
  Sb  Sb16  1  0.53110316  0.99791114  0.82254354  1
  Sb  Sb17  1  0.46321864  0.01704975  0.17581787  1
  S  S18  1  0.92850603  0.00244677  0.76886592  1
  S  S19  1  0.05877372  0.00400906  0.18765265  1
  S  S20  1  0.42369092  0.00973575  0.98683493  1
  S  S21  1  0.58478550  0.00237904  0.01909768  1
  S  S22  1  0.17167508  0.97692955  0.89933854  1
  S  S23  1  0.83265067  0.03372312  0.10602699  1
  S  S24  1  0.09696980  0.46821766  0.65792161  1
  S  S25  1  0.90172346  0.47369232  0.34969717  1
  S  S26  1  0.73703194  0.96727115  0.30390074  1
  S  S27  1  0.26425672  0.97276690  0.69451309  1
  S  S28  1  0.15607591  0.41884172  0.43291844  1
  S  S29  1  0.83348347  0.45410427  0.53815275  1
  S  S30  1  0.43421273  0.47293521  0.81887079  1
  S  S31  1  0.56824765  0.46413940  0.20499852  1
  S  S32  1  0.91614214  0.51455750  0.97917437  1
  S  S33  1  0.08252345  0.51104454  0.00272915  1
  S  S34  1  0.66251085  0.46080777  0.90145741  1
  S  S35  1  0.33525343  0.46417396  0.10716231  1
  S  S36  1  0.59218710  0.94549629  0.67314303  1
  S  S37  1  0.42676296  0.95894200  0.36992494  1
  S  S38  1  0.25461326  0.50963308  0.28374834  1
  S  S39  1  0.76166778  0.50061022  0.67106243  1
  S  S40  1  0.66654923  0.97001112  0.43902644  1
  S  S41  1  0.32544979  0.06527509  0.53435701  1
