# generated using pymatgen
data_Pr2Mn3(SbS3)4
_symmetry_space_group_name_H-M   'P 1'
_cell_length_a   20.02960800
_cell_length_b   3.90410600
_cell_length_c   14.95364829
_cell_angle_alpha   90.00000000
_cell_angle_beta   126.33350609
_cell_angle_gamma   90.00000000
_symmetry_Int_Tables_number   1
_chemical_formula_structural   Pr2Mn3(SbS3)4
_chemical_formula_sum   'Pr4 Mn6 Sb8 S24'
_cell_volume   942.00006694
_cell_formula_units_Z   2
loop_
 _symmetry_equiv_pos_site_id
 _symmetry_equiv_pos_as_xyz
  1  'x, y, z'
loop_
 _atom_site_type_symbol
 _atom_site_label
 _atom_site_symmetry_multiplicity
 _atom_site_fract_x
 _atom_site_fract_y
 _atom_site_fract_z
 _atom_site_occupancy
  Pr  Pr0  1  0.25859549  0.48426140  0.86274668  1
  Pr  Pr1  1  0.72737907  0.54481921  0.13128556  1
  Pr  Pr2  1  0.76624505  0.97761484  0.88257465  1
  Pr  Pr3  1  0.24665312  0.99686369  0.14730715  1
  Mn  Mn4  1  0.28661428  0.55400531  0.59014513  1
  Mn  Mn5  1  0.70017353  0.47813281  0.38623662  1
  Mn  Mn6  1  0.99798564  0.95931278  0.99424660  1
  Mn  Mn7  1  0.79922612  0.00174978  0.60060785  1
  Mn  Mn8  1  0.19812947  0.89406858  0.41307963  1
  Mn  Mn9  1  0.50663900  0.49472821  0.00629887  1
  Sb  Sb10  1  0.89394071  0.98542186  0.45061282  1
  Sb  Sb11  1  0.11119046  0.03888874  0.56118418  1
  Sb  Sb12  1  0.01992579  0.53881599  0.79992217  1
  Sb  Sb13  1  0.97369711  0.49365407  0.18258409  1
  Sb  Sb14  1  0.39876937  0.49162365  0.46365404  1
  Sb  Sb15  1  0.60831552  0.43943137  0.56978965  1
  Sb  Sb16  1  0.53100254  0.99712183  0.82263430  1
  Sb  Sb17  1  0.46296224  0.01591955  0.17569834  1
  S  S18  1  0.92837535  0.00177937  0.76892377  1
  S  S19  1  0.05872051  0.00210856  0.18735291  1
  S  S20  1  0.42385934  0.00960132  0.98716676  1
  S  S21  1  0.58481965  0.00267031  0.01916046  1
  S  S22  1  0.17161727  0.97726926  0.89931737  1
  S  S23  1  0.83283313  0.03338291  0.10594042  1
  S  S24  1  0.09673994  0.46757443  0.65807468  1
  S  S25  1  0.90216498  0.47495011  0.34983353  1
  S  S26  1  0.73707550  0.96644806  0.30370845  1
  S  S27  1  0.26432265  0.97176555  0.69454435  1
  S  S28  1  0.15587770  0.41920639  0.43259553  1
  S  S29  1  0.83347118  0.45385522  0.53828603  1
  S  S30  1  0.43433207  0.47378344  0.81880584  1
  S  S31  1  0.56850937  0.46412992  0.20499369  1
  S  S32  1  0.91605080  0.51355155  0.97895793  1
  S  S33  1  0.08265181  0.50982938  0.00295399  1
  S  S34  1  0.66229993  0.46006349  0.90137115  1
  S  S35  1  0.33515750  0.46467771  0.10699241  1
  S  S36  1  0.59199532  0.94641105  0.67298244  1
  S  S37  1  0.42722763  0.95925712  0.37004302  1
  S  S38  1  0.25487393  0.50994776  0.28379113  1
  S  S39  1  0.76133768  0.50083415  0.67113438  1
  S  S40  1  0.66649013  0.96847963  0.43884633  1
  S  S41  1  0.32545989  0.06589111  0.53411480  1
