# generated using pymatgen
data_Pr2Mn3(SbS3)4
_symmetry_space_group_name_H-M   'P 1'
_cell_length_a   20.02960800
_cell_length_b   3.90410600
_cell_length_c   14.95364829
_cell_angle_alpha   90.00000000
_cell_angle_beta   126.33350609
_cell_angle_gamma   90.00000000
_symmetry_Int_Tables_number   1
_chemical_formula_structural   Pr2Mn3(SbS3)4
_chemical_formula_sum   'Pr4 Mn6 Sb8 S24'
_cell_volume   942.00006694
_cell_formula_units_Z   2
loop_
 _symmetry_equiv_pos_site_id
 _symmetry_equiv_pos_as_xyz
  1  'x, y, z'
loop_
 _atom_site_type_symbol
 _atom_site_label
 _atom_site_symmetry_multiplicity
 _atom_site_fract_x
 _atom_site_fract_y
 _atom_site_fract_z
 _atom_site_occupancy
  Pr  Pr0  1  0.25860559  0.48473305  0.86276353  1
  Pr  Pr1  1  0.72744171  0.54486404  0.13130076  1
  Pr  Pr2  1  0.76647021  0.97759787  0.88286083  1
  Pr  Pr3  1  0.24665708  0.99601875  0.14727255  1
  Mn  Mn4  1  0.28667803  0.55440592  0.59048358  1
  Mn  Mn5  1  0.70003501  0.47734006  0.38607435  1
  Mn  Mn6  1  0.99816524  0.95972681  0.99433379  1
  Mn  Mn7  1  0.79911213  0.00292422  0.60050616  1
  Mn  Mn8  1  0.19806679  0.89534108  0.41315149  1
  Mn  Mn9  1  0.50689496  0.49605304  0.00668023  1
  Sb  Sb10  1  0.89401481  0.98517191  0.45079027  1
  Sb  Sb11  1  0.11112529  0.03827104  0.56084177  1
  Sb  Sb12  1  0.01978804  0.53935898  0.79994687  1
  Sb  Sb13  1  0.97366285  0.49315373  0.18246432  1
  Sb  Sb14  1  0.39891492  0.49139204  0.46369882  1
  Sb  Sb15  1  0.60826228  0.44064866  0.56987734  1
  Sb  Sb16  1  0.53086908  0.99621051  0.82265010  1
  Sb  Sb17  1  0.46279915  0.01457371  0.17565555  1
  S  S18  1  0.92835160  0.00078616  0.76894649  1
  S  S19  1  0.05862400  0.00040210  0.18697104  1
  S  S20  1  0.42395863  0.00922121  0.98733670  1
  S  S21  1  0.58496814  0.00392289  0.01923077  1
  S  S22  1  0.17174267  0.97791734  0.89950417  1
  S  S23  1  0.83297491  0.03312175  0.10590281  1
  S  S24  1  0.09658012  0.46663930  0.65836699  1
  S  S25  1  0.90243544  0.47617814  0.34984339  1
  S  S26  1  0.73702993  0.96600380  0.30341145  1
  S  S27  1  0.26432762  0.97062235  0.69448547  1
  S  S28  1  0.15582282  0.41947980  0.43227988  1
  S  S29  1  0.83333667  0.45290978  0.53809922  1
  S  S30  1  0.43440189  0.47468343  0.81876684  1
  S  S31  1  0.56880340  0.46487703  0.20512796  1
  S  S32  1  0.91598023  0.51228125  0.97880301  1
  S  S33  1  0.08293215  0.50903775  0.00348531  1
  S  S34  1  0.66200862  0.45869223  0.90113101  1
  S  S35  1  0.33507763  0.46552397  0.10693902  1
  S  S36  1  0.59188281  0.94657760  0.67280822  1
  S  S37  1  0.42767921  0.95913045  0.37003122  1
  S  S38  1  0.25512938  0.51004574  0.28394412  1
  S  S39  1  0.76109320  0.50096177  0.67134128  1
  S  S40  1  0.66648561  0.96700583  0.43876683  1
  S  S41  1  0.32550005  0.06645216  0.53394195  1
