# generated using pymatgen
data_Pr2Mn3(SbS3)4
_symmetry_space_group_name_H-M   'P 1'
_cell_length_a   20.02960800
_cell_length_b   3.90410600
_cell_length_c   14.95364829
_cell_angle_alpha   90.00000000
_cell_angle_beta   126.33350609
_cell_angle_gamma   90.00000000
_symmetry_Int_Tables_number   1
_chemical_formula_structural   Pr2Mn3(SbS3)4
_chemical_formula_sum   'Pr4 Mn6 Sb8 S24'
_cell_volume   942.00006694
_cell_formula_units_Z   2
loop_
 _symmetry_equiv_pos_site_id
 _symmetry_equiv_pos_as_xyz
  1  'x, y, z'
loop_
 _atom_site_type_symbol
 _atom_site_label
 _atom_site_symmetry_multiplicity
 _atom_site_fract_x
 _atom_site_fract_y
 _atom_site_fract_z
 _atom_site_occupancy
  Pr  Pr0  1  0.25870198  0.48478005  0.86279669  1
  Pr  Pr1  1  0.72755187  0.54492269  0.13136989  1
  Pr  Pr2  1  0.76668765  0.97742071  0.88312490  1
  Pr  Pr3  1  0.24670261  0.99516840  0.14725554  1
  Mn  Mn4  1  0.28679550  0.55470088  0.59084210  1
  Mn  Mn5  1  0.70007573  0.47650470  0.38601113  1
  Mn  Mn6  1  0.99832362  0.96025357  0.99444652  1
  Mn  Mn7  1  0.79898305  0.00402302  0.60025645  1
  Mn  Mn8  1  0.19803141  0.89641537  0.41313786  1
  Mn  Mn9  1  0.50702178  0.49709047  0.00697929  1
  Sb  Sb10  1  0.89411039  0.98501094  0.45095979  1
  Sb  Sb11  1  0.11105028  0.03758020  0.56053483  1
  Sb  Sb12  1  0.01970069  0.53965596  0.79993437  1
  Sb  Sb13  1  0.97368497  0.49296459  0.18239367  1
  Sb  Sb14  1  0.39908962  0.49115427  0.46368858  1
  Sb  Sb15  1  0.60813032  0.44157130  0.56992693  1
  Sb  Sb16  1  0.53071999  0.99500919  0.82254463  1
  Sb  Sb17  1  0.46260383  0.01327862  0.17566212  1
  S  S18  1  0.92840132  0.99945624  0.76919170  1
  S  S19  1  0.05849736  0.99826509  0.18654913  1
  S  S20  1  0.42406911  0.00845138  0.98740953  1
  S  S21  1  0.58503793  0.00537362  0.01935758  1
  S  S22  1  0.17185828  0.97869264  0.89955932  1
  S  S23  1  0.83297000  0.03236504  0.10562243  1
  S  S24  1  0.09645098  0.46578316  0.65879817  1
  S  S25  1  0.90256187  0.47712524  0.34963003  1
  S  S26  1  0.73687575  0.96637881  0.30305561  1
  S  S27  1  0.26432643  0.96917401  0.69448094  1
  S  S28  1  0.15584356  0.42003712  0.43216631  1
  S  S29  1  0.83313222  0.45214874  0.53791736  1
  S  S30  1  0.43433965  0.47498811  0.81857503  1
  S  S31  1  0.56897538  0.46552102  0.20517968  1
  S  S32  1  0.91603562  0.51094967  0.97870259  1
  S  S33  1  0.08300717  0.50827169  0.00390263  1
  S  S34  1  0.66169456  0.45747041  0.90086875  1
  S  S35  1  0.33499049  0.46586150  0.10689526  1
  S  S36  1  0.59197156  0.94674020  0.67274925  1
  S  S37  1  0.42810960  0.95983886  0.36997241  1
  S  S38  1  0.25541194  0.51131739  0.28409756  1
  S  S39  1  0.76099386  0.50117888  0.67152451  1
  S  S40  1  0.66643672  0.96594399  0.43851830  1
  S  S41  1  0.32553274  0.06745942  0.53387885  1
