# generated using pymatgen
data_Pr2Mn3(SbS3)4
_symmetry_space_group_name_H-M   'P 1'
_cell_length_a   20.02960800
_cell_length_b   3.90410600
_cell_length_c   14.95364829
_cell_angle_alpha   90.00000000
_cell_angle_beta   126.33350609
_cell_angle_gamma   90.00000000
_symmetry_Int_Tables_number   1
_chemical_formula_structural   Pr2Mn3(SbS3)4
_chemical_formula_sum   'Pr4 Mn6 Sb8 S24'
_cell_volume   942.00006694
_cell_formula_units_Z   2
loop_
 _symmetry_equiv_pos_site_id
 _symmetry_equiv_pos_as_xyz
  1  'x, y, z'
loop_
 _atom_site_type_symbol
 _atom_site_label
 _atom_site_symmetry_multiplicity
 _atom_site_fract_x
 _atom_site_fract_y
 _atom_site_fract_z
 _atom_site_occupancy
  Pr  Pr0  1  0.25875834  0.48498993  0.86273971  1
  Pr  Pr1  1  0.72765835  0.54491659  0.13149328  1
  Pr  Pr2  1  0.76689803  0.97708981  0.88331290  1
  Pr  Pr3  1  0.24664490  0.99416362  0.14717385  1
  Mn  Mn4  1  0.28698103  0.55507317  0.59122961  1
  Mn  Mn5  1  0.69999913  0.47606440  0.38574056  1
  Mn  Mn6  1  0.99831245  0.96126899  0.99435685  1
  Mn  Mn7  1  0.79878052  0.00499258  0.59986065  1
  Mn  Mn8  1  0.19796321  0.89740119  0.41306445  1
  Mn  Mn9  1  0.50702716  0.49809998  0.00718802  1
  Sb  Sb10  1  0.89413241  0.98480150  0.45102223  1
  Sb  Sb11  1  0.11103102  0.03690776  0.56029012  1
  Sb  Sb12  1  0.01961891  0.53978459  0.79996595  1
  Sb  Sb13  1  0.97373118  0.49293476  0.18241098  1
  Sb  Sb14  1  0.39919762  0.49078456  0.46358663  1
  Sb  Sb15  1  0.60799073  0.44258570  0.57001758  1
  Sb  Sb16  1  0.53054679  0.99395151  0.82243916  1
  Sb  Sb17  1  0.46241738  0.01180678  0.17573494  1
  S  S18  1  0.92852047  0.99867095  0.76957785  1
  S  S19  1  0.05836410  0.99641993  0.18615469  1
  S  S20  1  0.42417734  0.00846927  0.98769880  1
  S  S21  1  0.58499097  0.00667422  0.01930893  1
  S  S22  1  0.17179675  0.97972415  0.89929734  1
  S  S23  1  0.83295519  0.03103581  0.10533366  1
  S  S24  1  0.09644675  0.46472985  0.65928812  1
  S  S25  1  0.90264212  0.47778104  0.34960837  1
  S  S26  1  0.73663280  0.96680342  0.30276336  1
  S  S27  1  0.26424914  0.96723470  0.69451695  1
  S  S28  1  0.15605749  0.42024105  0.43221410  1
  S  S29  1  0.83287762  0.45143047  0.53750861  1
  S  S30  1  0.43422573  0.47505983  0.81841635  1
  S  S31  1  0.56924106  0.46637719  0.20522073  1
  S  S32  1  0.91625261  0.50948079  0.97871854  1
  S  S33  1  0.08303399  0.50801715  0.00404354  1
  S  S34  1  0.66144953  0.45543835  0.90068508  1
  S  S35  1  0.33495731  0.46586807  0.10690374  1
  S  S36  1  0.59203366  0.94715426  0.67271125  1
  S  S37  1  0.42858279  0.96034117  0.37003302  1
  S  S38  1  0.25571728  0.51314023  0.28427912  1
  S  S39  1  0.76100588  0.50148538  0.67184927  1
  S  S40  1  0.66643953  0.96532229  0.43826405  1
  S  S41  1  0.32563812  0.06847009  0.53399357  1
