# generated using pymatgen
data_Pr2Mn3(SbS3)4
_symmetry_space_group_name_H-M   'P 1'
_cell_length_a   20.02960800
_cell_length_b   3.90410600
_cell_length_c   14.95364829
_cell_angle_alpha   90.00000000
_cell_angle_beta   126.33350609
_cell_angle_gamma   90.00000000
_symmetry_Int_Tables_number   1
_chemical_formula_structural   Pr2Mn3(SbS3)4
_chemical_formula_sum   'Pr4 Mn6 Sb8 S24'
_cell_volume   942.00006694
_cell_formula_units_Z   2
loop_
 _symmetry_equiv_pos_site_id
 _symmetry_equiv_pos_as_xyz
  1  'x, y, z'
loop_
 _atom_site_type_symbol
 _atom_site_label
 _atom_site_symmetry_multiplicity
 _atom_site_fract_x
 _atom_site_fract_y
 _atom_site_fract_z
 _atom_site_occupancy
  Pr  Pr0  1  0.26945879  0.49522384  0.86712566  1
  Pr  Pr1  1  0.73399637  0.51470771  0.13289558  1
  Pr  Pr2  1  0.76474947  0.02324557  0.86371061  1
  Pr  Pr3  1  0.23331182  0.99555937  0.13189473  1
  Mn  Mn4  1  0.29689228  0.47375210  0.59987366  1
  Mn  Mn5  1  0.68536852  0.46148664  0.36207709  1
  Mn  Mn6  1  0.00450426  0.98870813  0.01012992  1
  Mn  Mn7  1  0.79700840  0.00813726  0.61805605  1
  Mn  Mn8  1  0.19635805  0.97935212  0.36811265  1
  Mn  Mn9  1  0.48665618  0.46777992  0.98488292  1
  Sb  Sb10  1  0.88864406  0.98817232  0.45122823  1
  Sb  Sb11  1  0.10965456  0.98032569  0.54503214  1
  Sb  Sb12  1  0.03620277  0.52573319  0.82121704  1
  Sb  Sb13  1  0.96739687  0.49845948  0.19031961  1
  Sb  Sb14  1  0.39215665  0.50107664  0.44756688  1
  Sb  Sb15  1  0.60584069  0.47554617  0.54641106  1
  Sb  Sb16  1  0.53405172  0.98122259  0.80819109  1
  Sb  Sb17  1  0.46597427  0.01576199  0.19047239  1
  S  S18  1  0.93497879  0.01791700  0.80657975  1
  S  S19  1  0.06494764  0.99953774  0.19895277  1
  S  S20  1  0.41887242  0.95537742  0.99026956  1
  S  S21  1  0.58458727  0.02688712  0.01574293  1
  S  S22  1  0.17023628  0.05471094  0.90080459  1
  S  S23  1  0.82640734  0.03874174  0.10111641  1
  S  S24  1  0.09055226  0.49941078  0.64557458  1
  S  S25  1  0.91570141  0.48227996  0.35742198  1
  S  S26  1  0.74006121  0.98865535  0.30456973  1
  S  S27  1  0.26022949  0.01002209  0.71129707  1
  S  S28  1  0.16482731  0.52009770  0.43233593  1
  S  S29  1  0.81518443  0.49221752  0.54568503  1
  S  S30  1  0.43137334  0.47005034  0.79564411  1
  S  S31  1  0.55472124  0.52200552  0.18179445  1
  S  S32  1  0.91953637  0.50385532  0.98985846  1
  S  S33  1  0.09268903  0.49115067  0.03117442  1
  S  S34  1  0.66320154  0.55385749  0.89392162  1
  S  S35  1  0.32649802  0.48369982  0.09185967  1
  S  S36  1  0.59197667  0.99506313  0.65076566  1
  S  S37  1  0.39961582  0.98913122  0.34329695  1
  S  S38  1  0.24329906  0.46362893  0.31608551  1
  S  S39  1  0.75912504  0.52254437  0.68725771  1
  S  S40  1  0.66378995  0.99825095  0.44746028  1
  S  S41  1  0.33185415  0.97828048  0.55569417  1
