# generated using pymatgen
data_Pr2Mn3(SbS3)4
_symmetry_space_group_name_H-M   'P 1'
_cell_length_a   20.02960800
_cell_length_b   3.90410600
_cell_length_c   14.95364829
_cell_angle_alpha   90.00000000
_cell_angle_beta   126.33350609
_cell_angle_gamma   90.00000000
_symmetry_Int_Tables_number   1
_chemical_formula_structural   Pr2Mn3(SbS3)4
_chemical_formula_sum   'Pr4 Mn6 Sb8 S24'
_cell_volume   942.00006694
_cell_formula_units_Z   2
loop_
 _symmetry_equiv_pos_site_id
 _symmetry_equiv_pos_as_xyz
  1  'x, y, z'
loop_
 _atom_site_type_symbol
 _atom_site_label
 _atom_site_symmetry_multiplicity
 _atom_site_fract_x
 _atom_site_fract_y
 _atom_site_fract_z
 _atom_site_occupancy
  Pr  Pr0  1  0.25877187  0.48538990  0.86265787  1
  Pr  Pr1  1  0.72772742  0.54515079  0.13160654  1
  Pr  Pr2  1  0.76705120  0.97708174  0.88340855  1
  Pr  Pr3  1  0.24654083  0.99306928  0.14701719  1
  Mn  Mn4  1  0.28709988  0.55528598  0.59151921  1
  Mn  Mn5  1  0.70000963  0.47532124  0.38545269  1
  Mn  Mn6  1  0.99830501  0.96230646  0.99424481  1
  Mn  Mn7  1  0.79862345  0.00587701  0.59953851  1
  Mn  Mn8  1  0.19783121  0.89831407  0.41287687  1
  Mn  Mn9  1  0.50698998  0.49880785  0.00739543  1
  Sb  Sb10  1  0.89411220  0.98463037  0.45098305  1
  Sb  Sb11  1  0.11094955  0.03625322  0.56000387  1
  Sb  Sb12  1  0.01958005  0.53952007  0.80004579  1
  Sb  Sb13  1  0.97375000  0.49279748  0.18245681  1
  Sb  Sb14  1  0.39923954  0.49061012  0.46337797  1
  Sb  Sb15  1  0.60779232  0.44328259  0.57004622  1
  Sb  Sb16  1  0.53047273  0.99301662  0.82240830  1
  Sb  Sb17  1  0.46225091  0.01047687  0.17575052  1
  S  S18  1  0.92850042  0.99837807  0.76965569  1
  S  S19  1  0.05833471  0.99456927  0.18566581  1
  S  S20  1  0.42428402  0.00853112  0.98811036  1
  S  S21  1  0.58496664  0.00832558  0.01927330  1
  S  S22  1  0.17168016  0.98128528  0.89894914  1
  S  S23  1  0.83289804  0.03006380  0.10502096  1
  S  S24  1  0.09632076  0.46353010  0.65983235  1
  S  S25  1  0.90259394  0.47793241  0.34949434  1
  S  S26  1  0.73649988  0.96719360  0.30271347  1
  S  S27  1  0.26414635  0.96499572  0.69454392  1
  S  S28  1  0.15647560  0.42036825  0.43247785  1
  S  S29  1  0.83257072  0.45147340  0.53710001  1
  S  S30  1  0.43408188  0.47500672  0.81828960  1
  S  S31  1  0.56934730  0.46700405  0.20509250  1
  S  S32  1  0.91634141  0.50793893  0.97874177  1
  S  S33  1  0.08293638  0.50833543  0.00402022  1
  S  S34  1  0.66137750  0.45342513  0.90055392  1
  S  S35  1  0.33496395  0.46573658  0.10678531  1
  S  S36  1  0.59203244  0.94689211  0.67261058  1
  S  S37  1  0.42897575  0.96104033  0.36989342  1
  S  S38  1  0.25602184  0.51430106  0.28452471  1
  S  S39  1  0.76124519  0.50194497  0.67239517  1
  S  S40  1  0.66663353  0.96485090  0.43811577  1
  S  S41  1  0.32582129  0.06995608  0.53415879  1
