# generated using pymatgen
data_Pr2Mn3(SbS3)4
_symmetry_space_group_name_H-M   'P 1'
_cell_length_a   20.02960800
_cell_length_b   3.90410600
_cell_length_c   14.95364829
_cell_angle_alpha   90.00000000
_cell_angle_beta   126.33350609
_cell_angle_gamma   90.00000000
_symmetry_Int_Tables_number   1
_chemical_formula_structural   Pr2Mn3(SbS3)4
_chemical_formula_sum   'Pr4 Mn6 Sb8 S24'
_cell_volume   942.00006694
_cell_formula_units_Z   2
loop_
 _symmetry_equiv_pos_site_id
 _symmetry_equiv_pos_as_xyz
  1  'x, y, z'
loop_
 _atom_site_type_symbol
 _atom_site_label
 _atom_site_symmetry_multiplicity
 _atom_site_fract_x
 _atom_site_fract_y
 _atom_site_fract_z
 _atom_site_occupancy
  Pr  Pr0  1  0.25880317  0.48579924  0.86261112  1
  Pr  Pr1  1  0.72783902  0.54536361  0.13179743  1
  Pr  Pr2  1  0.76716620  0.97705261  0.88350875  1
  Pr  Pr3  1  0.24647936  0.99233032  0.14691916  1
  Mn  Mn4  1  0.28722662  0.55548254  0.59175355  1
  Mn  Mn5  1  0.69999427  0.47510569  0.38517345  1
  Mn  Mn6  1  0.99818230  0.96342185  0.99403068  1
  Mn  Mn7  1  0.79832949  0.00683903  0.59909077  1
  Mn  Mn8  1  0.19765383  0.89931314  0.41274184  1
  Mn  Mn9  1  0.50695515  0.49941426  0.00766692  1
  Sb  Sb10  1  0.89406651  0.98463067  0.45094673  1
  Sb  Sb11  1  0.11091375  0.03588721  0.55975903  1
  Sb  Sb12  1  0.01948303  0.53891755  0.80002674  1
  Sb  Sb13  1  0.97374462  0.49264357  0.18251260  1
  Sb  Sb14  1  0.39929939  0.49037577  0.46323981  1
  Sb  Sb15  1  0.60755299  0.44395955  0.57007641  1
  Sb  Sb16  1  0.53035952  0.99226786  0.82234414  1
  Sb  Sb17  1  0.46210628  0.00909717  0.17579888  1
  S  S18  1  0.92839715  0.99786956  0.76975253  1
  S  S19  1  0.05827526  0.99227940  0.18541369  1
  S  S20  1  0.42429676  0.00779252  0.98853485  1
  S  S21  1  0.58482942  0.01028150  0.01916580  1
  S  S22  1  0.17153709  0.98297068  0.89849315  1
  S  S23  1  0.83278936  0.02931684  0.10484213  1
  S  S24  1  0.09620536  0.46263804  0.66054229  1
  S  S25  1  0.90264892  0.47831724  0.34931774  1
  S  S26  1  0.73620944  0.96720790  0.30257811  1
  S  S27  1  0.26406797  0.96258966  0.69438929  1
  S  S28  1  0.15674254  0.42050428  0.43264843  1
  S  S29  1  0.83197731  0.45134651  0.53655604  1
  S  S30  1  0.43408025  0.47450468  0.81815121  1
  S  S31  1  0.56972108  0.46711340  0.20526359  1
  S  S32  1  0.91629121  0.50606536  0.97843889  1
  S  S33  1  0.08285366  0.50793518  0.00408870  1
  S  S34  1  0.66126536  0.45174532  0.90037274  1
  S  S35  1  0.33495047  0.46586062  0.10680581  1
  S  S36  1  0.59202153  0.94628754  0.67255139  1
  S  S37  1  0.42918685  0.96229762  0.36952454  1
  S  S38  1  0.25639248  0.51584497  0.28500191  1
  S  S39  1  0.76155634  0.50207836  0.67306174  1
  S  S40  1  0.66671000  0.96473837  0.43797971  1
  S  S41  1  0.32601332  0.07094417  0.53439684  1
