# generated using pymatgen
data_Pr2Mn3(SbS3)4
_symmetry_space_group_name_H-M   'P 1'
_cell_length_a   20.02960800
_cell_length_b   3.90410600
_cell_length_c   14.95364829
_cell_angle_alpha   90.00000000
_cell_angle_beta   126.33350609
_cell_angle_gamma   90.00000000
_symmetry_Int_Tables_number   1
_chemical_formula_structural   Pr2Mn3(SbS3)4
_chemical_formula_sum   'Pr4 Mn6 Sb8 S24'
_cell_volume   942.00006694
_cell_formula_units_Z   2
loop_
 _symmetry_equiv_pos_site_id
 _symmetry_equiv_pos_as_xyz
  1  'x, y, z'
loop_
 _atom_site_type_symbol
 _atom_site_label
 _atom_site_symmetry_multiplicity
 _atom_site_fract_x
 _atom_site_fract_y
 _atom_site_fract_z
 _atom_site_occupancy
  Pr  Pr0  1  0.25886139  0.48626715  0.86258874  1
  Pr  Pr1  1  0.72796458  0.54539755  0.13199441  1
  Pr  Pr2  1  0.76724795  0.97718059  0.88357389  1
  Pr  Pr3  1  0.24639918  0.99152688  0.14684074  1
  Mn  Mn4  1  0.28726134  0.55594674  0.59181391  1
  Mn  Mn5  1  0.70010641  0.47488662  0.38489572  1
  Mn  Mn6  1  0.99808520  0.96417921  0.99377318  1
  Mn  Mn7  1  0.79798465  0.00776141  0.59854477  1
  Mn  Mn8  1  0.19755574  0.89969036  0.41269079  1
  Mn  Mn9  1  0.50693087  0.49973364  0.00797555  1
  Sb  Sb10  1  0.89396458  0.98474507  0.45087747  1
  Sb  Sb11  1  0.11090705  0.03550920  0.55952975  1
  Sb  Sb12  1  0.01930499  0.53824565  0.79990696  1
  Sb  Sb13  1  0.97368619  0.49252479  0.18248667  1
  Sb  Sb14  1  0.39933575  0.48982821  0.46310368  1
  Sb  Sb15  1  0.60729050  0.44452595  0.57011595  1
  Sb  Sb16  1  0.53023830  0.99206088  0.82228005  1
  Sb  Sb17  1  0.46195174  0.00745286  0.17583736  1
  S  S18  1  0.92821698  0.99747635  0.76950413  1
  S  S19  1  0.05829692  0.99103142  0.18514049  1
  S  S20  1  0.42427221  0.00800194  0.98878233  1
  S  S21  1  0.58476599  0.01161178  0.01909574  1
  S  S22  1  0.17140722  0.98422849  0.89819252  1
  S  S23  1  0.83265899  0.02884101  0.10464998  1
  S  S24  1  0.09608596  0.46142364  0.66120912  1
  S  S25  1  0.90255120  0.47892136  0.34893191  1
  S  S26  1  0.73597362  0.96673325  0.30235622  1
  S  S27  1  0.26392545  0.96094425  0.69431640  1
  S  S28  1  0.15691285  0.42066697  0.43277195  1
  S  S29  1  0.83146298  0.45113925  0.53609854  1
  S  S30  1  0.43415953  0.47381642  0.81801124  1
  S  S31  1  0.57010679  0.46669151  0.20551926  1
  S  S32  1  0.91618123  0.50439773  0.97785454  1
  S  S33  1  0.08269303  0.50762424  0.00414215  1
  S  S34  1  0.66112322  0.44997003  0.90008829  1
  S  S35  1  0.33500277  0.46610624  0.10682251  1
  S  S36  1  0.59202254  0.94545551  0.67252742  1
  S  S37  1  0.42941921  0.96342766  0.36912512  1
  S  S38  1  0.25662845  0.51704872  0.28535943  1
  S  S39  1  0.76171233  0.50253315  0.67351352  1
  S  S40  1  0.66690089  0.96495914  0.43809448  1
  S  S41  1  0.32618634  0.07149756  0.53466412  1
