# generated using pymatgen
data_Pr2Mn3(SbS3)4
_symmetry_space_group_name_H-M   'P 1'
_cell_length_a   20.02960800
_cell_length_b   3.90410600
_cell_length_c   14.95364829
_cell_angle_alpha   90.00000000
_cell_angle_beta   126.33350609
_cell_angle_gamma   90.00000000
_symmetry_Int_Tables_number   1
_chemical_formula_structural   Pr2Mn3(SbS3)4
_chemical_formula_sum   'Pr4 Mn6 Sb8 S24'
_cell_volume   942.00006694
_cell_formula_units_Z   2
loop_
 _symmetry_equiv_pos_site_id
 _symmetry_equiv_pos_as_xyz
  1  'x, y, z'
loop_
 _atom_site_type_symbol
 _atom_site_label
 _atom_site_symmetry_multiplicity
 _atom_site_fract_x
 _atom_site_fract_y
 _atom_site_fract_z
 _atom_site_occupancy
  Pr  Pr0  1  0.25888753  0.48678166  0.86247109  1
  Pr  Pr1  1  0.72810960  0.54511016  0.13216038  1
  Pr  Pr2  1  0.76743040  0.97740323  0.88374672  1
  Pr  Pr3  1  0.24639596  0.99108733  0.14682525  1
  Mn  Mn4  1  0.28723888  0.55675376  0.59186284  1
  Mn  Mn5  1  0.70013271  0.47491265  0.38456110  1
  Mn  Mn6  1  0.99814413  0.96490237  0.99364110  1
  Mn  Mn7  1  0.79749988  0.00877183  0.59788708  1
  Mn  Mn8  1  0.19740971  0.89975120  0.41247196  1
  Mn  Mn9  1  0.50695139  0.50003620  0.00829780  1
  Sb  Sb10  1  0.89385007  0.98460943  0.45077523  1
  Sb  Sb11  1  0.11099339  0.03515900  0.55939428  1
  Sb  Sb12  1  0.01913277  0.53759480  0.79981662  1
  Sb  Sb13  1  0.97363326  0.49229803  0.18252237  1
  Sb  Sb14  1  0.39928897  0.48933180  0.46294094  1
  Sb  Sb15  1  0.60706956  0.44517830  0.57011845  1
  Sb  Sb16  1  0.53019025  0.99181962  0.82222206  1
  Sb  Sb17  1  0.46182920  0.00563883  0.17595124  1
  S  S18  1  0.92813498  0.99755934  0.76944780  1
  S  S19  1  0.05826089  0.98998831  0.18494899  1
  S  S20  1  0.42433492  0.00827387  0.98897934  1
  S  S21  1  0.58477881  0.01233219  0.01915116  1
  S  S22  1  0.17137948  0.98449547  0.89781373  1
  S  S23  1  0.83255163  0.02816170  0.10448252  1
  S  S24  1  0.09602609  0.46083742  0.66197025  1
  S  S25  1  0.90230213  0.47965959  0.34841191  1
  S  S26  1  0.73570967  0.96646471  0.30217239  1
  S  S27  1  0.26367982  0.95863266  0.69411046  1
  S  S28  1  0.15707717  0.42055155  0.43294629  1
  S  S29  1  0.83096008  0.45096065  0.53568110  1
  S  S30  1  0.43417068  0.47327694  0.81758430  1
  S  S31  1  0.57035043  0.46619741  0.20552332  1
  S  S32  1  0.91624830  0.50182003  0.97739275  1
  S  S33  1  0.08271692  0.50669706  0.00434451  1
  S  S34  1  0.66110562  0.44814326  0.90001181  1
  S  S35  1  0.33510447  0.46670084  0.10685032  1
  S  S36  1  0.59204638  0.94481129  0.67257911  1
  S  S37  1  0.42971925  0.96520930  0.36878227  1
  S  S38  1  0.25689855  0.51772474  0.28581339  1
  S  S39  1  0.76187659  0.50338670  0.67405400  1
  S  S40  1  0.66709513  0.96560236  0.43844835  1
  S  S41  1  0.32649296  0.07220069  0.53513723  1
