# generated using pymatgen
data_Pr2Mn3(SbS3)4
_symmetry_space_group_name_H-M   'P 1'
_cell_length_a   20.02960800
_cell_length_b   3.90410600
_cell_length_c   14.95364829
_cell_angle_alpha   90.00000000
_cell_angle_beta   126.33350609
_cell_angle_gamma   90.00000000
_symmetry_Int_Tables_number   1
_chemical_formula_structural   Pr2Mn3(SbS3)4
_chemical_formula_sum   'Pr4 Mn6 Sb8 S24'
_cell_volume   942.00006694
_cell_formula_units_Z   2
loop_
 _symmetry_equiv_pos_site_id
 _symmetry_equiv_pos_as_xyz
  1  'x, y, z'
loop_
 _atom_site_type_symbol
 _atom_site_label
 _atom_site_symmetry_multiplicity
 _atom_site_fract_x
 _atom_site_fract_y
 _atom_site_fract_z
 _atom_site_occupancy
  Pr  Pr0  1  0.25889737  0.48708774  0.86233099  1
  Pr  Pr1  1  0.72819004  0.54481258  0.13232468  1
  Pr  Pr2  1  0.76764024  0.97762130  0.88397409  1
  Pr  Pr3  1  0.24644270  0.99058744  0.14679715  1
  Mn  Mn4  1  0.28697651  0.55755613  0.59153605  1
  Mn  Mn5  1  0.69996640  0.47475207  0.38417634  1
  Mn  Mn6  1  0.99815365  0.96569458  0.99362490  1
  Mn  Mn7  1  0.79705682  0.01002979  0.59730611  1
  Mn  Mn8  1  0.19728281  0.90027524  0.41225114  1
  Mn  Mn9  1  0.50691499  0.50023852  0.00864603  1
  Sb  Sb10  1  0.89375691  0.98439008  0.45063407  1
  Sb  Sb11  1  0.11103329  0.03486415  0.55919305  1
  Sb  Sb12  1  0.01900254  0.53669258  0.79973127  1
  Sb  Sb13  1  0.97359345  0.49207352  0.18251946  1
  Sb  Sb14  1  0.39929132  0.48901517  0.46283762  1
  Sb  Sb15  1  0.60683214  0.44586427  0.57006999  1
  Sb  Sb16  1  0.53011124  0.99157058  0.82216687  1
  Sb  Sb17  1  0.46177514  0.00374197  0.17596716  1
  S  S18  1  0.92798562  0.99779183  0.76947937  1
  S  S19  1  0.05827304  0.98913860  0.18480231  1
  S  S20  1  0.42433075  0.00801638  0.98913174  1
  S  S21  1  0.58472612  0.01235138  0.01919382  1
  S  S22  1  0.17127534  0.98476907  0.89741801  1
  S  S23  1  0.83240524  0.02799409  0.10428186  1
  S  S24  1  0.09619086  0.46020994  0.66284777  1
  S  S25  1  0.90197843  0.47988235  0.34788337  1
  S  S26  1  0.73532218  0.96635760  0.30191232  1
  S  S27  1  0.26356084  0.95630278  0.69393160  1
  S  S28  1  0.15724172  0.42023536  0.43306775  1
  S  S29  1  0.83068616  0.45069490  0.53536596  1
  S  S30  1  0.43437689  0.47296421  0.81720246  1
  S  S31  1  0.57056369  0.46624140  0.20560146  1
  S  S32  1  0.91624247  0.49988508  0.97685621  1
  S  S33  1  0.08289577  0.50612135  0.00465787  1
  S  S34  1  0.66108930  0.44631357  0.89999922  1
  S  S35  1  0.33523506  0.46693906  0.10680795  1
  S  S36  1  0.59197134  0.94406511  0.67260737  1
  S  S37  1  0.42980660  0.96712609  0.36847020  1
  S  S38  1  0.25704997  0.51788729  0.28600210  1
  S  S39  1  0.76186676  0.50402916  0.67440477  1
  S  S40  1  0.66741505  0.96642625  0.43886257  1
  S  S41  1  0.32680691  0.07277550  0.53567042  1
