# generated using pymatgen
data_Pr2Mn3(SbS3)4
_symmetry_space_group_name_H-M   'P 1'
_cell_length_a   20.02960800
_cell_length_b   3.90410600
_cell_length_c   14.95364829
_cell_angle_alpha   90.00000000
_cell_angle_beta   126.33350609
_cell_angle_gamma   90.00000000
_symmetry_Int_Tables_number   1
_chemical_formula_structural   Pr2Mn3(SbS3)4
_chemical_formula_sum   'Pr4 Mn6 Sb8 S24'
_cell_volume   942.00006694
_cell_formula_units_Z   2
loop_
 _symmetry_equiv_pos_site_id
 _symmetry_equiv_pos_as_xyz
  1  'x, y, z'
loop_
 _atom_site_type_symbol
 _atom_site_label
 _atom_site_symmetry_multiplicity
 _atom_site_fract_x
 _atom_site_fract_y
 _atom_site_fract_z
 _atom_site_occupancy
  Pr  Pr0  1  0.25891539  0.48719313  0.86216573  1
  Pr  Pr1  1  0.72822539  0.54450404  0.13243898  1
  Pr  Pr2  1  0.76784231  0.97811912  0.88428448  1
  Pr  Pr3  1  0.24645426  0.99042118  0.14675647  1
  Mn  Mn4  1  0.28666735  0.55851367  0.59117241  1
  Mn  Mn5  1  0.69988375  0.47494097  0.38393457  1
  Mn  Mn6  1  0.99821551  0.96624276  0.99370786  1
  Mn  Mn7  1  0.79647092  0.01114084  0.59661855  1
  Mn  Mn8  1  0.19709235  0.90120453  0.41198288  1
  Mn  Mn9  1  0.50688397  0.50013866  0.00898839  1
  Sb  Sb10  1  0.89359889  0.98378754  0.45042613  1
  Sb  Sb11  1  0.11105912  0.03461213  0.55897963  1
  Sb  Sb12  1  0.01890071  0.53584784  0.79961061  1
  Sb  Sb13  1  0.97359591  0.49156664  0.18251013  1
  Sb  Sb14  1  0.39928460  0.48881390  0.46275609  1
  Sb  Sb15  1  0.60666077  0.44657251  0.57003142  1
  Sb  Sb16  1  0.53004658  0.99128323  0.82212118  1
  Sb  Sb17  1  0.46170316  0.00197063  0.17601185  1
  S  S18  1  0.92779490  0.99793402  0.76947408  1
  S  S19  1  0.05821355  0.98834735  0.18451302  1
  S  S20  1  0.42413954  0.00722350  0.98914125  1
  S  S21  1  0.58471708  0.01197768  0.01938187  1
  S  S22  1  0.17114996  0.98537093  0.89695543  1
  S  S23  1  0.83237701  0.02770321  0.10415130  1
  S  S24  1  0.09629791  0.46053266  0.66345833  1
  S  S25  1  0.90163037  0.48055897  0.34739945  1
  S  S26  1  0.73497507  0.96537294  0.30180417  1
  S  S27  1  0.26343400  0.95453272  0.69390726  1
  S  S28  1  0.15742161  0.41955491  0.43313666  1
  S  S29  1  0.83049410  0.45040669  0.53505289  1
  S  S30  1  0.43459282  0.47223276  0.81693709  1
  S  S31  1  0.57078313  0.46673533  0.20561706  1
  S  S32  1  0.91612749  0.49814774  0.97626980  1
  S  S33  1  0.08288496  0.50548955  0.00474900  1
  S  S34  1  0.66112018  0.44451777  0.90022619  1
  S  S35  1  0.33540933  0.46731307  0.10667699  1
  S  S36  1  0.59197959  0.94349670  0.67253063  1
  S  S37  1  0.42991543  0.96891813  0.36835334  1
  S  S38  1  0.25722017  0.51751884  0.28627159  1
  S  S39  1  0.76192127  0.50443051  0.67472109  1
  S  S40  1  0.66764379  0.96782216  0.43916045  1
  S  S41  1  0.32723949  0.07341007  0.53649205  1
