# generated using pymatgen
data_Pr2Mn3(SbS3)4
_symmetry_space_group_name_H-M   'P 1'
_cell_length_a   20.02960800
_cell_length_b   3.90410600
_cell_length_c   14.95364829
_cell_angle_alpha   90.00000000
_cell_angle_beta   126.33350609
_cell_angle_gamma   90.00000000
_symmetry_Int_Tables_number   1
_chemical_formula_structural   Pr2Mn3(SbS3)4
_chemical_formula_sum   'Pr4 Mn6 Sb8 S24'
_cell_volume   942.00006694
_cell_formula_units_Z   2
loop_
 _symmetry_equiv_pos_site_id
 _symmetry_equiv_pos_as_xyz
  1  'x, y, z'
loop_
 _atom_site_type_symbol
 _atom_site_label
 _atom_site_symmetry_multiplicity
 _atom_site_fract_x
 _atom_site_fract_y
 _atom_site_fract_z
 _atom_site_occupancy
  Pr  Pr0  1  0.25895664  0.48740253  0.86203484  1
  Pr  Pr1  1  0.72826666  0.54412336  0.13254495  1
  Pr  Pr2  1  0.76807495  0.97837254  0.88462279  1
  Pr  Pr3  1  0.24643214  0.99008329  0.14660814  1
  Mn  Mn4  1  0.28630284  0.55932701  0.59077532  1
  Mn  Mn5  1  0.69982557  0.47485214  0.38371388  1
  Mn  Mn6  1  0.99829590  0.96656405  0.99372675  1
  Mn  Mn7  1  0.79589440  0.01221242  0.59593906  1
  Mn  Mn8  1  0.19694457  0.90212605  0.41180019  1
  Mn  Mn9  1  0.50688510  0.50077833  0.00921868  1
  Sb  Sb10  1  0.89338141  0.98329059  0.45019704  1
  Sb  Sb11  1  0.11106589  0.03409942  0.55871406  1
  Sb  Sb12  1  0.01879261  0.53495195  0.79947259  1
  Sb  Sb13  1  0.97362446  0.49112724  0.18258944  1
  Sb  Sb14  1  0.39931471  0.48858411  0.46271428  1
  Sb  Sb15  1  0.60656606  0.44774027  0.57008994  1
  Sb  Sb16  1  0.53003643  0.99080903  0.82210642  1
  Sb  Sb17  1  0.46166378  0.00058165  0.17613609  1
  S  S18  1  0.92752155  0.99835779  0.76927783  1
  S  S19  1  0.05822317  0.98738402  0.18429273  1
  S  S20  1  0.42384915  0.00658766  0.98904963  1
  S  S21  1  0.58459918  0.01196981  0.01954251  1
  S  S22  1  0.17103418  0.98625362  0.89641170  1
  S  S23  1  0.83241281  0.02706926  0.10390606  1
  S  S24  1  0.09631016  0.46117710  0.66386626  1
  S  S25  1  0.90145472  0.48163810  0.34710833  1
  S  S26  1  0.73477463  0.96487868  0.30181577  1
  S  S27  1  0.26345878  0.95299024  0.69390154  1
  S  S28  1  0.15761878  0.41879140  0.43328113  1
  S  S29  1  0.83040156  0.45057395  0.53493897  1
  S  S30  1  0.43465381  0.47164579  0.81664112  1
  S  S31  1  0.57086257  0.46710058  0.20558986  1
  S  S32  1  0.91601696  0.49689386  0.97563467  1
  S  S33  1  0.08270678  0.50568232  0.00464733  1
  S  S34  1  0.66095795  0.44288451  0.90037709  1
  S  S35  1  0.33556234  0.46787194  0.10657647  1
  S  S36  1  0.59185200  0.94271896  0.67228887  1
  S  S37  1  0.43012341  0.97074563  0.36844204  1
  S  S38  1  0.25738480  0.51754815  0.28648907  1
  S  S39  1  0.76196146  0.50494737  0.67480610  1
  S  S40  1  0.66788602  0.96850785  0.43927309  1
  S  S41  1  0.32745354  0.07324639  0.53707456  1
