# generated using pymatgen
data_Pr2Mn3(SbS3)4
_symmetry_space_group_name_H-M   'P 1'
_cell_length_a   20.02960800
_cell_length_b   3.90410600
_cell_length_c   14.95364829
_cell_angle_alpha   90.00000000
_cell_angle_beta   126.33350609
_cell_angle_gamma   90.00000000
_symmetry_Int_Tables_number   1
_chemical_formula_structural   Pr2Mn3(SbS3)4
_chemical_formula_sum   'Pr4 Mn6 Sb8 S24'
_cell_volume   942.00006694
_cell_formula_units_Z   2
loop_
 _symmetry_equiv_pos_site_id
 _symmetry_equiv_pos_as_xyz
  1  'x, y, z'
loop_
 _atom_site_type_symbol
 _atom_site_label
 _atom_site_symmetry_multiplicity
 _atom_site_fract_x
 _atom_site_fract_y
 _atom_site_fract_z
 _atom_site_occupancy
  Pr  Pr0  1  0.25908129  0.48749955  0.86198151  1
  Pr  Pr1  1  0.72827779  0.54361815  0.13256066  1
  Pr  Pr2  1  0.76822067  0.97868824  0.88492065  1
  Pr  Pr3  1  0.24639984  0.98985145  0.14645488  1
  Mn  Mn4  1  0.28589424  0.56025412  0.59044962  1
  Mn  Mn5  1  0.69970645  0.47495105  0.38344899  1
  Mn  Mn6  1  0.99843738  0.96634340  0.99390302  1
  Mn  Mn7  1  0.79538400  0.01277143  0.59538552  1
  Mn  Mn8  1  0.19678287  0.90290194  0.41157104  1
  Mn  Mn9  1  0.50693366  0.50145683  0.00946047  1
  Sb  Sb10  1  0.89324091  0.98284973  0.45000273  1
  Sb  Sb11  1  0.11111858  0.03375161  0.55854499  1
  Sb  Sb12  1  0.01877452  0.53420634  0.79941815  1
  Sb  Sb13  1  0.97365235  0.49086698  0.18264291  1
  Sb  Sb14  1  0.39935393  0.48848706  0.46274038  1
  Sb  Sb15  1  0.60644148  0.44835848  0.57016057  1
  Sb  Sb16  1  0.53011770  0.99066781  0.82219210  1
  Sb  Sb17  1  0.46171046  0.99948216  0.17630051  1
  S  S18  1  0.92725860  0.99880526  0.76922703  1
  S  S19  1  0.05834565  0.98654355  0.18428442  1
  S  S20  1  0.42362924  0.00642747  0.98919019  1
  S  S21  1  0.58461919  0.01171815  0.01976713  1
  S  S22  1  0.17102208  0.98652408  0.89596492  1
  S  S23  1  0.83249869  0.02725077  0.10389023  1
  S  S24  1  0.09617220  0.46216598  0.66414436  1
  S  S25  1  0.90130787  0.48217122  0.34675387  1
  S  S26  1  0.73466374  0.96457520  0.30187700  1
  S  S27  1  0.26346030  0.95198807  0.69374517  1
  S  S28  1  0.15783682  0.41779198  0.43350456  1
  S  S29  1  0.83022028  0.45086074  0.53479004  1
  S  S30  1  0.43474691  0.47058587  0.81628638  1
  S  S31  1  0.57091704  0.46710474  0.20536456  1
  S  S32  1  0.91576451  0.49513486  0.97490117  1
  S  S33  1  0.08258226  0.50558288  0.00463860  1
  S  S34  1  0.66084501  0.44150359  0.90037139  1
  S  S35  1  0.33577886  0.46841844  0.10661643  1
  S  S36  1  0.59188500  0.94227908  0.67223616  1
  S  S37  1  0.43025246  0.97215512  0.36838250  1
  S  S38  1  0.25764412  0.51765266  0.28690023  1
  S  S39  1  0.76200970  0.50584056  0.67473392  1
  S  S40  1  0.66812887  0.96975657  0.43924194  1
  S  S41  1  0.32761951  0.07352807  0.53773127  1
