# generated using pymatgen
data_Pr2Mn3(SbS3)4
_symmetry_space_group_name_H-M   'P 1'
_cell_length_a   20.02960800
_cell_length_b   3.90410600
_cell_length_c   14.95364829
_cell_angle_alpha   90.00000000
_cell_angle_beta   126.33350609
_cell_angle_gamma   90.00000000
_symmetry_Int_Tables_number   1
_chemical_formula_structural   Pr2Mn3(SbS3)4
_chemical_formula_sum   'Pr4 Mn6 Sb8 S24'
_cell_volume   942.00006694
_cell_formula_units_Z   2
loop_
 _symmetry_equiv_pos_site_id
 _symmetry_equiv_pos_as_xyz
  1  'x, y, z'
loop_
 _atom_site_type_symbol
 _atom_site_label
 _atom_site_symmetry_multiplicity
 _atom_site_fract_x
 _atom_site_fract_y
 _atom_site_fract_z
 _atom_site_occupancy
  Pr  Pr0  1  0.25918362  0.48762593  0.86188871  1
  Pr  Pr1  1  0.72825541  0.54314076  0.13257483  1
  Pr  Pr2  1  0.76838402  0.97895674  0.88527962  1
  Pr  Pr3  1  0.24632796  0.98945354  0.14626882  1
  Mn  Mn4  1  0.28549416  0.56124164  0.59011825  1
  Mn  Mn5  1  0.69957348  0.47514821  0.38316505  1
  Mn  Mn6  1  0.99862391  0.96619420  0.99408381  1
  Mn  Mn7  1  0.79486815  0.01317141  0.59497929  1
  Mn  Mn8  1  0.19660039  0.90335756  0.41141420  1
  Mn  Mn9  1  0.50696831  0.50226073  0.00974311  1
  Sb  Sb10  1  0.89307335  0.98244211  0.44983018  1
  Sb  Sb11  1  0.11114429  0.03354031  0.55843735  1
  Sb  Sb12  1  0.01869532  0.53335430  0.79936609  1
  Sb  Sb13  1  0.97363383  0.49061176  0.18260828  1
  Sb  Sb14  1  0.39932308  0.48861734  0.46274818  1
  Sb  Sb15  1  0.60623849  0.44829974  0.57019759  1
  Sb  Sb16  1  0.53018875  0.99009222  0.82219447  1
  Sb  Sb17  1  0.46175545  0.99858284  0.17637697  1
  S  S18  1  0.92694558  0.99961449  0.76924049  1
  S  S19  1  0.05852539  0.98585255  0.18419973  1
  S  S20  1  0.42348503  0.00565191  0.98940729  1
  S  S21  1  0.58469050  0.01098406  0.01993287  1
  S  S22  1  0.17088677  0.98632043  0.89553893  1
  S  S23  1  0.83265574  0.02757222  0.10392271  1
  S  S24  1  0.09582622  0.46290166  0.66408952  1
  S  S25  1  0.90127118  0.48261488  0.34648764  1
  S  S26  1  0.73437683  0.96411474  0.30170471  1
  S  S27  1  0.26341104  0.95038423  0.69377941  1
  S  S28  1  0.15801788  0.41686892  0.43377818  1
  S  S29  1  0.83019616  0.45081219  0.53474905  1
  S  S30  1  0.43478521  0.46941241  0.81573815  1
  S  S31  1  0.57096395  0.46723653  0.20516071  1
  S  S32  1  0.91539804  0.49388555  0.97406325  1
  S  S33  1  0.08228341  0.50529873  0.00444470  1
  S  S34  1  0.66065951  0.44040367  0.90042553  1
  S  S35  1  0.33590343  0.46853283  0.10665930  1
  S  S36  1  0.59186168  0.94135438  0.67207628  1
  S  S37  1  0.43029304  0.97385318  0.36802375  1
  S  S38  1  0.25788849  0.51750836  0.28723689  1
  S  S39  1  0.76214804  0.50728099  0.67476833  1
  S  S40  1  0.66839410  0.97105381  0.43917143  1
  S  S41  1  0.32768241  0.07348135  0.53821157  1
