# generated using pymatgen
data_Pr2Mn3(SbS3)4
_symmetry_space_group_name_H-M   'P 1'
_cell_length_a   20.02960800
_cell_length_b   3.90410600
_cell_length_c   14.95364829
_cell_angle_alpha   90.00000000
_cell_angle_beta   126.33350609
_cell_angle_gamma   90.00000000
_symmetry_Int_Tables_number   1
_chemical_formula_structural   Pr2Mn3(SbS3)4
_chemical_formula_sum   'Pr4 Mn6 Sb8 S24'
_cell_volume   942.00006694
_cell_formula_units_Z   2
loop_
 _symmetry_equiv_pos_site_id
 _symmetry_equiv_pos_as_xyz
  1  'x, y, z'
loop_
 _atom_site_type_symbol
 _atom_site_label
 _atom_site_symmetry_multiplicity
 _atom_site_fract_x
 _atom_site_fract_y
 _atom_site_fract_z
 _atom_site_occupancy
  Pr  Pr0  1  0.25924620  0.48788184  0.86179188  1
  Pr  Pr1  1  0.72817782  0.54260906  0.13252363  1
  Pr  Pr2  1  0.76851963  0.97955307  0.88558717  1
  Pr  Pr3  1  0.24628454  0.98918991  0.14608842  1
  Mn  Mn4  1  0.28514289  0.56229277  0.58990108  1
  Mn  Mn5  1  0.69949947  0.47581930  0.38306930  1
  Mn  Mn6  1  0.99873255  0.96609937  0.99425795  1
  Mn  Mn7  1  0.79432898  0.01324544  0.59455202  1
  Mn  Mn8  1  0.19643521  0.90409710  0.41128719  1
  Mn  Mn9  1  0.50701380  0.50324021  0.00992000  1
  Sb  Sb10  1  0.89293340  0.98224336  0.44969726  1
  Sb  Sb11  1  0.11115881  0.03329189  0.55828052  1
  Sb  Sb12  1  0.01865604  0.53287917  0.79925637  1
  Sb  Sb13  1  0.97363022  0.49044361  0.18262325  1
  Sb  Sb14  1  0.39926499  0.48847192  0.46271579  1
  Sb  Sb15  1  0.60597099  0.44867771  0.57013061  1
  Sb  Sb16  1  0.53023351  0.98961857  0.82213899  1
  Sb  Sb17  1  0.46190244  0.99735131  0.17649737  1
  S  S18  1  0.92660836  0.00022452  0.76913568  1
  S  S19  1  0.05868049  0.98525719  0.18422012  1
  S  S20  1  0.42322893  0.00488098  0.98951174  1
  S  S21  1  0.58488336  0.00988624  0.02012938  1
  S  S22  1  0.17081892  0.98641747  0.89513680  1
  S  S23  1  0.83278041  0.02779758  0.10390972  1
  S  S24  1  0.09555461  0.46351030  0.66413817  1
  S  S25  1  0.90119485  0.48245070  0.34633659  1
  S  S26  1  0.73404993  0.96334158  0.30153404  1
  S  S27  1  0.26330645  0.94889675  0.69379294  1
  S  S28  1  0.15823186  0.41602760  0.43434395  1
  S  S29  1  0.83013179  0.45080819  0.53459144  1
  S  S30  1  0.43470093  0.46807028  0.81515684  1
  S  S31  1  0.57102223  0.46773053  0.20487702  1
  S  S32  1  0.91491069  0.49291707  0.97314656  1
  S  S33  1  0.08196238  0.50564341  0.00427927  1
  S  S34  1  0.66054022  0.44029585  0.90044253  1
  S  S35  1  0.33607711  0.46838367  0.10679990  1
  S  S36  1  0.59198841  0.94093906  0.67205037  1
  S  S37  1  0.43020992  0.97524027  0.36745585  1
  S  S38  1  0.25822617  0.51688710  0.28760460  1
  S  S39  1  0.76241618  0.50805734  0.67494082  1
  S  S40  1  0.66871899  0.97178599  0.43928510  1
  S  S41  1  0.32764476  0.07315352  0.53867457  1
