# generated using pymatgen
data_Pr2Mn3(SbS3)4
_symmetry_space_group_name_H-M   'P 1'
_cell_length_a   20.02960800
_cell_length_b   3.90410600
_cell_length_c   14.95364829
_cell_angle_alpha   90.00000000
_cell_angle_beta   126.33350609
_cell_angle_gamma   90.00000000
_symmetry_Int_Tables_number   1
_chemical_formula_structural   Pr2Mn3(SbS3)4
_chemical_formula_sum   'Pr4 Mn6 Sb8 S24'
_cell_volume   942.00006694
_cell_formula_units_Z   2
loop_
 _symmetry_equiv_pos_site_id
 _symmetry_equiv_pos_as_xyz
  1  'x, y, z'
loop_
 _atom_site_type_symbol
 _atom_site_label
 _atom_site_symmetry_multiplicity
 _atom_site_fract_x
 _atom_site_fract_y
 _atom_site_fract_z
 _atom_site_occupancy
  Pr  Pr0  1  0.26945285  0.49511034  0.86711832  1
  Pr  Pr1  1  0.73401626  0.51476880  0.13295174  1
  Pr  Pr2  1  0.76488560  0.02312632  0.86381531  1
  Pr  Pr3  1  0.23326991  0.99525923  0.13201996  1
  Mn  Mn4  1  0.29703651  0.47327115  0.59999360  1
  Mn  Mn5  1  0.68526631  0.46159704  0.36185192  1
  Mn  Mn6  1  0.00444345  0.98853919  0.01011246  1
  Mn  Mn7  1  0.79704352  0.00882994  0.61825503  1
  Mn  Mn8  1  0.19620229  0.97967037  0.36792214  1
  Mn  Mn9  1  0.48659355  0.46756755  0.98471644  1
  Sb  Sb10  1  0.88866775  0.98841577  0.45112606  1
  Sb  Sb11  1  0.10974617  0.98052501  0.54504880  1
  Sb  Sb12  1  0.03626115  0.52595627  0.82150270  1
  Sb  Sb13  1  0.96740656  0.49879546  0.19023586  1
  Sb  Sb14  1  0.39217732  0.50129814  0.44769724  1
  Sb  Sb15  1  0.60588267  0.47593285  0.54628632  1
  Sb  Sb16  1  0.53407620  0.98077806  0.80815771  1
  Sb  Sb17  1  0.46601473  0.01618538  0.19042628  1
  S  S18  1  0.93497683  0.01704411  0.80647007  1
  S  S19  1  0.06498530  0.00109766  0.19883890  1
  S  S20  1  0.41859871  0.95632038  0.99020245  1
  S  S21  1  0.58473037  0.02674117  0.01586249  1
  S  S22  1  0.17041505  0.05449265  0.90071835  1
  S  S23  1  0.82630062  0.03859200  0.10096198  1
  S  S24  1  0.09072975  0.49824049  0.64556385  1
  S  S25  1  0.91549210  0.48264670  0.35705733  1
  S  S26  1  0.74032491  0.98846917  0.30470371  1
  S  S27  1  0.26018073  0.01049708  0.71083402  1
  S  S28  1  0.16485962  0.52075031  0.43241460  1
  S  S29  1  0.81485500  0.49305778  0.54538509  1
  S  S30  1  0.43129137  0.46950905  0.79562016  1
  S  S31  1  0.55477284  0.52169341  0.18191592  1
  S  S32  1  0.91958208  0.50431514  0.98993023  1
  S  S33  1  0.09269390  0.49195135  0.03092413  1
  S  S34  1  0.66338377  0.55390563  0.89409739  1
  S  S35  1  0.32675576  0.48281113  0.09198043  1
  S  S36  1  0.59176309  0.99456723  0.65069194  1
  S  S37  1  0.39956084  0.98854150  0.34335101  1
  S  S38  1  0.24340833  0.46379552  0.31623545  1
  S  S39  1  0.75912485  0.52261960  0.68743508  1
  S  S40  1  0.66363959  0.99713340  0.44718146  1
  S  S41  1  0.33185751  0.97876183  0.55561366  1
