# generated using pymatgen
data_Pr2Mn3(SbS3)4
_symmetry_space_group_name_H-M   'P 1'
_cell_length_a   20.02960800
_cell_length_b   3.90410600
_cell_length_c   14.95364829
_cell_angle_alpha   90.00000000
_cell_angle_beta   126.33350609
_cell_angle_gamma   90.00000000
_symmetry_Int_Tables_number   1
_chemical_formula_structural   Pr2Mn3(SbS3)4
_chemical_formula_sum   'Pr4 Mn6 Sb8 S24'
_cell_volume   942.00006694
_cell_formula_units_Z   2
loop_
 _symmetry_equiv_pos_site_id
 _symmetry_equiv_pos_as_xyz
  1  'x, y, z'
loop_
 _atom_site_type_symbol
 _atom_site_label
 _atom_site_symmetry_multiplicity
 _atom_site_fract_x
 _atom_site_fract_y
 _atom_site_fract_z
 _atom_site_occupancy
  Pr  Pr0  1  0.25925153  0.48849709  0.86172600  1
  Pr  Pr1  1  0.72808871  0.54218427  0.13242624  1
  Pr  Pr2  1  0.76867300  0.97997719  0.88584893  1
  Pr  Pr3  1  0.24620774  0.98864787  0.14586896  1
  Mn  Mn4  1  0.28485522  0.56340021  0.58982496  1
  Mn  Mn5  1  0.69949227  0.47615478  0.38297703  1
  Mn  Mn6  1  0.99879896  0.96578199  0.99429475  1
  Mn  Mn7  1  0.79378751  0.01356697  0.59424942  1
  Mn  Mn8  1  0.19622027  0.90432265  0.41111169  1
  Mn  Mn9  1  0.50700932  0.50429081  0.01009496  1
  Sb  Sb10  1  0.89277190  0.98209368  0.44956378  1
  Sb  Sb11  1  0.11121820  0.03321310  0.55828586  1
  Sb  Sb12  1  0.01861696  0.53251872  0.79916854  1
  Sb  Sb13  1  0.97371390  0.49042379  0.18272307  1
  Sb  Sb14  1  0.39916910  0.48867755  0.46258561  1
  Sb  Sb15  1  0.60566963  0.44884348  0.57005484  1
  Sb  Sb16  1  0.53025200  0.98906723  0.82208972  1
  Sb  Sb17  1  0.46201697  0.99652100  0.17678663  1
  S  S18  1  0.92642250  0.00052637  0.76914626  1
  S  S19  1  0.05873500  0.98404126  0.18422297  1
  S  S20  1  0.42314215  0.00434030  0.98987929  1
  S  S21  1  0.58513659  0.00872550  0.02052682  1
  S  S22  1  0.17075625  0.98547048  0.89482916  1
  S  S23  1  0.83302276  0.02827756  0.10385176  1
  S  S24  1  0.09531024  0.46374755  0.66420361  1
  S  S25  1  0.90101163  0.48129365  0.34623401  1
  S  S26  1  0.73359133  0.96238930  0.30120111  1
  S  S27  1  0.26334924  0.94723262  0.69402379  1
  S  S28  1  0.15850004  0.41582841  0.43489899  1
  S  S29  1  0.83013661  0.45092060  0.53455725  1
  S  S30  1  0.43466749  0.46682974  0.81471824  1
  S  S31  1  0.57096214  0.46819547  0.20449190  1
  S  S32  1  0.91444426  0.49233705  0.97216162  1
  S  S33  1  0.08172648  0.50596125  0.00422259  1
  S  S34  1  0.66026973  0.44005930  0.90036920  1
  S  S35  1  0.33641886  0.46815636  0.10694020  1
  S  S36  1  0.59206063  0.94101355  0.67200160  1
  S  S37  1  0.43015917  0.97640392  0.36699074  1
  S  S38  1  0.25828246  0.51661998  0.28771829  1
  S  S39  1  0.76239897  0.50906849  0.67482713  1
  S  S40  1  0.66913485  0.97218368  0.43939955  1
  S  S41  1  0.32763298  0.07306130  0.53899761  1
