# generated using pymatgen
data_Pr2Mn3(SbS3)4
_symmetry_space_group_name_H-M   'P 1'
_cell_length_a   20.02960800
_cell_length_b   3.90410600
_cell_length_c   14.95364829
_cell_angle_alpha   90.00000000
_cell_angle_beta   126.33350609
_cell_angle_gamma   90.00000000
_symmetry_Int_Tables_number   1
_chemical_formula_structural   Pr2Mn3(SbS3)4
_chemical_formula_sum   'Pr4 Mn6 Sb8 S24'
_cell_volume   942.00006694
_cell_formula_units_Z   2
loop_
 _symmetry_equiv_pos_site_id
 _symmetry_equiv_pos_as_xyz
  1  'x, y, z'
loop_
 _atom_site_type_symbol
 _atom_site_label
 _atom_site_symmetry_multiplicity
 _atom_site_fract_x
 _atom_site_fract_y
 _atom_site_fract_z
 _atom_site_occupancy
  Pr  Pr0  1  0.25917586  0.48893908  0.86162479  1
  Pr  Pr1  1  0.72799759  0.54146034  0.13235056  1
  Pr  Pr2  1  0.76880665  0.98044574  0.88604861  1
  Pr  Pr3  1  0.24611733  0.98797638  0.14570173  1
  Mn  Mn4  1  0.28463340  0.56488203  0.58973613  1
  Mn  Mn5  1  0.69943247  0.47621004  0.38289114  1
  Mn  Mn6  1  0.99891305  0.96589404  0.99452752  1
  Mn  Mn7  1  0.79335813  0.01406197  0.59390652  1
  Mn  Mn8  1  0.19606550  0.90450747  0.41107764  1
  Mn  Mn9  1  0.50691246  0.50514048  0.01001298  1
  Sb  Sb10  1  0.89256220  0.98193316  0.44941866  1
  Sb  Sb11  1  0.11126018  0.03339678  0.55832779  1
  Sb  Sb12  1  0.01866677  0.53239538  0.79910887  1
  Sb  Sb13  1  0.97384818  0.49045315  0.18283376  1
  Sb  Sb14  1  0.39905678  0.48882440  0.46241385  1
  Sb  Sb15  1  0.60538435  0.44931795  0.56997167  1
  Sb  Sb16  1  0.53028614  0.98840292  0.82195308  1
  Sb  Sb17  1  0.46212962  0.99567336  0.17708337  1
  S  S18  1  0.92631041  0.00023494  0.76930844  1
  S  S19  1  0.05893353  0.98259387  0.18429777  1
  S  S20  1  0.42317735  0.00355884  0.99032506  1
  S  S21  1  0.58525674  0.00773480  0.02082534  1
  S  S22  1  0.17062778  0.98404097  0.89429401  1
  S  S23  1  0.83348300  0.02872785  0.10412121  1
  S  S24  1  0.09521587  0.46347308  0.66446866  1
  S  S25  1  0.90086201  0.48034378  0.34607421  1
  S  S26  1  0.73315413  0.96155504  0.30087641  1
  S  S27  1  0.26353004  0.94638160  0.69445706  1
  S  S28  1  0.15875827  0.41550769  0.43545117  1
  S  S29  1  0.83014532  0.45047508  0.53441846  1
  S  S30  1  0.43453867  0.46578673  0.81407296  1
  S  S31  1  0.57090222  0.46850557  0.20414463  1
  S  S32  1  0.91404066  0.49137746  0.97121647  1
  S  S33  1  0.08148615  0.50667166  0.00413587  1
  S  S34  1  0.66020377  0.43959329  0.90045888  1
  S  S35  1  0.33672901  0.46808256  0.10707875  1
  S  S36  1  0.59208069  0.94070111  0.67193388  1
  S  S37  1  0.43014208  0.97753692  0.36657204  1
  S  S38  1  0.25834651  0.51618131  0.28806644  1
  S  S39  1  0.76232184  0.51019161  0.67481352  1
  S  S40  1  0.66954964  0.97274117  0.43953967  1
  S  S41  1  0.32742899  0.07299072  0.53922162  1
