# generated using pymatgen
data_Pr2Mn3(SbS3)4
_symmetry_space_group_name_H-M   'P 1'
_cell_length_a   20.02960800
_cell_length_b   3.90410600
_cell_length_c   14.95364829
_cell_angle_alpha   90.00000000
_cell_angle_beta   126.33350609
_cell_angle_gamma   90.00000000
_symmetry_Int_Tables_number   1
_chemical_formula_structural   Pr2Mn3(SbS3)4
_chemical_formula_sum   'Pr4 Mn6 Sb8 S24'
_cell_volume   942.00006694
_cell_formula_units_Z   2
loop_
 _symmetry_equiv_pos_site_id
 _symmetry_equiv_pos_as_xyz
  1  'x, y, z'
loop_
 _atom_site_type_symbol
 _atom_site_label
 _atom_site_symmetry_multiplicity
 _atom_site_fract_x
 _atom_site_fract_y
 _atom_site_fract_z
 _atom_site_occupancy
  Pr  Pr0  1  0.25908517  0.48954322  0.86156018  1
  Pr  Pr1  1  0.72786835  0.54097171  0.13229201  1
  Pr  Pr2  1  0.76891616  0.98103692  0.88615946  1
  Pr  Pr3  1  0.24606027  0.98730778  0.14551271  1
  Mn  Mn4  1  0.28444074  0.56616344  0.58960753  1
  Mn  Mn5  1  0.69939519  0.47622856  0.38289953  1
  Mn  Mn6  1  0.99901618  0.96601924  0.99471395  1
  Mn  Mn7  1  0.79304067  0.01476301  0.59375810  1
  Mn  Mn8  1  0.19586282  0.90458486  0.41102650  1
  Mn  Mn9  1  0.50684227  0.50578441  0.01005227  1
  Sb  Sb10  1  0.89239137  0.98197777  0.44931295  1
  Sb  Sb11  1  0.11116258  0.03356818  0.55820981  1
  Sb  Sb12  1  0.01875471  0.53239261  0.79898331  1
  Sb  Sb13  1  0.97399693  0.49017675  0.18299714  1
  Sb  Sb14  1  0.39892100  0.48942199  0.46214290  1
  Sb  Sb15  1  0.60509416  0.44975532  0.56974925  1
  Sb  Sb16  1  0.53031121  0.98774876  0.82178976  1
  Sb  Sb17  1  0.46221569  0.99511930  0.17739755  1
  S  S18  1  0.92617478  0.99982243  0.76958231  1
  S  S19  1  0.05908379  0.98062450  0.18433048  1
  S  S20  1  0.42321580  0.00314828  0.99075719  1
  S  S21  1  0.58530509  0.00694766  0.02110469  1
  S  S22  1  0.17045798  0.98239122  0.89378406  1
  S  S23  1  0.83396177  0.02887469  0.10436390  1
  S  S24  1  0.09501752  0.46370048  0.66456892  1
  S  S25  1  0.90108663  0.47915500  0.34618518  1
  S  S26  1  0.73265492  0.96063192  0.30061492  1
  S  S27  1  0.26361187  0.94526300  0.69471131  1
  S  S28  1  0.15889216  0.41542174  0.43579136  1
  S  S29  1  0.82998685  0.44948527  0.53416176  1
  S  S30  1  0.43434813  0.46460009  0.81350269  1
  S  S31  1  0.57073435  0.46876837  0.20364075  1
  S  S32  1  0.91380385  0.49092645  0.97036758  1
  S  S33  1  0.08124448  0.50765804  0.00407223  1
  S  S34  1  0.66007291  0.43906809  0.90033989  1
  S  S35  1  0.33695963  0.46816305  0.10696028  1
  S  S36  1  0.59214576  0.93969679  0.67201390  1
  S  S37  1  0.43004088  0.97854941  0.36610844  1
  S  S38  1  0.25847287  0.51539196  0.28847177  1
  S  S39  1  0.76230972  0.51127387  0.67471390  1
  S  S40  1  0.66977881  0.97356957  0.43959502  1
  S  S41  1  0.32729036  0.07274451  0.53950901  1
