# generated using pymatgen
data_Pr2Mn3(SbS3)4
_symmetry_space_group_name_H-M   'P 1'
_cell_length_a   20.02960800
_cell_length_b   3.90410600
_cell_length_c   14.95364829
_cell_angle_alpha   90.00000000
_cell_angle_beta   126.33350609
_cell_angle_gamma   90.00000000
_symmetry_Int_Tables_number   1
_chemical_formula_structural   Pr2Mn3(SbS3)4
_chemical_formula_sum   'Pr4 Mn6 Sb8 S24'
_cell_volume   942.00006694
_cell_formula_units_Z   2
loop_
 _symmetry_equiv_pos_site_id
 _symmetry_equiv_pos_as_xyz
  1  'x, y, z'
loop_
 _atom_site_type_symbol
 _atom_site_label
 _atom_site_symmetry_multiplicity
 _atom_site_fract_x
 _atom_site_fract_y
 _atom_site_fract_z
 _atom_site_occupancy
  Pr  Pr0  1  0.25909320  0.49036590  0.86160686  1
  Pr  Pr1  1  0.72775228  0.54023143  0.13224723  1
  Pr  Pr2  1  0.76903425  0.98119990  0.88632871  1
  Pr  Pr3  1  0.24597336  0.98670836  0.14532906  1
  Mn  Mn4  1  0.28433198  0.56763976  0.58936281  1
  Mn  Mn5  1  0.69939049  0.47609765  0.38296734  1
  Mn  Mn6  1  0.99911023  0.96673465  0.99482649  1
  Mn  Mn7  1  0.79278550  0.01544002  0.59365206  1
  Mn  Mn8  1  0.19583939  0.90436046  0.41104998  1
  Mn  Mn9  1  0.50680426  0.50680811  0.01011902  1
  Sb  Sb10  1  0.89220251  0.98213872  0.44928160  1
  Sb  Sb11  1  0.11109900  0.03363335  0.55805173  1
  Sb  Sb12  1  0.01884819  0.53255150  0.79895364  1
  Sb  Sb13  1  0.97421208  0.48993225  0.18322124  1
  Sb  Sb14  1  0.39883979  0.48956206  0.46194820  1
  Sb  Sb15  1  0.60488431  0.44983576  0.56964606  1
  Sb  Sb16  1  0.53040430  0.98691605  0.82170239  1
  Sb  Sb17  1  0.46229545  0.99470289  0.17767772  1
  S  S18  1  0.92608055  0.99891324  0.76991683  1
  S  S19  1  0.05921302  0.97852351  0.18433907  1
  S  S20  1  0.42321992  0.00220391  0.99103488  1
  S  S21  1  0.58538771  0.00573059  0.02150022  1
  S  S22  1  0.17032042  0.98061409  0.89337461  1
  S  S23  1  0.83438575  0.02912945  0.10449829  1
  S  S24  1  0.09492531  0.46350886  0.66465927  1
  S  S25  1  0.90128012  0.47768305  0.34628684  1
  S  S26  1  0.73226911  0.96021918  0.30043829  1
  S  S27  1  0.26361445  0.94459053  0.69483400  1
  S  S28  1  0.15905870  0.41590287  0.43611481  1
  S  S29  1  0.82990893  0.44919083  0.53395843  1
  S  S30  1  0.43424486  0.46362999  0.81304524  1
  S  S31  1  0.57053999  0.46872202  0.20308289  1
  S  S32  1  0.91354831  0.49049980  0.96958718  1
  S  S33  1  0.08094469  0.50794499  0.00405656  1
  S  S34  1  0.65997134  0.43858250  0.90022534  1
  S  S35  1  0.33728427  0.46837329  0.10679876  1
  S  S36  1  0.59221834  0.93836228  0.67188389  1
  S  S37  1  0.42992362  0.97971515  0.36576185  1
  S  S38  1  0.25859364  0.51515925  0.28907710  1
  S  S39  1  0.76240776  0.51204407  0.67468615  1
  S  S40  1  0.67008201  0.97447644  0.43968437  1
  S  S41  1  0.32723881  0.07227834  0.53963796  1
