# generated using pymatgen
data_Pr2Mn3(SbS3)4
_symmetry_space_group_name_H-M   'P 1'
_cell_length_a   20.02960800
_cell_length_b   3.90410600
_cell_length_c   14.95364829
_cell_angle_alpha   90.00000000
_cell_angle_beta   126.33350609
_cell_angle_gamma   90.00000000
_symmetry_Int_Tables_number   1
_chemical_formula_structural   Pr2Mn3(SbS3)4
_chemical_formula_sum   'Pr4 Mn6 Sb8 S24'
_cell_volume   942.00006694
_cell_formula_units_Z   2
loop_
 _symmetry_equiv_pos_site_id
 _symmetry_equiv_pos_as_xyz
  1  'x, y, z'
loop_
 _atom_site_type_symbol
 _atom_site_label
 _atom_site_symmetry_multiplicity
 _atom_site_fract_x
 _atom_site_fract_y
 _atom_site_fract_z
 _atom_site_occupancy
  Pr  Pr0  1  0.25907968  0.49080756  0.86166070  1
  Pr  Pr1  1  0.72765923  0.53919884  0.13226624  1
  Pr  Pr2  1  0.76911874  0.98153420  0.88637688  1
  Pr  Pr3  1  0.24591542  0.98599405  0.14511616  1
  Mn  Mn4  1  0.28427079  0.56918754  0.58923693  1
  Mn  Mn5  1  0.69952578  0.47588416  0.38317652  1
  Mn  Mn6  1  0.99916066  0.96813465  0.99493315  1
  Mn  Mn7  1  0.79241734  0.01600915  0.59340279  1
  Mn  Mn8  1  0.19592701  0.90425621  0.41120202  1
  Mn  Mn9  1  0.50681423  0.50790826  0.01025014  1
  Sb  Sb10  1  0.89203452  0.98219849  0.44928450  1
  Sb  Sb11  1  0.11105586  0.03360303  0.55791186  1
  Sb  Sb12  1  0.01891171  0.53269980  0.79889629  1
  Sb  Sb13  1  0.97435328  0.48985091  0.18341961  1
  Sb  Sb14  1  0.39871986  0.48946601  0.46180645  1
  Sb  Sb15  1  0.60471231  0.45002126  0.56956848  1
  Sb  Sb16  1  0.53044809  0.98640818  0.82159315  1
  Sb  Sb17  1  0.46230081  0.99431886  0.17791312  1
  S  S18  1  0.92604834  0.99845965  0.77017336  1
  S  S19  1  0.05938948  0.97641236  0.18452639  1
  S  S20  1  0.42312076  0.00139325  0.99112046  1
  S  S21  1  0.58534686  0.00436434  0.02174454  1
  S  S22  1  0.17023176  0.97781633  0.89325188  1
  S  S23  1  0.83481831  0.02923015  0.10467350  1
  S  S24  1  0.09480505  0.46361433  0.66475142  1
  S  S25  1  0.90151772  0.47571033  0.34651305  1
  S  S26  1  0.73187691  0.95975518  0.30029406  1
  S  S27  1  0.26347166  0.94442248  0.69480710  1
  S  S28  1  0.15924018  0.41556079  0.43632595  1
  S  S29  1  0.82983101  0.44884966  0.53379075  1
  S  S30  1  0.43424995  0.46226027  0.81279582  1
  S  S31  1  0.57038117  0.46912974  0.20259465  1
  S  S32  1  0.91317621  0.49014903  0.96862790  1
  S  S33  1  0.08067550  0.50800905  0.00394549  1
  S  S34  1  0.65981415  0.43804158  0.90005013  1
  S  S35  1  0.33755322  0.46926717  0.10667242  1
  S  S36  1  0.59215154  0.93685757  0.67185713  1
  S  S37  1  0.42986422  0.98180254  0.36550536  1
  S  S38  1  0.25877498  0.51493781  0.28990427  1
  S  S39  1  0.76254464  0.51332365  0.67472661  1
  S  S40  1  0.67035288  0.97507897  0.43965116  1
  S  S41  1  0.32731278  0.07249807  0.53975294  1
