# generated using pymatgen
data_Pr2Mn3(SbS3)4
_symmetry_space_group_name_H-M   'P 1'
_cell_length_a   20.02960800
_cell_length_b   3.90410600
_cell_length_c   14.95364829
_cell_angle_alpha   90.00000000
_cell_angle_beta   126.33350609
_cell_angle_gamma   90.00000000
_symmetry_Int_Tables_number   1
_chemical_formula_structural   Pr2Mn3(SbS3)4
_chemical_formula_sum   'Pr4 Mn6 Sb8 S24'
_cell_volume   942.00006694
_cell_formula_units_Z   2
loop_
 _symmetry_equiv_pos_site_id
 _symmetry_equiv_pos_as_xyz
  1  'x, y, z'
loop_
 _atom_site_type_symbol
 _atom_site_label
 _atom_site_symmetry_multiplicity
 _atom_site_fract_x
 _atom_site_fract_y
 _atom_site_fract_z
 _atom_site_occupancy
  Pr  Pr0  1  0.25903679  0.49128833  0.86171328  1
  Pr  Pr1  1  0.72762998  0.53786740  0.13219017  1
  Pr  Pr2  1  0.76927806  0.98175297  0.88644426  1
  Pr  Pr3  1  0.24589228  0.98534379  0.14483339  1
  Mn  Mn4  1  0.28427500  0.57016693  0.58916217  1
  Mn  Mn5  1  0.69960570  0.47538890  0.38343565  1
  Mn  Mn6  1  0.99923945  0.96939749  0.99511750  1
  Mn  Mn7  1  0.79215506  0.01656482  0.59320771  1
  Mn  Mn8  1  0.19597517  0.90428181  0.41128690  1
  Mn  Mn9  1  0.50694959  0.50905917  0.01048596  1
  Sb  Sb10  1  0.89185443  0.98228439  0.44926360  1
  Sb  Sb11  1  0.11103039  0.03376028  0.55773400  1
  Sb  Sb12  1  0.01892946  0.53305289  0.79878730  1
  Sb  Sb13  1  0.97444985  0.48958210  0.18357286  1
  Sb  Sb14  1  0.39855607  0.48951291  0.46166919  1
  Sb  Sb15  1  0.60451068  0.45029909  0.56946366  1
  Sb  Sb16  1  0.53053888  0.98610245  0.82147003  1
  Sb  Sb17  1  0.46234567  0.99404803  0.17819632  1
  S  S18  1  0.92614548  0.99797003  0.77056891  1
  S  S19  1  0.05947800  0.97468896  0.18458481  1
  S  S20  1  0.42300804  0.00053162  0.99131123  1
  S  S21  1  0.58535105  0.00330633  0.02196043  1
  S  S22  1  0.17019921  0.97528770  0.89310115  1
  S  S23  1  0.83513475  0.02889290  0.10465648  1
  S  S24  1  0.09469496  0.46323550  0.66486359  1
  S  S25  1  0.90168347  0.47434769  0.34670625  1
  S  S26  1  0.73138812  0.95888301  0.29994517  1
  S  S27  1  0.26332398  0.94482372  0.69469680  1
  S  S28  1  0.15937421  0.41546215  0.43649378  1
  S  S29  1  0.82993428  0.44870942  0.53372698  1
  S  S30  1  0.43423555  0.46067915  0.81271248  1
  S  S31  1  0.57020220  0.46835067  0.20198779  1
  S  S32  1  0.91271398  0.48989336  0.96763978  1
  S  S33  1  0.08047107  0.50853928  0.00386506  1
  S  S34  1  0.65948054  0.43736106  0.89974853  1
  S  S35  1  0.33791171  0.47031069  0.10681651  1
  S  S36  1  0.59232710  0.93601394  0.67217199  1
  S  S37  1  0.42977705  0.98382822  0.36526754  1
  S  S38  1  0.25901509  0.51482274  0.29070986  1
  S  S39  1  0.76252887  0.51417257  0.67477735  1
  S  S40  1  0.67075658  0.97661776  0.43976963  1
  S  S41  1  0.32742530  0.07273098  0.53985556  1
