# generated using pymatgen
data_Pr2Mn3(SbS3)4
_symmetry_space_group_name_H-M   'P 1'
_cell_length_a   20.02960800
_cell_length_b   3.90410600
_cell_length_c   14.95364829
_cell_angle_alpha   90.00000000
_cell_angle_beta   126.33350609
_cell_angle_gamma   90.00000000
_symmetry_Int_Tables_number   1
_chemical_formula_structural   Pr2Mn3(SbS3)4
_chemical_formula_sum   'Pr4 Mn6 Sb8 S24'
_cell_volume   942.00006694
_cell_formula_units_Z   2
loop_
 _symmetry_equiv_pos_site_id
 _symmetry_equiv_pos_as_xyz
  1  'x, y, z'
loop_
 _atom_site_type_symbol
 _atom_site_label
 _atom_site_symmetry_multiplicity
 _atom_site_fract_x
 _atom_site_fract_y
 _atom_site_fract_z
 _atom_site_occupancy
  Pr  Pr0  1  0.25900135  0.49169591  0.86169956  1
  Pr  Pr1  1  0.72769814  0.53674738  0.13215498  1
  Pr  Pr2  1  0.76940140  0.98162681  0.88648723  1
  Pr  Pr3  1  0.24587619  0.98452001  0.14463185  1
  Mn  Mn4  1  0.28420208  0.57091124  0.58891102  1
  Mn  Mn5  1  0.69957553  0.47496637  0.38367751  1
  Mn  Mn6  1  0.99939082  0.97031443  0.99540068  1
  Mn  Mn7  1  0.79198307  0.01731395  0.59306413  1
  Mn  Mn8  1  0.19601025  0.90426477  0.41127425  1
  Mn  Mn9  1  0.50713698  0.51017539  0.01072757  1
  Sb  Sb10  1  0.89168797  0.98211966  0.44922972  1
  Sb  Sb11  1  0.11102764  0.03353419  0.55755768  1
  Sb  Sb12  1  0.01897696  0.53380827  0.79868449  1
  Sb  Sb13  1  0.97452241  0.48916619  0.18369956  1
  Sb  Sb14  1  0.39837644  0.48920343  0.46146878  1
  Sb  Sb15  1  0.60433018  0.45048530  0.56939577  1
  Sb  Sb16  1  0.53070612  0.98588727  0.82139329  1
  Sb  Sb17  1  0.46238562  0.99397833  0.17840224  1
  S  S18  1  0.92622644  0.99823871  0.77095899  1
  S  S19  1  0.05969869  0.97352725  0.18486904  1
  S  S20  1  0.42309887  0.99988933  0.99167368  1
  S  S21  1  0.58527492  0.00170495  0.02192700  1
  S  S22  1  0.17004818  0.97262688  0.89293295  1
  S  S23  1  0.83543692  0.02784039  0.10476472  1
  S  S24  1  0.09455125  0.46313012  0.66491196  1
  S  S25  1  0.90164973  0.47296086  0.34660738  1
  S  S26  1  0.73109925  0.95794593  0.29986879  1
  S  S27  1  0.26316496  0.94542985  0.69468584  1
  S  S28  1  0.15950998  0.41532931  0.43674563  1
  S  S29  1  0.83021731  0.44909098  0.53379545  1
  S  S30  1  0.43435903  0.45977926  0.81275470  1
  S  S31  1  0.57005355  0.46785337  0.20165217  1
  S  S32  1  0.91232880  0.48968966  0.96682553  1
  S  S33  1  0.08031207  0.50909108  0.00392637  1
  S  S34  1  0.65928145  0.43708602  0.89957565  1
  S  S35  1  0.33827215  0.47120990  0.10714189  1
  S  S36  1  0.59257880  0.93523660  0.67231527  1
  S  S37  1  0.42983825  0.98516890  0.36517685  1
  S  S38  1  0.25924131  0.51494132  0.29129374  1
  S  S39  1  0.76267094  0.51516510  0.67488759  1
  S  S40  1  0.67110739  0.97801832  0.43967408  1
  S  S41  1  0.32738078  0.07336619  0.53999911  1
