# generated using pymatgen
data_Pr2Mn3(SbS3)4
_symmetry_space_group_name_H-M   'P 1'
_cell_length_a   20.02960800
_cell_length_b   3.90410600
_cell_length_c   14.95364829
_cell_angle_alpha   90.00000000
_cell_angle_beta   126.33350609
_cell_angle_gamma   90.00000000
_symmetry_Int_Tables_number   1
_chemical_formula_structural   Pr2Mn3(SbS3)4
_chemical_formula_sum   'Pr4 Mn6 Sb8 S24'
_cell_volume   942.00006694
_cell_formula_units_Z   2
loop_
 _symmetry_equiv_pos_site_id
 _symmetry_equiv_pos_as_xyz
  1  'x, y, z'
loop_
 _atom_site_type_symbol
 _atom_site_label
 _atom_site_symmetry_multiplicity
 _atom_site_fract_x
 _atom_site_fract_y
 _atom_site_fract_z
 _atom_site_occupancy
  Pr  Pr0  1  0.25893126  0.49192489  0.86161415  1
  Pr  Pr1  1  0.72772651  0.53565258  0.13201868  1
  Pr  Pr2  1  0.76944598  0.98129436  0.88654094  1
  Pr  Pr3  1  0.24582829  0.98376206  0.14445300  1
  Mn  Mn4  1  0.28417004  0.57138576  0.58879333  1
  Mn  Mn5  1  0.69961926  0.47435306  0.38393712  1
  Mn  Mn6  1  0.99951368  0.97141772  0.99571813  1
  Mn  Mn7  1  0.79186068  0.01790557  0.59291530  1
  Mn  Mn8  1  0.19598543  0.90428646  0.41116293  1
  Mn  Mn9  1  0.50727702  0.51100384  0.01085047  1
  Sb  Sb10  1  0.89153599  0.98208031  0.44919768  1
  Sb  Sb11  1  0.11098446  0.03299585  0.55727720  1
  Sb  Sb12  1  0.01903445  0.53460331  0.79859326  1
  Sb  Sb13  1  0.97463853  0.48868618  0.18388229  1
  Sb  Sb14  1  0.39829040  0.48912441  0.46145887  1
  Sb  Sb15  1  0.60410217  0.45029589  0.56930525  1
  Sb  Sb16  1  0.53091442  0.98601418  0.82132638  1
  Sb  Sb17  1  0.46243096  0.99388084  0.17863219  1
  S  S18  1  0.92619416  0.99840006  0.77118838  1
  S  S19  1  0.06006416  0.97229788  0.18533070  1
  S  S20  1  0.42314937  0.99914383  0.99186116  1
  S  S21  1  0.58514505  0.00073374  0.02188418  1
  S  S22  1  0.16987217  0.97029988  0.89276527  1
  S  S23  1  0.83558535  0.02736300  0.10464408  1
  S  S24  1  0.09455919  0.46302017  0.66502033  1
  S  S25  1  0.90159267  0.47155887  0.34643960  1
  S  S26  1  0.73066245  0.95733988  0.29969864  1
  S  S27  1  0.26300510  0.94591732  0.69483221  1
  S  S28  1  0.15963563  0.41486770  0.43695747  1
  S  S29  1  0.83041383  0.44955939  0.53377506  1
  S  S30  1  0.43437923  0.45929417  0.81269802  1
  S  S31  1  0.56997565  0.46636807  0.20118835  1
  S  S32  1  0.91181765  0.48972125  0.96583970  1
  S  S33  1  0.08015709  0.51001914  0.00411522  1
  S  S34  1  0.65905536  0.43689714  0.89941462  1
  S  S35  1  0.33863602  0.47247328  0.10752017  1
  S  S36  1  0.59280455  0.93454608  0.67243211  1
  S  S37  1  0.42989760  0.98603205  0.36509112  1
  S  S38  1  0.25947484  0.51450847  0.29180987  1
  S  S39  1  0.76277676  0.51520355  0.67504061  1
  S  S40  1  0.67153503  0.97970593  0.43967863  1
  S  S41  1  0.32743202  0.07386515  0.54026175  1
