# generated using pymatgen
data_Pr2Mn3(SbS3)4
_symmetry_space_group_name_H-M   'P 1'
_cell_length_a   20.02960800
_cell_length_b   3.90410600
_cell_length_c   14.95364829
_cell_angle_alpha   90.00000000
_cell_angle_beta   126.33350609
_cell_angle_gamma   90.00000000
_symmetry_Int_Tables_number   1
_chemical_formula_structural   Pr2Mn3(SbS3)4
_chemical_formula_sum   'Pr4 Mn6 Sb8 S24'
_cell_volume   942.00006694
_cell_formula_units_Z   2
loop_
 _symmetry_equiv_pos_site_id
 _symmetry_equiv_pos_as_xyz
  1  'x, y, z'
loop_
 _atom_site_type_symbol
 _atom_site_label
 _atom_site_symmetry_multiplicity
 _atom_site_fract_x
 _atom_site_fract_y
 _atom_site_fract_z
 _atom_site_occupancy
  Pr  Pr0  1  0.25882936  0.49224514  0.86154267  1
  Pr  Pr1  1  0.72773181  0.53476861  0.13193045  1
  Pr  Pr2  1  0.76953894  0.98082072  0.88663307  1
  Pr  Pr3  1  0.24580591  0.98294775  0.14427061  1
  Mn  Mn4  1  0.28419417  0.57142583  0.58875847  1
  Mn  Mn5  1  0.69963531  0.47370640  0.38417708  1
  Mn  Mn6  1  0.99955975  0.97250536  0.99592684  1
  Mn  Mn7  1  0.79168141  0.01848469  0.59266406  1
  Mn  Mn8  1  0.19601727  0.90401567  0.41116955  1
  Mn  Mn9  1  0.50738538  0.51194420  0.01111629  1
  Sb  Sb10  1  0.89142157  0.98196007  0.44907931  1
  Sb  Sb11  1  0.11099613  0.03261666  0.55713749  1
  Sb  Sb12  1  0.01911089  0.53524689  0.79850769  1
  Sb  Sb13  1  0.97471160  0.48780559  0.18399727  1
  Sb  Sb14  1  0.39828878  0.48890377  0.46145331  1
  Sb  Sb15  1  0.60392231  0.45024322  0.56928981  1
  Sb  Sb16  1  0.53116302  0.98589599  0.82140724  1
  Sb  Sb17  1  0.46243648  0.99386928  0.17882463  1
  S  S18  1  0.92614867  0.99885112  0.77139114  1
  S  S19  1  0.06025703  0.97089658  0.18575652  1
  S  S20  1  0.42317903  0.99856395  0.99212594  1
  S  S21  1  0.58508963  0.99968620  0.02178523  1
  S  S22  1  0.16971523  0.96826634  0.89277723  1
  S  S23  1  0.83568078  0.02644090  0.10451222  1
  S  S24  1  0.09463324  0.46323934  0.66518420  1
  S  S25  1  0.90153142  0.47077253  0.34612721  1
  S  S26  1  0.73020938  0.95642595  0.29928889  1
  S  S27  1  0.26282453  0.94619218  0.69506357  1
  S  S28  1  0.15977287  0.41411591  0.43718282  1
  S  S29  1  0.83061709  0.44974048  0.53376179  1
  S  S30  1  0.43432060  0.45964138  0.81260527  1
  S  S31  1  0.56966947  0.46493441  0.20057482  1
  S  S32  1  0.91127230  0.49042321  0.96493031  1
  S  S33  1  0.08001067  0.51048877  0.00422046  1
  S  S34  1  0.65871748  0.43637584  0.89920820  1
  S  S35  1  0.33879197  0.47356004  0.10774840  1
  S  S36  1  0.59288383  0.93388132  0.67256285  1
  S  S37  1  0.42992867  0.98731739  0.36496421  1
  S  S38  1  0.25968682  0.51421920  0.29242724  1
  S  S39  1  0.76266099  0.51527394  0.67488024  1
  S  S40  1  0.67170512  0.98091493  0.43949529  1
  S  S41  1  0.32740930  0.07424856  0.54043543  1
