# generated using pymatgen
data_Pr2Mn3(SbS3)4
_symmetry_space_group_name_H-M   'P 1'
_cell_length_a   20.02960800
_cell_length_b   3.90410600
_cell_length_c   14.95364829
_cell_angle_alpha   90.00000000
_cell_angle_beta   126.33350609
_cell_angle_gamma   90.00000000
_symmetry_Int_Tables_number   1
_chemical_formula_structural   Pr2Mn3(SbS3)4
_chemical_formula_sum   'Pr4 Mn6 Sb8 S24'
_cell_volume   942.00006694
_cell_formula_units_Z   2
loop_
 _symmetry_equiv_pos_site_id
 _symmetry_equiv_pos_as_xyz
  1  'x, y, z'
loop_
 _atom_site_type_symbol
 _atom_site_label
 _atom_site_symmetry_multiplicity
 _atom_site_fract_x
 _atom_site_fract_y
 _atom_site_fract_z
 _atom_site_occupancy
  Pr  Pr0  1  0.25874187  0.49271920  0.86155125  1
  Pr  Pr1  1  0.72774568  0.53422364  0.13178842  1
  Pr  Pr2  1  0.76965927  0.98042899  0.88672981  1
  Pr  Pr3  1  0.24577156  0.98234770  0.14408560  1
  Mn  Mn4  1  0.28428649  0.57157938  0.58882240  1
  Mn  Mn5  1  0.69952144  0.47294291  0.38436513  1
  Mn  Mn6  1  0.99945332  0.97338884  0.99590930  1
  Mn  Mn7  1  0.79144042  0.01922368  0.59244531  1
  Mn  Mn8  1  0.19605963  0.90351351  0.41112691  1
  Mn  Mn9  1  0.50749270  0.51305158  0.01134384  1
  Sb  Sb10  1  0.89131957  0.98182447  0.44899102  1
  Sb  Sb11  1  0.11102175  0.03224331  0.55699496  1
  Sb  Sb12  1  0.01910570  0.53569993  0.79839026  1
  Sb  Sb13  1  0.97480252  0.48714919  0.18410686  1
  Sb  Sb14  1  0.39828123  0.48848767  0.46145640  1
  Sb  Sb15  1  0.60378827  0.45067102  0.56926825  1
  Sb  Sb16  1  0.53136591  0.98601869  0.82143956  1
  Sb  Sb17  1  0.46244016  0.99377987  0.17905406  1
  S  S18  1  0.92615918  0.99954276  0.77164908  1
  S  S19  1  0.06039648  0.97023410  0.18625285  1
  S  S20  1  0.42314279  0.99769838  0.99214513  1
  S  S21  1  0.58503860  0.99872828  0.02169359  1
  S  S22  1  0.16951094  0.96648352  0.89270456  1
  S  S23  1  0.83574068  0.02611579  0.10448894  1
  S  S24  1  0.09467246  0.46357124  0.66527760  1
  S  S25  1  0.90141392  0.47032534  0.34570391  1
  S  S26  1  0.72990409  0.95569511  0.29921156  1
  S  S27  1  0.26268198  0.94623617  0.69541885  1
  S  S28  1  0.15984481  0.41282951  0.43727442  1
  S  S29  1  0.83080018  0.44997273  0.53383330  1
  S  S30  1  0.43434056  0.45999170  0.81265176  1
  S  S31  1  0.56944183  0.46335141  0.19993569  1
  S  S32  1  0.91094837  0.49119596  0.96421842  1
  S  S33  1  0.07967121  0.51064028  0.00414884  1
  S  S34  1  0.65865595  0.43581089  0.89910349  1
  S  S35  1  0.33907683  0.47356526  0.10806415  1
  S  S36  1  0.59303749  0.93302249  0.67249818  1
  S  S37  1  0.42996307  0.98831516  0.36491411  1
  S  S38  1  0.25991256  0.51412587  0.29311752  1
  S  S39  1  0.76265017  0.51501952  0.67495886  1
  S  S40  1  0.67156483  0.98127737  0.43911592  1
  S  S41  1  0.32755108  0.07470452  0.54081598  1
