# generated using pymatgen
data_Pr2Mn3(SbS3)4
_symmetry_space_group_name_H-M   'P 1'
_cell_length_a   20.02960800
_cell_length_b   3.90410600
_cell_length_c   14.95364829
_cell_angle_alpha   90.00000000
_cell_angle_beta   126.33350609
_cell_angle_gamma   90.00000000
_symmetry_Int_Tables_number   1
_chemical_formula_structural   Pr2Mn3(SbS3)4
_chemical_formula_sum   'Pr4 Mn6 Sb8 S24'
_cell_volume   942.00006694
_cell_formula_units_Z   2
loop_
 _symmetry_equiv_pos_site_id
 _symmetry_equiv_pos_as_xyz
  1  'x, y, z'
loop_
 _atom_site_type_symbol
 _atom_site_label
 _atom_site_symmetry_multiplicity
 _atom_site_fract_x
 _atom_site_fract_y
 _atom_site_fract_z
 _atom_site_occupancy
  Pr  Pr0  1  0.26941321  0.49515397  0.86700051  1
  Pr  Pr1  1  0.73401688  0.51498645  0.13299737  1
  Pr  Pr2  1  0.76500847  0.02310562  0.86398573  1
  Pr  Pr3  1  0.23323048  0.99488126  0.13220016  1
  Mn  Mn4  1  0.29721490  0.47239122  0.60018049  1
  Mn  Mn5  1  0.68507322  0.46163120  0.36146970  1
  Mn  Mn6  1  0.00446437  0.98840036  0.01016808  1
  Mn  Mn7  1  0.79699688  0.00976442  0.61836112  1
  Mn  Mn8  1  0.19605465  0.98041910  0.36769930  1
  Mn  Mn9  1  0.48646091  0.46756789  0.98453851  1
  Sb  Sb10  1  0.88875296  0.98851623  0.45104687  1
  Sb  Sb11  1  0.10980561  0.98063116  0.54506514  1
  Sb  Sb12  1  0.03628539  0.52631045  0.82174878  1
  Sb  Sb13  1  0.96743614  0.49934063  0.19018304  1
  Sb  Sb14  1  0.39223759  0.50162565  0.44779005  1
  Sb  Sb15  1  0.60594388  0.47607028  0.54613794  1
  Sb  Sb16  1  0.53406574  0.98027882  0.80809491  1
  Sb  Sb17  1  0.46606596  0.01689286  0.19038260  1
  S  S18  1  0.93507657  0.01613791  0.80646261  1
  S  S19  1  0.06506444  0.00256899  0.19874257  1
  S  S20  1  0.41832106  0.95738099  0.99020607  1
  S  S21  1  0.58492853  0.02679579  0.01602517  1
  S  S22  1  0.17060590  0.05381311  0.90074770  1
  S  S23  1  0.82634263  0.03853743  0.10093821  1
  S  S24  1  0.09086406  0.49723115  0.64569955  1
  S  S25  1  0.91531094  0.48265357  0.35664609  1
  S  S26  1  0.74044738  0.98834370  0.30469985  1
  S  S27  1  0.26009921  0.01079521  0.71045433  1
  S  S28  1  0.16486000  0.52151534  0.43234482  1
  S  S29  1  0.81455685  0.49428872  0.54503844  1
  S  S30  1  0.43110998  0.46919384  0.79559165  1
  S  S31  1  0.55479902  0.52150501  0.18200044  1
  S  S32  1  0.91977046  0.50496316  0.99011336  1
  S  S33  1  0.09255746  0.49290887  0.03051292  1
  S  S34  1  0.66355389  0.55428695  0.89422403  1
  S  S35  1  0.32699756  0.48194402  0.09198859  1
  S  S36  1  0.59154986  0.99367954  0.65065573  1
  S  S37  1  0.39940268  0.98743039  0.34312298  1
  S  S38  1  0.24353702  0.46383312  0.31633813  1
  S  S39  1  0.75916552  0.52295393  0.68750462  1
  S  S40  1  0.66353403  0.99609359  0.44699676  1
  S  S41  1  0.33180986  0.97963861  0.55565261  1
