# generated using pymatgen
data_Pr2Mn3(SbS3)4
_symmetry_space_group_name_H-M   'P 1'
_cell_length_a   20.02960800
_cell_length_b   3.90410600
_cell_length_c   14.95364829
_cell_angle_alpha   90.00000000
_cell_angle_beta   126.33350609
_cell_angle_gamma   90.00000000
_symmetry_Int_Tables_number   1
_chemical_formula_structural   Pr2Mn3(SbS3)4
_chemical_formula_sum   'Pr4 Mn6 Sb8 S24'
_cell_volume   942.00006694
_cell_formula_units_Z   2
loop_
 _symmetry_equiv_pos_site_id
 _symmetry_equiv_pos_as_xyz
  1  'x, y, z'
loop_
 _atom_site_type_symbol
 _atom_site_label
 _atom_site_symmetry_multiplicity
 _atom_site_fract_x
 _atom_site_fract_y
 _atom_site_fract_z
 _atom_site_occupancy
  Pr  Pr0  1  0.25868325  0.49311461  0.86157694  1
  Pr  Pr1  1  0.72777648  0.53396709  0.13163835  1
  Pr  Pr2  1  0.76970446  0.98019724  0.88677994  1
  Pr  Pr3  1  0.24580950  0.98192728  0.14406648  1
  Mn  Mn4  1  0.28444588  0.57204360  0.58884540  1
  Mn  Mn5  1  0.69942157  0.47254796  0.38459449  1
  Mn  Mn6  1  0.99933205  0.97415075  0.99598436  1
  Mn  Mn7  1  0.79110027  0.01978515  0.59219067  1
  Mn  Mn8  1  0.19604784  0.90298679  0.41109670  1
  Mn  Mn9  1  0.50769578  0.51382771  0.01161115  1
  Sb  Sb10  1  0.89114673  0.98170287  0.44895331  1
  Sb  Sb11  1  0.11104624  0.03192947  0.55690882  1
  Sb  Sb12  1  0.01909979  0.53637241  0.79832229  1
  Sb  Sb13  1  0.97499353  0.48650722  0.18432245  1
  Sb  Sb14  1  0.39830979  0.48809653  0.46132661  1
  Sb  Sb15  1  0.60371392  0.45105663  0.56921594  1
  Sb  Sb16  1  0.53148088  0.98609887  0.82137791  1
  Sb  Sb17  1  0.46238840  0.99376434  0.17924087  1
  S  S18  1  0.92591238  0.00027213  0.77167649  1
  S  S19  1  0.06061657  0.97011129  0.18697288  1
  S  S20  1  0.42292623  0.99714302  0.99200447  1
  S  S21  1  0.58492680  0.99752126  0.02152993  1
  S  S22  1  0.16941272  0.96478721  0.89280347  1
  S  S23  1  0.83594062  0.02526976  0.10467033  1
  S  S24  1  0.09472228  0.46317637  0.66519418  1
  S  S25  1  0.90130949  0.47032266  0.34547883  1
  S  S26  1  0.72950893  0.95496471  0.29880188  1
  S  S27  1  0.26264687  0.94612553  0.69575187  1
  S  S28  1  0.15987949  0.41175246  0.43736802  1
  S  S29  1  0.83103391  0.45102933  0.53392040  1
  S  S30  1  0.43445890  0.46014910  0.81255004  1
  S  S31  1  0.56931590  0.46164815  0.19946505  1
  S  S32  1  0.91070948  0.49208780  0.96368367  1
  S  S33  1  0.07933967  0.51055512  0.00410080  1
  S  S34  1  0.65871721  0.43603207  0.89909485  1
  S  S35  1  0.33948276  0.47461933  0.10860776  1
  S  S36  1  0.59329178  0.93267600  0.67247022  1
  S  S37  1  0.42976668  0.98971802  0.36462427  1
  S  S38  1  0.26004949  0.51390111  0.29382546  1
  S  S39  1  0.76252272  0.51485242  0.67488607  1
  S  S40  1  0.67133419  0.98185970  0.43877010  1
  S  S41  1  0.32768952  0.07464569  0.54102241  1
