# generated using pymatgen
data_Pr2Mn3(SbS3)4
_symmetry_space_group_name_H-M   'P 1'
_cell_length_a   20.02960800
_cell_length_b   3.90410600
_cell_length_c   14.95364829
_cell_angle_alpha   90.00000000
_cell_angle_beta   126.33350609
_cell_angle_gamma   90.00000000
_symmetry_Int_Tables_number   1
_chemical_formula_structural   Pr2Mn3(SbS3)4
_chemical_formula_sum   'Pr4 Mn6 Sb8 S24'
_cell_volume   942.00006694
_cell_formula_units_Z   2
loop_
 _symmetry_equiv_pos_site_id
 _symmetry_equiv_pos_as_xyz
  1  'x, y, z'
loop_
 _atom_site_type_symbol
 _atom_site_label
 _atom_site_symmetry_multiplicity
 _atom_site_fract_x
 _atom_site_fract_y
 _atom_site_fract_z
 _atom_site_occupancy
  Pr  Pr0  1  0.25862820  0.49332047  0.86159669  1
  Pr  Pr1  1  0.72783253  0.53383475  0.13155216  1
  Pr  Pr2  1  0.76975070  0.97962200  0.88678888  1
  Pr  Pr3  1  0.24580562  0.98149943  0.14408604  1
  Mn  Mn4  1  0.28466416  0.57268536  0.58883825  1
  Mn  Mn5  1  0.69945720  0.47221321  0.38488307  1
  Mn  Mn6  1  0.99911847  0.97491615  0.99606080  1
  Mn  Mn7  1  0.79081294  0.02082556  0.59203737  1
  Mn  Mn8  1  0.19621120  0.90217781  0.41120145  1
  Mn  Mn9  1  0.50787248  0.51406262  0.01190163  1
  Sb  Sb10  1  0.89094927  0.98166098  0.44887616  1
  Sb  Sb11  1  0.11104657  0.03174677  0.55675958  1
  Sb  Sb12  1  0.01915891  0.53709576  0.79825623  1
  Sb  Sb13  1  0.97507966  0.48570851  0.18443539  1
  Sb  Sb14  1  0.39846178  0.48758077  0.46133144  1
  Sb  Sb15  1  0.60366899  0.45133899  0.56918751  1
  Sb  Sb16  1  0.53169069  0.98621823  0.82148478  1
  Sb  Sb17  1  0.46231134  0.99346938  0.17935325  1
  S  S18  1  0.92581128  0.00064544  0.77178086  1
  S  S19  1  0.06074508  0.96977088  0.18736514  1
  S  S20  1  0.42273323  0.99592310  0.99176791  1
  S  S21  1  0.58467834  0.99621222  0.02130334  1
  S  S22  1  0.16948280  0.96275606  0.89296047  1
  S  S23  1  0.83609578  0.02427385  0.10466427  1
  S  S24  1  0.09471631  0.46331900  0.66486219  1
  S  S25  1  0.90119553  0.47000055  0.34525334  1
  S  S26  1  0.72909108  0.95422137  0.29827911  1
  S  S27  1  0.26259620  0.94599145  0.69612007  1
  S  S28  1  0.15984194  0.41107546  0.43742995  1
  S  S29  1  0.83135953  0.45215310  0.53411251  1
  S  S30  1  0.43467838  0.46025926  0.81249223  1
  S  S31  1  0.56939052  0.46005207  0.19926994  1
  S  S32  1  0.91057218  0.49240499  0.96354185  1
  S  S33  1  0.07918331  0.50983233  0.00421325  1
  S  S34  1  0.65890512  0.43678436  0.89893743  1
  S  S35  1  0.33985121  0.47567215  0.10895978  1
  S  S36  1  0.59359228  0.93248296  0.67246420  1
  S  S37  1  0.42968691  0.99068265  0.36450330  1
  S  S38  1  0.26011815  0.51355648  0.29444723  1
  S  S39  1  0.76240189  0.51424106  0.67496369  1
  S  S40  1  0.67119920  0.98263605  0.43866229  1
  S  S41  1  0.32774158  0.07499118  0.54108426  1
