# generated using pymatgen
data_Pr2Mn3(SbS3)4
_symmetry_space_group_name_H-M   'P 1'
_cell_length_a   20.02960800
_cell_length_b   3.90410600
_cell_length_c   14.95364829
_cell_angle_alpha   90.00000000
_cell_angle_beta   126.33350609
_cell_angle_gamma   90.00000000
_symmetry_Int_Tables_number   1
_chemical_formula_structural   Pr2Mn3(SbS3)4
_chemical_formula_sum   'Pr4 Mn6 Sb8 S24'
_cell_volume   942.00006694
_cell_formula_units_Z   2
loop_
 _symmetry_equiv_pos_site_id
 _symmetry_equiv_pos_as_xyz
  1  'x, y, z'
loop_
 _atom_site_type_symbol
 _atom_site_label
 _atom_site_symmetry_multiplicity
 _atom_site_fract_x
 _atom_site_fract_y
 _atom_site_fract_z
 _atom_site_occupancy
  Pr  Pr0  1  0.25852221  0.49360844  0.86165467  1
  Pr  Pr1  1  0.72790974  0.53364574  0.13159303  1
  Pr  Pr2  1  0.76978262  0.97939334  0.88680325  1
  Pr  Pr3  1  0.24578550  0.98095657  0.14407348  1
  Mn  Mn4  1  0.28485503  0.57328636  0.58874172  1
  Mn  Mn5  1  0.69961159  0.47200628  0.38530378  1
  Mn  Mn6  1  0.99900377  0.97561090  0.99626837  1
  Mn  Mn7  1  0.79056076  0.02258799  0.59196629  1
  Mn  Mn8  1  0.19627698  0.90145181  0.41126548  1
  Mn  Mn9  1  0.50800399  0.51424467  0.01223354  1
  Sb  Sb10  1  0.89081849  0.98147748  0.44882458  1
  Sb  Sb11  1  0.11108282  0.03147864  0.55673785  1
  Sb  Sb12  1  0.01927951  0.53764460  0.79832094  1
  Sb  Sb13  1  0.97516409  0.48505325  0.18447036  1
  Sb  Sb14  1  0.39874753  0.48730841  0.46146353  1
  Sb  Sb15  1  0.60360323  0.45192596  0.56913667  1
  Sb  Sb16  1  0.53185280  0.98631166  0.82160329  1
  Sb  Sb17  1  0.46218145  0.99334050  0.17948814  1
  S  S18  1  0.92571724  0.00069717  0.77202344  1
  S  S19  1  0.06100512  0.96974312  0.18783497  1
  S  S20  1  0.42258556  0.99492374  0.99154119  1
  S  S21  1  0.58443446  0.99493606  0.02112550  1
  S  S22  1  0.16956843  0.96120833  0.89317681  1
  S  S23  1  0.83622439  0.02288467  0.10474829  1
  S  S24  1  0.09485371  0.46411738  0.66482790  1
  S  S25  1  0.90115579  0.46960467  0.34508066  1
  S  S26  1  0.72851431  0.95330649  0.29759343  1
  S  S27  1  0.26273191  0.94602979  0.69656443  1
  S  S28  1  0.15994332  0.41034141  0.43767487  1
  S  S29  1  0.83157240  0.45401769  0.53411640  1
  S  S30  1  0.43488567  0.46084133  0.81237153  1
  S  S31  1  0.56943988  0.45797019  0.19931819  1
  S  S32  1  0.91048683  0.49262304  0.96354216  1
  S  S33  1  0.07894488  0.50961570  0.00410832  1
  S  S34  1  0.65912314  0.43724425  0.89889487  1
  S  S35  1  0.34008914  0.47624986  0.10907107  1
  S  S36  1  0.59375777  0.93285519  0.67224583  1
  S  S37  1  0.42963002  0.99124286  0.36451577  1
  S  S38  1  0.26020551  0.51270264  0.29491510  1
  S  S39  1  0.76211069  0.51453096  0.67467291  1
  S  S40  1  0.67104213  0.98355158  0.43839890  1
  S  S41  1  0.32786768  0.07569331  0.54085909  1
