# generated using pymatgen
data_Pr2Mn3(SbS3)4
_symmetry_space_group_name_H-M   'P 1'
_cell_length_a   20.02960800
_cell_length_b   3.90410600
_cell_length_c   14.95364829
_cell_angle_alpha   90.00000000
_cell_angle_beta   126.33350609
_cell_angle_gamma   90.00000000
_symmetry_Int_Tables_number   1
_chemical_formula_structural   Pr2Mn3(SbS3)4
_chemical_formula_sum   'Pr4 Mn6 Sb8 S24'
_cell_volume   942.00006694
_cell_formula_units_Z   2
loop_
 _symmetry_equiv_pos_site_id
 _symmetry_equiv_pos_as_xyz
  1  'x, y, z'
loop_
 _atom_site_type_symbol
 _atom_site_label
 _atom_site_symmetry_multiplicity
 _atom_site_fract_x
 _atom_site_fract_y
 _atom_site_fract_z
 _atom_site_occupancy
  Pr  Pr0  1  0.25839188  0.49383200  0.86166498  1
  Pr  Pr1  1  0.72800007  0.53352460  0.13166979  1
  Pr  Pr2  1  0.76977634  0.97910410  0.88683503  1
  Pr  Pr3  1  0.24569815  0.98004947  0.14408603  1
  Mn  Mn4  1  0.28497436  0.57407064  0.58858216  1
  Mn  Mn5  1  0.69989336  0.47150435  0.38584367  1
  Mn  Mn6  1  0.99896139  0.97665182  0.99647868  1
  Mn  Mn7  1  0.79041037  0.02402316  0.59204786  1
  Mn  Mn8  1  0.19633687  0.90086696  0.41137529  1
  Mn  Mn9  1  0.50808320  0.51477152  0.01254729  1
  Sb  Sb10  1  0.89060905  0.98126568  0.44872604  1
  Sb  Sb11  1  0.11095769  0.03107512  0.55660575  1
  Sb  Sb12  1  0.01942840  0.53815346  0.79836467  1
  Sb  Sb13  1  0.97520373  0.48454100  0.18447604  1
  Sb  Sb14  1  0.39902251  0.48709117  0.46163727  1
  Sb  Sb15  1  0.60360002  0.45262832  0.56909651  1
  Sb  Sb16  1  0.53198779  0.98661491  0.82161721  1
  Sb  Sb17  1  0.46198616  0.99336145  0.17956411  1
  S  S18  1  0.92565127  0.00101884  0.77214901  1
  S  S19  1  0.06122866  0.96942018  0.18834686  1
  S  S20  1  0.42238032  0.99423229  0.99121777  1
  S  S21  1  0.58437014  0.99389522  0.02103578  1
  S  S22  1  0.16975101  0.95991902  0.89363558  1
  S  S23  1  0.83633185  0.02157926  0.10480995  1
  S  S24  1  0.09499535  0.46464958  0.66496665  1
  S  S25  1  0.90111136  0.46950982  0.34503307  1
  S  S26  1  0.72799230  0.95251159  0.29690381  1
  S  S27  1  0.26302574  0.94602234  0.69691928  1
  S  S28  1  0.16002927  0.40934914  0.43789007  1
  S  S29  1  0.83164761  0.45579808  0.53411143  1
  S  S30  1  0.43513401  0.46048114  0.81231022  1
  S  S31  1  0.56949858  0.45650022  0.19935760  1
  S  S32  1  0.91039282  0.49318121  0.96370064  1
  S  S33  1  0.07884063  0.50947535  0.00409727  1
  S  S34  1  0.65934058  0.43807501  0.89883507  1
  S  S35  1  0.34028237  0.47643145  0.10923161  1
  S  S36  1  0.59386247  0.93330802  0.67195448  1
  S  S37  1  0.42960347  0.99145212  0.36452714  1
  S  S38  1  0.26031979  0.51144626  0.29529868  1
  S  S39  1  0.76190812  0.51517581  0.67448683  1
  S  S40  1  0.67078230  0.98530244  0.43829271  1
  S  S41  1  0.32787739  0.07657358  0.54064544  1
