# generated using pymatgen
data_Pr2Mn3(SbS3)4
_symmetry_space_group_name_H-M   'P 1'
_cell_length_a   20.02960800
_cell_length_b   3.90410600
_cell_length_c   14.95364829
_cell_angle_alpha   90.00000000
_cell_angle_beta   126.33350609
_cell_angle_gamma   90.00000000
_symmetry_Int_Tables_number   1
_chemical_formula_structural   Pr2Mn3(SbS3)4
_chemical_formula_sum   'Pr4 Mn6 Sb8 S24'
_cell_volume   942.00006694
_cell_formula_units_Z   2
loop_
 _symmetry_equiv_pos_site_id
 _symmetry_equiv_pos_as_xyz
  1  'x, y, z'
loop_
 _atom_site_type_symbol
 _atom_site_label
 _atom_site_symmetry_multiplicity
 _atom_site_fract_x
 _atom_site_fract_y
 _atom_site_fract_z
 _atom_site_occupancy
  Pr  Pr0  1  0.25835675  0.49413838  0.86167101  1
  Pr  Pr1  1  0.72812055  0.53342544  0.13179897  1
  Pr  Pr2  1  0.76978165  0.97901135  0.88678157  1
  Pr  Pr3  1  0.24563410  0.97906614  0.14416406  1
  Mn  Mn4  1  0.28511633  0.57505198  0.58847582  1
  Mn  Mn5  1  0.70017177  0.47095064  0.38622045  1
  Mn  Mn6  1  0.99885301  0.97715290  0.99659637  1
  Mn  Mn7  1  0.79042083  0.02552537  0.59210971  1
  Mn  Mn8  1  0.19633489  0.90029520  0.41140217  1
  Mn  Mn9  1  0.50819197  0.51489918  0.01281827  1
  Sb  Sb10  1  0.89047865  0.98088639  0.44862606  1
  Sb  Sb11  1  0.11071927  0.03085041  0.55641834  1
  Sb  Sb12  1  0.01958022  0.53827659  0.79850069  1
  Sb  Sb13  1  0.97528190  0.48417601  0.18454809  1
  Sb  Sb14  1  0.39931492  0.48628402  0.46172120  1
  Sb  Sb15  1  0.60359062  0.45384216  0.56904580  1
  Sb  Sb16  1  0.53212695  0.98671836  0.82170058  1
  Sb  Sb17  1  0.46187746  0.99306396  0.17974625  1
  S  S18  1  0.92563823  0.00104206  0.77204095  1
  S  S19  1  0.06154689  0.96911391  0.18900023  1
  S  S20  1  0.42225283  0.99314025  0.99091226  1
  S  S21  1  0.58432210  0.99308009  0.02076642  1
  S  S22  1  0.16989894  0.95868791  0.89410569  1
  S  S23  1  0.83654434  0.01981170  0.10496125  1
  S  S24  1  0.09505568  0.46447706  0.66510893  1
  S  S25  1  0.90107756  0.46826021  0.34487847  1
  S  S26  1  0.72752232  0.95216864  0.29625620  1
  S  S27  1  0.26324171  0.94612910  0.69705221  1
  S  S28  1  0.16009700  0.40883881  0.43818365  1
  S  S29  1  0.83173192  0.45715832  0.53407958  1
  S  S30  1  0.43545097  0.46033342  0.81231846  1
  S  S31  1  0.56949478  0.45535473  0.19939705  1
  S  S32  1  0.91023466  0.49390812  0.96379236  1
  S  S33  1  0.07867511  0.50948980  0.00407341  1
  S  S34  1  0.65955094  0.43912063  0.89874210  1
  S  S35  1  0.34053287  0.47692942  0.10926740  1
  S  S36  1  0.59386404  0.93377792  0.67158071  1
  S  S37  1  0.42943314  0.99164430  0.36434468  1
  S  S38  1  0.26038764  0.50974093  0.29568597  1
  S  S39  1  0.76180213  0.51557016  0.67435355  1
  S  S40  1  0.67057047  0.98670617  0.43814680  1
  S  S41  1  0.32783293  0.07780307  0.54041449  1
