# generated using pymatgen
data_Pr2Mn3(SbS3)4
_symmetry_space_group_name_H-M   'P 1'
_cell_length_a   20.02960800
_cell_length_b   3.90410600
_cell_length_c   14.95364829
_cell_angle_alpha   90.00000000
_cell_angle_beta   126.33350609
_cell_angle_gamma   90.00000000
_symmetry_Int_Tables_number   1
_chemical_formula_structural   Pr2Mn3(SbS3)4
_chemical_formula_sum   'Pr4 Mn6 Sb8 S24'
_cell_volume   942.00006694
_cell_formula_units_Z   2
loop_
 _symmetry_equiv_pos_site_id
 _symmetry_equiv_pos_as_xyz
  1  'x, y, z'
loop_
 _atom_site_type_symbol
 _atom_site_label
 _atom_site_symmetry_multiplicity
 _atom_site_fract_x
 _atom_site_fract_y
 _atom_site_fract_z
 _atom_site_occupancy
  Pr  Pr0  1  0.25823324  0.49429863  0.86157532  1
  Pr  Pr1  1  0.72824589  0.53316466  0.13189046  1
  Pr  Pr2  1  0.76980961  0.97907381  0.88670615  1
  Pr  Pr3  1  0.24558661  0.97792461  0.14420600  1
  Mn  Mn4  1  0.28526476  0.57526116  0.58828882  1
  Mn  Mn5  1  0.70032705  0.47015372  0.38634504  1
  Mn  Mn6  1  0.99871788  0.97725402  0.99678186  1
  Mn  Mn7  1  0.79047088  0.02695321  0.59208524  1
  Mn  Mn8  1  0.19621242  0.90007982  0.41143837  1
  Mn  Mn9  1  0.50827348  0.51446296  0.01297096  1
  Sb  Sb10  1  0.89036533  0.98050595  0.44857241  1
  Sb  Sb11  1  0.11050004  0.03046557  0.55618998  1
  Sb  Sb12  1  0.01969416  0.53837967  0.79859585  1
  Sb  Sb13  1  0.97538520  0.48394305  0.18460399  1
  Sb  Sb14  1  0.39957806  0.48537372  0.46174323  1
  Sb  Sb15  1  0.60362308  0.45501201  0.56911136  1
  Sb  Sb16  1  0.53224117  0.98667083  0.82171769  1
  Sb  Sb17  1  0.46169770  0.99280717  0.17990257  1
  S  S18  1  0.92544212  0.00059372  0.77200858  1
  S  S19  1  0.06182081  0.96855499  0.18958152  1
  S  S20  1  0.42210552  0.99209625  0.99065852  1
  S  S21  1  0.58436304  0.99224409  0.02058450  1
  S  S22  1  0.16998401  0.95796077  0.89460318  1
  S  S23  1  0.83666568  0.01825370  0.10511725  1
  S  S24  1  0.09504442  0.46423839  0.66525426  1
  S  S25  1  0.90116736  0.46711936  0.34487160  1
  S  S26  1  0.72711901  0.95161960  0.29582496  1
  S  S27  1  0.26354717  0.94611212  0.69750188  1
  S  S28  1  0.16006872  0.40916815  0.43852285  1
  S  S29  1  0.83174770  0.45852368  0.53405864  1
  S  S30  1  0.43561580  0.46050194  0.81229245  1
  S  S31  1  0.56936128  0.45456887  0.19931249  1
  S  S32  1  0.91009765  0.49402612  0.96380402  1
  S  S33  1  0.07854972  0.51011015  0.00418876  1
  S  S34  1  0.65991546  0.43993629  0.89867858  1
  S  S35  1  0.34076588  0.47724932  0.10925260  1
  S  S36  1  0.59391882  0.93424383  0.67126310  1
  S  S37  1  0.42918756  0.99201423  0.36419044  1
  S  S38  1  0.26052729  0.50817853  0.29604724  1
  S  S39  1  0.76176673  0.51596480  0.67421591  1
  S  S40  1  0.67034102  0.98767441  0.43774609  1
  S  S41  1  0.32762551  0.07933181  0.53991639  1
