# generated using pymatgen
data_Pr2Mn3(SbS3)4
_symmetry_space_group_name_H-M   'P 1'
_cell_length_a   20.02960800
_cell_length_b   3.90410600
_cell_length_c   14.95364829
_cell_angle_alpha   90.00000000
_cell_angle_beta   126.33350609
_cell_angle_gamma   90.00000000
_symmetry_Int_Tables_number   1
_chemical_formula_structural   Pr2Mn3(SbS3)4
_chemical_formula_sum   'Pr4 Mn6 Sb8 S24'
_cell_volume   942.00006694
_cell_formula_units_Z   2
loop_
 _symmetry_equiv_pos_site_id
 _symmetry_equiv_pos_as_xyz
  1  'x, y, z'
loop_
 _atom_site_type_symbol
 _atom_site_label
 _atom_site_symmetry_multiplicity
 _atom_site_fract_x
 _atom_site_fract_y
 _atom_site_fract_z
 _atom_site_occupancy
  Pr  Pr0  1  0.25812268  0.49417537  0.86151843  1
  Pr  Pr1  1  0.72836903  0.53292977  0.13202033  1
  Pr  Pr2  1  0.76981545  0.97899580  0.88656614  1
  Pr  Pr3  1  0.24557587  0.97680361  0.14430005  1
  Mn  Mn4  1  0.28547605  0.57551679  0.58803229  1
  Mn  Mn5  1  0.70055128  0.46941024  0.38640822  1
  Mn  Mn6  1  0.99864317  0.97717341  0.99697835  1
  Mn  Mn7  1  0.79051234  0.02863901  0.59198230  1
  Mn  Mn8  1  0.19600130  0.89986477  0.41146428  1
  Mn  Mn9  1  0.50828856  0.51474892  0.01313819  1
  Sb  Sb10  1  0.89028872  0.98026231  0.44849507  1
  Sb  Sb11  1  0.11033321  0.02973555  0.55608564  1
  Sb  Sb12  1  0.01975574  0.53814961  0.79865038  1
  Sb  Sb13  1  0.97548146  0.48399768  0.18461403  1
  Sb  Sb14  1  0.39986476  0.48474260  0.46181396  1
  Sb  Sb15  1  0.60367796  0.45619674  0.56922107  1
  Sb  Sb16  1  0.53236732  0.98655670  0.82180090  1
  Sb  Sb17  1  0.46143419  0.99245271  0.18006660  1
  S  S18  1  0.92524904  0.00026590  0.77204739  1
  S  S19  1  0.06214254  0.96862160  0.19013276  1
  S  S20  1  0.42213119  0.99110234  0.99055267  1
  S  S21  1  0.58419274  0.99173203  0.02016097  1
  S  S22  1  0.17009745  0.95711853  0.89492429  1
  S  S23  1  0.83669059  0.01613305  0.10523286  1
  S  S24  1  0.09496900  0.46407657  0.66521026  1
  S  S25  1  0.90119645  0.46626315  0.34488133  1
  S  S26  1  0.72674898  0.95156927  0.29544730  1
  S  S27  1  0.26385512  0.94592706  0.69790144  1
  S  S28  1  0.15997900  0.40921928  0.43872694  1
  S  S29  1  0.83166095  0.45985007  0.53397664  1
  S  S30  1  0.43568856  0.46073173  0.81222436  1
  S  S31  1  0.56941174  0.45470734  0.19934020  1
  S  S32  1  0.90999161  0.49442523  0.96380339  1
  S  S33  1  0.07857120  0.51104807  0.00446982  1
  S  S34  1  0.66031268  0.44108038  0.89848832  1
  S  S35  1  0.34109507  0.47726475  0.10942048  1
  S  S36  1  0.59408485  0.93470474  0.67091146  1
  S  S37  1  0.42885698  0.99254634  0.36395769  1
  S  S38  1  0.26061499  0.50669765  0.29621043  1
  S  S39  1  0.76168844  0.51643836  0.67392527  1
  S  S40  1  0.67002876  0.98890049  0.43736158  1
  S  S41  1  0.32752780  0.08016707  0.53940535  1
