# generated using pymatgen
data_Pr2Mn3(SbS3)4
_symmetry_space_group_name_H-M   'P 1'
_cell_length_a   20.02960800
_cell_length_b   3.90410600
_cell_length_c   14.95364829
_cell_angle_alpha   90.00000000
_cell_angle_beta   126.33350609
_cell_angle_gamma   90.00000000
_symmetry_Int_Tables_number   1
_chemical_formula_structural   Pr2Mn3(SbS3)4
_chemical_formula_sum   'Pr4 Mn6 Sb8 S24'
_cell_volume   942.00006694
_cell_formula_units_Z   2
loop_
 _symmetry_equiv_pos_site_id
 _symmetry_equiv_pos_as_xyz
  1  'x, y, z'
loop_
 _atom_site_type_symbol
 _atom_site_label
 _atom_site_symmetry_multiplicity
 _atom_site_fract_x
 _atom_site_fract_y
 _atom_site_fract_z
 _atom_site_occupancy
  Pr  Pr0  1  0.25806020  0.49396537  0.86138855  1
  Pr  Pr1  1  0.72845824  0.53288744  0.13213975  1
  Pr  Pr2  1  0.76984618  0.97903161  0.88643852  1
  Pr  Pr3  1  0.24562642  0.97587530  0.14448652  1
  Mn  Mn4  1  0.28569849  0.57546120  0.58777332  1
  Mn  Mn5  1  0.70070469  0.46804779  0.38641110  1
  Mn  Mn6  1  0.99867498  0.97747630  0.99722211  1
  Mn  Mn7  1  0.79049809  0.02996017  0.59185963  1
  Mn  Mn8  1  0.19579290  0.89966974  0.41158688  1
  Mn  Mn9  1  0.50835873  0.51469957  0.01337155  1
  Sb  Sb10  1  0.89026542  0.97990498  0.44850820  1
  Sb  Sb11  1  0.11021204  0.02901764  0.55602618  1
  Sb  Sb12  1  0.01986301  0.53781630  0.79870945  1
  Sb  Sb13  1  0.97553632  0.48400212  0.18466859  1
  Sb  Sb14  1  0.40018135  0.48392520  0.46196148  1
  Sb  Sb15  1  0.60377506  0.45737460  0.56931001  1
  Sb  Sb16  1  0.53237673  0.98673235  0.82191210  1
  Sb  Sb17  1  0.46115786  0.99211945  0.18026399  1
  S  S18  1  0.92500631  0.99969738  0.77200391  1
  S  S19  1  0.06240523  0.96885662  0.19063474  1
  S  S20  1  0.42214527  0.99016551  0.99060992  1
  S  S21  1  0.58397188  0.99151500  0.01966746  1
  S  S22  1  0.17028333  0.95620335  0.89518800  1
  S  S23  1  0.83655751  0.01416448  0.10516746  1
  S  S24  1  0.09478675  0.46340724  0.66527766  1
  S  S25  1  0.90122030  0.46541270  0.34486195  1
  S  S26  1  0.72651105  0.95124361  0.29515854  1
  S  S27  1  0.26428503  0.94587069  0.69819670  1
  S  S28  1  0.15985931  0.40922720  0.43897949  1
  S  S29  1  0.83167880  0.46117115  0.53397522  1
  S  S30  1  0.43569718  0.46095067  0.81222088  1
  S  S31  1  0.56949437  0.45459471  0.19943185  1
  S  S32  1  0.90986804  0.49485294  0.96389327  1
  S  S33  1  0.07847649  0.51259156  0.00475278  1
  S  S34  1  0.66065579  0.44200231  0.89813376  1
  S  S35  1  0.34116391  0.47699642  0.10930610  1
  S  S36  1  0.59421611  0.93529465  0.67056921  1
  S  S37  1  0.42847857  0.99384019  0.36364924  1
  S  S38  1  0.26061030  0.50522553  0.29634518  1
  S  S39  1  0.76165558  0.51701636  0.67384599  1
  S  S40  1  0.66956018  0.98992198  0.43667860  1
  S  S41  1  0.32732646  0.08022279  0.53876065  1
