# generated using pymatgen
data_Pr2Mn3(SbS3)4
_symmetry_space_group_name_H-M   'P 1'
_cell_length_a   20.02960800
_cell_length_b   3.90410600
_cell_length_c   14.95364829
_cell_angle_alpha   90.00000000
_cell_angle_beta   126.33350609
_cell_angle_gamma   90.00000000
_symmetry_Int_Tables_number   1
_chemical_formula_structural   Pr2Mn3(SbS3)4
_chemical_formula_sum   'Pr4 Mn6 Sb8 S24'
_cell_volume   942.00006694
_cell_formula_units_Z   2
loop_
 _symmetry_equiv_pos_site_id
 _symmetry_equiv_pos_as_xyz
  1  'x, y, z'
loop_
 _atom_site_type_symbol
 _atom_site_label
 _atom_site_symmetry_multiplicity
 _atom_site_fract_x
 _atom_site_fract_y
 _atom_site_fract_z
 _atom_site_occupancy
  Pr  Pr0  1  0.25807045  0.49397833  0.86133088  1
  Pr  Pr1  1  0.72851952  0.53298683  0.13228074  1
  Pr  Pr2  1  0.76988432  0.97914285  0.88639400  1
  Pr  Pr3  1  0.24566720  0.97488414  0.14469553  1
  Mn  Mn4  1  0.28591083  0.57581727  0.58756382  1
  Mn  Mn5  1  0.70084422  0.46680846  0.38646704  1
  Mn  Mn6  1  0.99876152  0.97757847  0.99746367  1
  Mn  Mn7  1  0.79039615  0.03102507  0.59173344  1
  Mn  Mn8  1  0.19554443  0.89978301  0.41161122  1
  Mn  Mn9  1  0.50845437  0.51428863  0.01365573  1
  Sb  Sb10  1  0.89029103  0.97956022  0.44856477  1
  Sb  Sb11  1  0.11002296  0.02863079  0.55591550  1
  Sb  Sb12  1  0.01991483  0.53724429  0.79878455  1
  Sb  Sb13  1  0.97549169  0.48389894  0.18454644  1
  Sb  Sb14  1  0.40040256  0.48350384  0.46208506  1
  Sb  Sb15  1  0.60385166  0.45837107  0.56934557  1
  Sb  Sb16  1  0.53231747  0.98621487  0.82193779  1
  Sb  Sb17  1  0.46093744  0.99186477  0.18038495  1
  S  S18  1  0.92474311  0.99959408  0.77193532  1
  S  S19  1  0.06265157  0.96964354  0.19118697  1
  S  S20  1  0.42213782  0.98881430  0.99062986  1
  S  S21  1  0.58369305  0.99153008  0.01942112  1
  S  S22  1  0.17032324  0.95577889  0.89518093  1
  S  S23  1  0.83637268  0.01232915  0.10499295  1
  S  S24  1  0.09473211  0.46343741  0.66542547  1
  S  S25  1  0.90131789  0.46478742  0.34482793  1
  S  S26  1  0.72623055  0.95110959  0.29481998  1
  S  S27  1  0.26471332  0.94546424  0.69824894  1
  S  S28  1  0.15980581  0.40929346  0.43925125  1
  S  S29  1  0.83183591  0.46231776  0.53403872  1
  S  S30  1  0.43591915  0.46100074  0.81230287  1
  S  S31  1  0.56962149  0.45472796  0.19941911  1
  S  S32  1  0.90987608  0.49559348  0.96414460  1
  S  S33  1  0.07832410  0.51355967  0.00498522  1
  S  S34  1  0.66084522  0.44206624  0.89782259  1
  S  S35  1  0.34121262  0.47709694  0.10918930  1
  S  S36  1  0.59421794  0.93540968  0.67008566  1
  S  S37  1  0.42805056  0.99463173  0.36341298  1
  S  S38  1  0.26038081  0.50370753  0.29617677  1
  S  S39  1  0.76179806  0.51687782  0.67385075  1
  S  S40  1  0.66906518  0.99080261  0.43580391  1
  S  S41  1  0.32705952  0.07956769  0.53814731  1
