# generated using pymatgen
data_Pr2Mn3(SbS3)4
_symmetry_space_group_name_H-M   'P 1'
_cell_length_a   20.02960800
_cell_length_b   3.90410600
_cell_length_c   14.95364829
_cell_angle_alpha   90.00000000
_cell_angle_beta   126.33350609
_cell_angle_gamma   90.00000000
_symmetry_Int_Tables_number   1
_chemical_formula_structural   Pr2Mn3(SbS3)4
_chemical_formula_sum   'Pr4 Mn6 Sb8 S24'
_cell_volume   942.00006694
_cell_formula_units_Z   2
loop_
 _symmetry_equiv_pos_site_id
 _symmetry_equiv_pos_as_xyz
  1  'x, y, z'
loop_
 _atom_site_type_symbol
 _atom_site_label
 _atom_site_symmetry_multiplicity
 _atom_site_fract_x
 _atom_site_fract_y
 _atom_site_fract_z
 _atom_site_occupancy
  Pr  Pr0  1  0.25811095  0.49384120  0.86141335  1
  Pr  Pr1  1  0.72857294  0.53313932  0.13234818  1
  Pr  Pr2  1  0.76989763  0.97927990  0.88629553  1
  Pr  Pr3  1  0.24565979  0.97396954  0.14489969  1
  Mn  Mn4  1  0.28608259  0.57630116  0.58733285  1
  Mn  Mn5  1  0.70103998  0.46569792  0.38652854  1
  Mn  Mn6  1  0.99883474  0.97780176  0.99757741  1
  Mn  Mn7  1  0.79034863  0.03186226  0.59177295  1
  Mn  Mn8  1  0.19525426  0.89978705  0.41159112  1
  Mn  Mn9  1  0.50856762  0.51355580  0.01388447  1
  Sb  Sb10  1  0.89027261  0.97910429  0.44857934  1
  Sb  Sb11  1  0.10981998  0.02866782  0.55574774  1
  Sb  Sb12  1  0.01997625  0.53630231  0.79884799  1
  Sb  Sb13  1  0.97541147  0.48413271  0.18438250  1
  Sb  Sb14  1  0.40063803  0.48291467  0.46218032  1
  Sb  Sb15  1  0.60386360  0.45916640  0.56926000  1
  Sb  Sb16  1  0.53225130  0.98576206  0.82194800  1
  Sb  Sb17  1  0.46072297  0.99140230  0.18050024  1
  S  S18  1  0.92481751  0.00008089  0.77214461  1
  S  S19  1  0.06301839  0.97105624  0.19195452  1
  S  S20  1  0.42208406  0.98758151  0.99045505  1
  S  S21  1  0.58337507  0.99144926  0.01906487  1
  S  S22  1  0.17049282  0.95588254  0.89521183  1
  S  S23  1  0.83625925  0.01140448  0.10492058  1
  S  S24  1  0.09461187  0.46407654  0.66553478  1
  S  S25  1  0.90142717  0.46412179  0.34467634  1
  S  S26  1  0.72584634  0.95155034  0.29437282  1
  S  S27  1  0.26502679  0.94554037  0.69838134  1
  S  S28  1  0.15983045  0.40933386  0.43958258  1
  S  S29  1  0.83196966  0.46378114  0.53392365  1
  S  S30  1  0.43620412  0.46122366  0.81234653  1
  S  S31  1  0.56973279  0.45430391  0.19934462  1
  S  S32  1  0.90981484  0.49552429  0.96427580  1
  S  S33  1  0.07820168  0.51443977  0.00527475  1
  S  S34  1  0.66105915  0.44212344  0.89778066  1
  S  S35  1  0.34140613  0.47684691  0.10914573  1
  S  S36  1  0.59424720  0.93519822  0.66956574  1
  S  S37  1  0.42751479  0.99516593  0.36304546  1
  S  S38  1  0.26036450  0.50256314  0.29622364  1
  S  S39  1  0.76174798  0.51692524  0.67362980  1
  S  S40  1  0.66854605  0.99181719  0.43518234  1
  S  S41  1  0.32666062  0.07893275  0.53754355  1
