# generated using pymatgen
data_Pr2Mn3(SbS3)4
_symmetry_space_group_name_H-M   'P 1'
_cell_length_a   20.02960800
_cell_length_b   3.90410600
_cell_length_c   14.95364829
_cell_angle_alpha   90.00000000
_cell_angle_beta   126.33350609
_cell_angle_gamma   90.00000000
_symmetry_Int_Tables_number   1
_chemical_formula_structural   Pr2Mn3(SbS3)4
_chemical_formula_sum   'Pr4 Mn6 Sb8 S24'
_cell_volume   942.00006694
_cell_formula_units_Z   2
loop_
 _symmetry_equiv_pos_site_id
 _symmetry_equiv_pos_as_xyz
  1  'x, y, z'
loop_
 _atom_site_type_symbol
 _atom_site_label
 _atom_site_symmetry_multiplicity
 _atom_site_fract_x
 _atom_site_fract_y
 _atom_site_fract_z
 _atom_site_occupancy
  Pr  Pr0  1  0.26144362  0.49514459  0.86586203  1
  Pr  Pr1  1  0.74012902  0.50264307  0.13718264  1
  Pr  Pr2  1  0.76049290  0.00722902  0.86154289  1
  Pr  Pr3  1  0.23998474  0.99186600  0.13841709  1
  Mn  Mn4  1  0.29932419  0.50481703  0.62030301  1
  Mn  Mn5  1  0.69763339  0.49812816  0.37998516  1
  Mn  Mn6  1  0.00138431  0.00091134  0.00143469  1
  Mn  Mn7  1  0.80295730  0.99410930  0.61914875  1
  Mn  Mn8  1  0.19915063  0.98973423  0.37898100  1
  Mn  Mn9  1  0.50027746  0.48575048  0.00075454  1
  Sb  Sb10  1  0.89500841  0.00749982  0.45436420  1
  Sb  Sb11  1  0.10674482  0.99172845  0.55010908  1
  Sb  Sb12  1  0.03785468  0.49032299  0.81427234  1
  Sb  Sb13  1  0.96249304  0.49998197  0.18811155  1
  Sb  Sb14  1  0.39423913  0.49021606  0.45516827  1
  Sb  Sb15  1  0.60606447  0.49743683  0.54825877  1
  Sb  Sb16  1  0.53789703  0.99969520  0.81385984  1
  Sb  Sb17  1  0.46294082  0.99843976  0.18442935  1
  S  S18  1  0.93867525  0.99032939  0.79753740  1
  S  S19  1  0.05758233  0.99253844  0.19330356  1
  S  S20  1  0.40290357  0.98005564  0.98007781  1
  S  S21  1  0.59733805  0.99503672  0.01780193  1
  S  S22  1  0.16890499  0.98615008  0.90090305  1
  S  S23  1  0.82805799  0.00301964  0.10483087  1
  S  S24  1  0.08854427  0.49066193  0.64763998  1
  S  S25  1  0.91046632  0.48230130  0.35082522  1
  S  S26  1  0.74431298  0.97686645  0.29607847  1
  S  S27  1  0.25584743  0.00882710  0.70050754  1
  S  S28  1  0.15938861  0.49399704  0.44780365  1
  S  S29  1  0.83477301  0.49454370  0.54714521  1
  S  S30  1  0.43806430  0.49806136  0.79779494  1
  S  S31  1  0.56131250  0.49064224  0.19896111  1
  S  S32  1  0.90219849  0.48029307  0.97852079  1
  S  S33  1  0.09328184  0.48784917  0.01882711  1
  S  S34  1  0.66540941  0.51395215  0.89576787  1
  S  S35  1  0.33403479  0.50505397  0.10675781  1
  S  S36  1  0.59064677  0.01596196  0.64873272  1
  S  S37  1  0.41383415  0.98993661  0.35792435  1
  S  S38  1  0.24283445  0.47838327  0.29283128  1
  S  S39  1  0.76355988  0.50173253  0.70612522  1
  S  S40  1  0.66083752  0.00104228  0.45821271  1
  S  S41  1  0.33918514  0.99060995  0.54364518  1
