# generated using pymatgen
data_Pr2Mn3(SbS3)4
_symmetry_space_group_name_H-M   'P 1'
_cell_length_a   20.02960800
_cell_length_b   3.90410600
_cell_length_c   14.95364829
_cell_angle_alpha   90.00000000
_cell_angle_beta   126.33350609
_cell_angle_gamma   90.00000000
_symmetry_Int_Tables_number   1
_chemical_formula_structural   Pr2Mn3(SbS3)4
_chemical_formula_sum   'Pr4 Mn6 Sb8 S24'
_cell_volume   942.00006694
_cell_formula_units_Z   2
loop_
 _symmetry_equiv_pos_site_id
 _symmetry_equiv_pos_as_xyz
  1  'x, y, z'
loop_
 _atom_site_type_symbol
 _atom_site_label
 _atom_site_symmetry_multiplicity
 _atom_site_fract_x
 _atom_site_fract_y
 _atom_site_fract_z
 _atom_site_occupancy
  Pr  Pr0  1  0.26941226  0.49541916  0.86696302  1
  Pr  Pr1  1  0.73402324  0.51522996  0.13307004  1
  Pr  Pr2  1  0.76513902  0.02314992  0.86415165  1
  Pr  Pr3  1  0.23316112  0.99417530  0.13234339  1
  Mn  Mn4  1  0.29733103  0.47191427  0.60035993  1
  Mn  Mn5  1  0.68494798  0.46146663  0.36128956  1
  Mn  Mn6  1  0.00451553  0.98849825  0.01026454  1
  Mn  Mn7  1  0.79702307  0.01021262  0.61848851  1
  Mn  Mn8  1  0.19590426  0.98075353  0.36751652  1
  Mn  Mn9  1  0.48634715  0.46763731  0.98435028  1
  Sb  Sb10  1  0.88891142  0.98867122  0.45101997  1
  Sb  Sb11  1  0.10989242  0.98075014  0.54513739  1
  Sb  Sb12  1  0.03630260  0.52678958  0.82190861  1
  Sb  Sb13  1  0.96748013  0.49988712  0.19021051  1
  Sb  Sb14  1  0.39225299  0.50182479  0.44787043  1
  Sb  Sb15  1  0.60601551  0.47609054  0.54611042  1
  Sb  Sb16  1  0.53405454  0.98014427  0.80807741  1
  Sb  Sb17  1  0.46613602  0.01749326  0.19034199  1
  S  S18  1  0.93516211  0.01522200  0.80640316  1
  S  S19  1  0.06505100  0.00388093  0.19842688  1
  S  S20  1  0.41817602  0.95807383  0.99023308  1
  S  S21  1  0.58516309  0.02720599  0.01614934  1
  S  S22  1  0.17080089  0.05371696  0.90089558  1
  S  S23  1  0.82643611  0.03860109  0.10093448  1
  S  S24  1  0.09085978  0.49633288  0.64559199  1
  S  S25  1  0.91511453  0.48318621  0.35626743  1
  S  S26  1  0.74055371  0.98856550  0.30468389  1
  S  S27  1  0.26006241  0.01093003  0.71019239  1
  S  S28  1  0.16506976  0.52230105  0.43244578  1
  S  S29  1  0.81428418  0.49567064  0.54480028  1
  S  S30  1  0.43094264  0.46926553  0.79563002  1
  S  S31  1  0.55477750  0.52153995  0.18222592  1
  S  S32  1  0.91999878  0.50541912  0.99030319  1
  S  S33  1  0.09232969  0.49357830  0.02997930  1
  S  S34  1  0.66375617  0.55448330  0.89438925  1
  S  S35  1  0.32713857  0.48071610  0.09191433  1
  S  S36  1  0.59116478  0.99248376  0.65060208  1
  S  S37  1  0.39924035  0.98605607  0.34297407  1
  S  S38  1  0.24364746  0.46433087  0.31651644  1
  S  S39  1  0.75912600  0.52287623  0.68754519  1
  S  S40  1  0.66354413  0.99545643  0.44679792  1
  S  S41  1  0.33179763  0.98028486  0.55560222  1
