# generated using pymatgen
data_Pr2Mn3(SbS3)4
_symmetry_space_group_name_H-M   'P 1'
_cell_length_a   20.02960800
_cell_length_b   3.90410600
_cell_length_c   14.95364829
_cell_angle_alpha   90.00000000
_cell_angle_beta   126.33350609
_cell_angle_gamma   90.00000000
_symmetry_Int_Tables_number   1
_chemical_formula_structural   Pr2Mn3(SbS3)4
_chemical_formula_sum   'Pr4 Mn6 Sb8 S24'
_cell_volume   942.00006694
_cell_formula_units_Z   2
loop_
 _symmetry_equiv_pos_site_id
 _symmetry_equiv_pos_as_xyz
  1  'x, y, z'
loop_
 _atom_site_type_symbol
 _atom_site_label
 _atom_site_symmetry_multiplicity
 _atom_site_fract_x
 _atom_site_fract_y
 _atom_site_fract_z
 _atom_site_occupancy
  Pr  Pr0  1  0.25819165  0.49393493  0.86149248  1
  Pr  Pr1  1  0.72862886  0.53299644  0.13241337  1
  Pr  Pr2  1  0.76987280  0.97911739  0.88619334  1
  Pr  Pr3  1  0.24561618  0.97324195  0.14504988  1
  Mn  Mn4  1  0.28624763  0.57743821  0.58718715  1
  Mn  Mn5  1  0.70119518  0.46473521  0.38656856  1
  Mn  Mn6  1  0.99886105  0.97812213  0.99763762  1
  Mn  Mn7  1  0.79035336  0.03284688  0.59186427  1
  Mn  Mn8  1  0.19509544  0.89940653  0.41170911  1
  Mn  Mn9  1  0.50851900  0.51288800  0.01408702  1
  Sb  Sb10  1  0.89026154  0.97817645  0.44865600  1
  Sb  Sb11  1  0.10968539  0.02836681  0.55557048  1
  Sb  Sb12  1  0.02001508  0.53536268  0.79895591  1
  Sb  Sb13  1  0.97535825  0.48446694  0.18435163  1
  Sb  Sb14  1  0.40091771  0.48270511  0.46231361  1
  Sb  Sb15  1  0.60389388  0.45973178  0.56918660  1
  Sb  Sb16  1  0.53217977  0.98537826  0.82193350  1
  Sb  Sb17  1  0.46058056  0.99091386  0.18056643  1
  S  S18  1  0.92502554  0.00136705  0.77235046  1
  S  S19  1  0.06348843  0.97325864  0.19277175  1
  S  S20  1  0.42200079  0.98620580  0.99017616  1
  S  S21  1  0.58316131  0.99104152  0.01892599  1
  S  S22  1  0.17074060  0.95559843  0.89514746  1
  S  S23  1  0.83622203  0.01074551  0.10490932  1
  S  S24  1  0.09460473  0.46431427  0.66565236  1
  S  S25  1  0.90154850  0.46329005  0.34463010  1
  S  S26  1  0.72559109  0.95142426  0.29395577  1
  S  S27  1  0.26537394  0.94599995  0.69867699  1
  S  S28  1  0.15987695  0.40919579  0.43999453  1
  S  S29  1  0.83217403  0.46462143  0.53368462  1
  S  S30  1  0.43650121  0.46164529  0.81254504  1
  S  S31  1  0.56989750  0.45395676  0.19917058  1
  S  S32  1  0.90981542  0.49515832  0.96444211  1
  S  S33  1  0.07826146  0.51486691  0.00561930  1
  S  S34  1  0.66126622  0.44235922  0.89770735  1
  S  S35  1  0.34162298  0.47645975  0.10923234  1
  S  S36  1  0.59432891  0.93461218  0.66904628  1
  S  S37  1  0.42710003  0.99571006  0.36289752  1
  S  S38  1  0.26041769  0.50138326  0.29637712  1
  S  S39  1  0.76175742  0.51670961  0.67364704  1
  S  S40  1  0.66791676  0.99239013  0.43449888  1
  S  S41  1  0.32637127  0.07824656  0.53688657  1
