# generated using pymatgen
data_Pr2Mn3(SbS3)4
_symmetry_space_group_name_H-M   'P 1'
_cell_length_a   20.02960800
_cell_length_b   3.90410600
_cell_length_c   14.95364829
_cell_angle_alpha   90.00000000
_cell_angle_beta   126.33350609
_cell_angle_gamma   90.00000000
_symmetry_Int_Tables_number   1
_chemical_formula_structural   Pr2Mn3(SbS3)4
_chemical_formula_sum   'Pr4 Mn6 Sb8 S24'
_cell_volume   942.00006694
_cell_formula_units_Z   2
loop_
 _symmetry_equiv_pos_site_id
 _symmetry_equiv_pos_as_xyz
  1  'x, y, z'
loop_
 _atom_site_type_symbol
 _atom_site_label
 _atom_site_symmetry_multiplicity
 _atom_site_fract_x
 _atom_site_fract_y
 _atom_site_fract_z
 _atom_site_occupancy
  Pr  Pr0  1  0.25825668  0.49431399  0.86155330  1
  Pr  Pr1  1  0.72868080  0.53271999  0.13249566  1
  Pr  Pr2  1  0.76989205  0.97864967  0.88607539  1
  Pr  Pr3  1  0.24557630  0.97266544  0.14533893  1
  Mn  Mn4  1  0.28637033  0.57863576  0.58702537  1
  Mn  Mn5  1  0.70127956  0.46402526  0.38666743  1
  Mn  Mn6  1  0.99896951  0.97830284  0.99784240  1
  Mn  Mn7  1  0.79027406  0.03357921  0.59182204  1
  Mn  Mn8  1  0.19498193  0.89873875  0.41184009  1
  Mn  Mn9  1  0.50848004  0.51218459  0.01425099  1
  Sb  Sb10  1  0.89024748  0.97766305  0.44877864  1
  Sb  Sb11  1  0.10956079  0.02765483  0.55538822  1
  Sb  Sb12  1  0.02011683  0.53432314  0.79898671  1
  Sb  Sb13  1  0.97532334  0.48502486  0.18438432  1
  Sb  Sb14  1  0.40118691  0.48218428  0.46248335  1
  Sb  Sb15  1  0.60395339  0.46043937  0.56910612  1
  Sb  Sb16  1  0.53215737  0.98505563  0.82191077  1
  Sb  Sb17  1  0.46040648  0.99033865  0.18053234  1
  S  S18  1  0.92523995  0.00304589  0.77251678  1
  S  S19  1  0.06396160  0.97491758  0.19336742  1
  S  S20  1  0.42199798  0.98518864  0.98997514  1
  S  S21  1  0.58295616  0.99096581  0.01862558  1
  S  S22  1  0.17090166  0.95529795  0.89509481  1
  S  S23  1  0.83610857  0.01009373  0.10483273  1
  S  S24  1  0.09457988  0.46440970  0.66587732  1
  S  S25  1  0.90171210  0.46270535  0.34464374  1
  S  S26  1  0.72541777  0.95167025  0.29349621  1
  S  S27  1  0.26572949  0.94625219  0.69898638  1
  S  S28  1  0.15988630  0.40940948  0.44047967  1
  S  S29  1  0.83234545  0.46613957  0.53348653  1
  S  S30  1  0.43691283  0.46192012  0.81275729  1
  S  S31  1  0.57021495  0.45340402  0.19902154  1
  S  S32  1  0.90984329  0.49484547  0.96448522  1
  S  S33  1  0.07835462  0.51537713  0.00597145  1
  S  S34  1  0.66147967  0.44276203  0.89772935  1
  S  S35  1  0.34180826  0.47612803  0.10924815  1
  S  S36  1  0.59427831  0.93473239  0.66841944  1
  S  S37  1  0.42677084  0.99573192  0.36270184  1
  S  S38  1  0.26046650  0.50027284  0.29653836  1
  S  S39  1  0.76178284  0.51639798  0.67380242  1
  S  S40  1  0.66742545  0.99323163  0.43412341  1
  S  S41  1  0.32602018  0.07756311  0.53615225  1
