# generated using pymatgen
data_Pr2Mn3(SbS3)4
_symmetry_space_group_name_H-M   'P 1'
_cell_length_a   20.02960800
_cell_length_b   3.90410600
_cell_length_c   14.95364829
_cell_angle_alpha   90.00000000
_cell_angle_beta   126.33350609
_cell_angle_gamma   90.00000000
_symmetry_Int_Tables_number   1
_chemical_formula_structural   Pr2Mn3(SbS3)4
_chemical_formula_sum   'Pr4 Mn6 Sb8 S24'
_cell_volume   942.00006694
_cell_formula_units_Z   2
loop_
 _symmetry_equiv_pos_site_id
 _symmetry_equiv_pos_as_xyz
  1  'x, y, z'
loop_
 _atom_site_type_symbol
 _atom_site_label
 _atom_site_symmetry_multiplicity
 _atom_site_fract_x
 _atom_site_fract_y
 _atom_site_fract_z
 _atom_site_occupancy
  Pr  Pr0  1  0.25831333  0.49452298  0.86159710  1
  Pr  Pr1  1  0.72876755  0.53230673  0.13256381  1
  Pr  Pr2  1  0.76992109  0.97802520  0.88595745  1
  Pr  Pr3  1  0.24559228  0.97250857  0.14558760  1
  Mn  Mn4  1  0.28647547  0.57945660  0.58690577  1
  Mn  Mn5  1  0.70136318  0.46307975  0.38666640  1
  Mn  Mn6  1  0.99906465  0.97819012  0.99821048  1
  Mn  Mn7  1  0.79034229  0.03385233  0.59199746  1
  Mn  Mn8  1  0.19491918  0.89793285  0.41203149  1
  Mn  Mn9  1  0.50839510  0.51130413  0.01433316  1
  Sb  Sb10  1  0.89022491  0.97755182  0.44884702  1
  Sb  Sb11  1  0.10940844  0.02709213  0.55506869  1
  Sb  Sb12  1  0.02020190  0.53323911  0.79906974  1
  Sb  Sb13  1  0.97525829  0.48565427  0.18438428  1
  Sb  Sb14  1  0.40150191  0.48159905  0.46265119  1
  Sb  Sb15  1  0.60403305  0.46075587  0.56903498  1
  Sb  Sb16  1  0.53217301  0.98464285  0.82193278  1
  Sb  Sb17  1  0.46026687  0.98997452  0.18044161  1
  S  S18  1  0.92552030  0.00429028  0.77274076  1
  S  S19  1  0.06446787  0.97652799  0.19411387  1
  S  S20  1  0.42200042  0.98429217  0.98972618  1
  S  S21  1  0.58269372  0.99068988  0.01835408  1
  S  S22  1  0.17088225  0.95514464  0.89502568  1
  S  S23  1  0.83597076  0.00942563  0.10478625  1
  S  S24  1  0.09447004  0.46490336  0.66591018  1
  S  S25  1  0.90164993  0.46232628  0.34464589  1
  S  S26  1  0.72517974  0.95185257  0.29314222  1
  S  S27  1  0.26600139  0.94618463  0.69920023  1
  S  S28  1  0.15969407  0.40939570  0.44090400  1
  S  S29  1  0.83250437  0.46773453  0.53325895  1
  S  S30  1  0.43726480  0.46239266  0.81298277  1
  S  S31  1  0.57044082  0.45300497  0.19878194  1
  S  S32  1  0.90983026  0.49499884  0.96451283  1
  S  S33  1  0.07847746  0.51565902  0.00609832  1
  S  S34  1  0.66170843  0.44306797  0.89760597  1
  S  S35  1  0.34194623  0.47551845  0.10921959  1
  S  S36  1  0.59433649  0.93570214  0.66793324  1
  S  S37  1  0.42641289  0.99556895  0.36260786  1
  S  S38  1  0.26053229  0.49893265  0.29652432  1
  S  S39  1  0.76167638  0.51524869  0.67383480  1
  S  S40  1  0.66701018  0.99454894  0.43393590  1
  S  S41  1  0.32567935  0.07719512  0.53547839  1
