# generated using pymatgen
data_Pr2Mn3(SbS3)4
_symmetry_space_group_name_H-M   'P 1'
_cell_length_a   20.02960800
_cell_length_b   3.90410600
_cell_length_c   14.95364829
_cell_angle_alpha   90.00000000
_cell_angle_beta   126.33350609
_cell_angle_gamma   90.00000000
_symmetry_Int_Tables_number   1
_chemical_formula_structural   Pr2Mn3(SbS3)4
_chemical_formula_sum   'Pr4 Mn6 Sb8 S24'
_cell_volume   942.00006694
_cell_formula_units_Z   2
loop_
 _symmetry_equiv_pos_site_id
 _symmetry_equiv_pos_as_xyz
  1  'x, y, z'
loop_
 _atom_site_type_symbol
 _atom_site_label
 _atom_site_symmetry_multiplicity
 _atom_site_fract_x
 _atom_site_fract_y
 _atom_site_fract_z
 _atom_site_occupancy
  Pr  Pr0  1  0.25838998  0.49449745  0.86160311  1
  Pr  Pr1  1  0.72883306  0.53172306  0.13251391  1
  Pr  Pr2  1  0.77007390  0.97768646  0.88589530  1
  Pr  Pr3  1  0.24555702  0.97237605  0.14576194  1
  Mn  Mn4  1  0.28672490  0.57968280  0.58687497  1
  Mn  Mn5  1  0.70142210  0.46217665  0.38661996  1
  Mn  Mn6  1  0.99912791  0.97732498  0.99856402  1
  Mn  Mn7  1  0.79039876  0.03457593  0.59206608  1
  Mn  Mn8  1  0.19480990  0.89746969  0.41218646  1
  Mn  Mn9  1  0.50831289  0.51016896  0.01443190  1
  Sb  Sb10  1  0.89025037  0.97756504  0.44888738  1
  Sb  Sb11  1  0.10928428  0.02667186  0.55489084  1
  Sb  Sb12  1  0.02023571  0.53192980  0.79910927  1
  Sb  Sb13  1  0.97515169  0.48616127  0.18428711  1
  Sb  Sb14  1  0.40182871  0.48121829  0.46287945  1
  Sb  Sb15  1  0.60408370  0.46103936  0.56900693  1
  Sb  Sb16  1  0.53217677  0.98416993  0.82201579  1
  Sb  Sb17  1  0.46015132  0.98970962  0.18048448  1
  S  S18  1  0.92585211  0.00544032  0.77306558  1
  S  S19  1  0.06495521  0.97816576  0.19487900  1
  S  S20  1  0.42179197  0.98292653  0.98927140  1
  S  S21  1  0.58252234  0.99033393  0.01824779  1
  S  S22  1  0.17082493  0.95527714  0.89487932  1
  S  S23  1  0.83586773  0.00879989  0.10478252  1
  S  S24  1  0.09430794  0.46518703  0.66583810  1
  S  S25  1  0.90149503  0.46229390  0.34464787  1
  S  S26  1  0.72495802  0.95219688  0.29283645  1
  S  S27  1  0.26626323  0.94627350  0.69939970  1
  S  S28  1  0.15957817  0.40924185  0.44124657  1
  S  S29  1  0.83267220  0.46940385  0.53288637  1
  S  S30  1  0.43764037  0.46291460  0.81318005  1
  S  S31  1  0.57063987  0.45262603  0.19865715  1
  S  S32  1  0.90983927  0.49523586  0.96437699  1
  S  S33  1  0.07849074  0.51659439  0.00606875  1
  S  S34  1  0.66196222  0.44344231  0.89756375  1
  S  S35  1  0.34226491  0.47504934  0.10916095  1
  S  S36  1  0.59441229  0.93712612  0.66769129  1
  S  S37  1  0.42595403  0.99536937  0.36228797  1
  S  S38  1  0.26044314  0.49741732  0.29647161  1
  S  S39  1  0.76151407  0.51454068  0.67393208  1
  S  S40  1  0.66657972  0.99561010  0.43371349  1
  S  S41  1  0.32543304  0.07699748  0.53480637  1
