# generated using pymatgen
data_Pr2Mn3(SbS3)4
_symmetry_space_group_name_H-M   'P 1'
_cell_length_a   20.02960800
_cell_length_b   3.90410600
_cell_length_c   14.95364829
_cell_angle_alpha   90.00000000
_cell_angle_beta   126.33350609
_cell_angle_gamma   90.00000000
_symmetry_Int_Tables_number   1
_chemical_formula_structural   Pr2Mn3(SbS3)4
_chemical_formula_sum   'Pr4 Mn6 Sb8 S24'
_cell_volume   942.00006694
_cell_formula_units_Z   2
loop_
 _symmetry_equiv_pos_site_id
 _symmetry_equiv_pos_as_xyz
  1  'x, y, z'
loop_
 _atom_site_type_symbol
 _atom_site_label
 _atom_site_symmetry_multiplicity
 _atom_site_fract_x
 _atom_site_fract_y
 _atom_site_fract_z
 _atom_site_occupancy
  Pr  Pr0  1  0.25847495  0.49445183  0.86165394  1
  Pr  Pr1  1  0.72883469  0.53107992  0.13236000  1
  Pr  Pr2  1  0.77018665  0.97747491  0.88577977  1
  Pr  Pr3  1  0.24554017  0.97223345  0.14595539  1
  Mn  Mn4  1  0.28705390  0.57916765  0.58691515  1
  Mn  Mn5  1  0.70145325  0.46125967  0.38654807  1
  Mn  Mn6  1  0.99915125  0.97701368  0.99881272  1
  Mn  Mn7  1  0.79039600  0.03497509  0.59191015  1
  Mn  Mn8  1  0.19467927  0.89668166  0.41233035  1
  Mn  Mn9  1  0.50832654  0.50904228  0.01459824  1
  Sb  Sb10  1  0.89025969  0.97762808  0.44888231  1
  Sb  Sb11  1  0.10923916  0.02603131  0.55482087  1
  Sb  Sb12  1  0.02035064  0.53096888  0.79921159  1
  Sb  Sb13  1  0.97513601  0.48700141  0.18420029  1
  Sb  Sb14  1  0.40208866  0.48087826  0.46309850  1
  Sb  Sb15  1  0.60413654  0.46143261  0.56897068  1
  Sb  Sb16  1  0.53224151  0.98365172  0.82216709  1
  Sb  Sb17  1  0.46006314  0.98920872  0.18051572  1
  S  S18  1  0.92610721  0.00683491  0.77327859  1
  S  S19  1  0.06539171  0.97977654  0.19547810  1
  S  S20  1  0.42154551  0.98204498  0.98870969  1
  S  S21  1  0.58244057  0.99022769  0.01812167  1
  S  S22  1  0.17087651  0.95481819  0.89477929  1
  S  S23  1  0.83575429  0.00908435  0.10466354  1
  S  S24  1  0.09422834  0.46549750  0.66568091  1
  S  S25  1  0.90147188  0.46255838  0.34457042  1
  S  S26  1  0.72475086  0.95287380  0.29241419  1
  S  S27  1  0.26651639  0.94670195  0.69957549  1
  S  S28  1  0.15954762  0.40926215  0.44155438  1
  S  S29  1  0.83296859  0.47108500  0.53264592  1
  S  S30  1  0.43809914  0.46358825  0.81359058  1
  S  S31  1  0.57067412  0.45202833  0.19829610  1
  S  S32  1  0.90981107  0.49562069  0.96439917  1
  S  S33  1  0.07851244  0.51806275  0.00584565  1
  S  S34  1  0.66225571  0.44373897  0.89739868  1
  S  S35  1  0.34259105  0.47443431  0.10919193  1
  S  S36  1  0.59449689  0.93913490  0.66766634  1
  S  S37  1  0.42555366  0.99519813  0.36194188  1
  S  S38  1  0.26040388  0.49629141  0.29640264  1
  S  S39  1  0.76120730  0.51342440  0.67394293  1
  S  S40  1  0.66611318  0.99686794  0.43349031  1
  S  S41  1  0.32521011  0.07719578  0.53415263  1
