# generated using pymatgen
data_Pr2Mn3(SbS3)4
_symmetry_space_group_name_H-M   'P 1'
_cell_length_a   20.02960800
_cell_length_b   3.90410600
_cell_length_c   14.95364829
_cell_angle_alpha   90.00000000
_cell_angle_beta   126.33350609
_cell_angle_gamma   90.00000000
_symmetry_Int_Tables_number   1
_chemical_formula_structural   Pr2Mn3(SbS3)4
_chemical_formula_sum   'Pr4 Mn6 Sb8 S24'
_cell_volume   942.00006694
_cell_formula_units_Z   2
loop_
 _symmetry_equiv_pos_site_id
 _symmetry_equiv_pos_as_xyz
  1  'x, y, z'
loop_
 _atom_site_type_symbol
 _atom_site_label
 _atom_site_symmetry_multiplicity
 _atom_site_fract_x
 _atom_site_fract_y
 _atom_site_fract_z
 _atom_site_occupancy
  Pr  Pr0  1  0.25857101  0.49425443  0.86173922  1
  Pr  Pr1  1  0.72883125  0.53042897  0.13215096  1
  Pr  Pr2  1  0.77032034  0.97719289  0.88566886  1
  Pr  Pr3  1  0.24558927  0.97198572  0.14619852  1
  Mn  Mn4  1  0.28735367  0.57895896  0.58702138  1
  Mn  Mn5  1  0.70140720  0.46070682  0.38652591  1
  Mn  Mn6  1  0.99916316  0.97615339  0.99896034  1
  Mn  Mn7  1  0.79045122  0.03550637  0.59187757  1
  Mn  Mn8  1  0.19448174  0.89585599  0.41228169  1
  Mn  Mn9  1  0.50840219  0.50795190  0.01484821  1
  Sb  Sb10  1  0.89031184  0.97744669  0.44884973  1
  Sb  Sb11  1  0.10925786  0.02571025  0.55484026  1
  Sb  Sb12  1  0.02050014  0.52984667  0.79937006  1
  Sb  Sb13  1  0.97510884  0.48774022  0.18411166  1
  Sb  Sb14  1  0.40232797  0.48066629  0.46332680  1
  Sb  Sb15  1  0.60423574  0.46224244  0.56888100  1
  Sb  Sb16  1  0.53223158  0.98305341  0.82227088  1
  Sb  Sb17  1  0.45994998  0.98893227  0.18058103  1
  S  S18  1  0.92620638  0.00810959  0.77351737  1
  S  S19  1  0.06575435  0.98204963  0.19614283  1
  S  S20  1  0.42124893  0.98072185  0.98813992  1
  S  S21  1  0.58228259  0.99033527  0.01797158  1
  S  S22  1  0.17081370  0.95359671  0.89466137  1
  S  S23  1  0.83563588  0.00974650  0.10440336  1
  S  S24  1  0.09423779  0.46592291  0.66561928  1
  S  S25  1  0.90145063  0.46275211  0.34447644  1
  S  S26  1  0.72461100  0.95372391  0.29193512  1
  S  S27  1  0.26678802  0.94741219  0.69993044  1
  S  S28  1  0.15956783  0.40869052  0.44177151  1
  S  S29  1  0.83333703  0.47207101  0.53238690  1
  S  S30  1  0.43851897  0.46395967  0.81388255  1
  S  S31  1  0.57070269  0.45143326  0.19773143  1
  S  S32  1  0.90985581  0.49554304  0.96442735  1
  S  S33  1  0.07848706  0.51953949  0.00559926  1
  S  S34  1  0.66263217  0.44332607  0.89722066  1
  S  S35  1  0.34287893  0.47472220  0.10929567  1
  S  S36  1  0.59459860  0.94095510  0.66762789  1
  S  S37  1  0.42525705  0.99481414  0.36165415  1
  S  S38  1  0.26026710  0.49529317  0.29625788  1
  S  S39  1  0.76097874  0.51238003  0.67390427  1
  S  S40  1  0.66562749  0.99785561  0.43319706  1
  S  S41  1  0.32507713  0.07787624  0.53354094  1
