# generated using pymatgen
data_Pr2Mn3(SbS3)4
_symmetry_space_group_name_H-M   'P 1'
_cell_length_a   20.02960800
_cell_length_b   3.90410600
_cell_length_c   14.95364829
_cell_angle_alpha   90.00000000
_cell_angle_beta   126.33350609
_cell_angle_gamma   90.00000000
_symmetry_Int_Tables_number   1
_chemical_formula_structural   Pr2Mn3(SbS3)4
_chemical_formula_sum   'Pr4 Mn6 Sb8 S24'
_cell_volume   942.00006694
_cell_formula_units_Z   2
loop_
 _symmetry_equiv_pos_site_id
 _symmetry_equiv_pos_as_xyz
  1  'x, y, z'
loop_
 _atom_site_type_symbol
 _atom_site_label
 _atom_site_symmetry_multiplicity
 _atom_site_fract_x
 _atom_site_fract_y
 _atom_site_fract_z
 _atom_site_occupancy
  Pr  Pr0  1  0.25868811  0.49408329  0.86188289  1
  Pr  Pr1  1  0.72888757  0.52984044  0.13199585  1
  Pr  Pr2  1  0.77049637  0.97712565  0.88560354  1
  Pr  Pr3  1  0.24566372  0.97171558  0.14637002  1
  Mn  Mn4  1  0.28754736  0.57891008  0.58713101  1
  Mn  Mn5  1  0.70151493  0.46001533  0.38666976  1
  Mn  Mn6  1  0.99918997  0.97524629  0.99911465  1
  Mn  Mn7  1  0.79038418  0.03643552  0.59180016  1
  Mn  Mn8  1  0.19431790  0.89458353  0.41224848  1
  Mn  Mn9  1  0.50842976  0.50689931  0.01505497  1
  Sb  Sb10  1  0.89036216  0.97718461  0.44886157  1
  Sb  Sb11  1  0.10928378  0.02538644  0.55492874  1
  Sb  Sb12  1  0.02057872  0.52882428  0.79944628  1
  Sb  Sb13  1  0.97505871  0.48857537  0.18403030  1
  Sb  Sb14  1  0.40253493  0.48032670  0.46347157  1
  Sb  Sb15  1  0.60433423  0.46276544  0.56884005  1
  Sb  Sb16  1  0.53224473  0.98243284  0.82233256  1
  Sb  Sb17  1  0.45987779  0.98876313  0.18060682  1
  S  S18  1  0.92633397  0.00891701  0.77382023  1
  S  S19  1  0.06631570  0.98416955  0.19686414  1
  S  S20  1  0.42089040  0.97943037  0.98766463  1
  S  S21  1  0.58184192  0.99011851  0.01754000  1
  S  S22  1  0.17087806  0.95255608  0.89469698  1
  S  S23  1  0.83556278  0.01018920  0.10444178  1
  S  S24  1  0.09429630  0.46651115  0.66570075  1
  S  S25  1  0.90150989  0.46279338  0.34445738  1
  S  S26  1  0.72447735  0.95468613  0.29159972  1
  S  S27  1  0.26707045  0.94799396  0.70027960  1
  S  S28  1  0.15955058  0.40687679  0.44211406  1
  S  S29  1  0.83358634  0.47266358  0.53200008  1
  S  S30  1  0.43891833  0.46382548  0.81408752  1
  S  S31  1  0.57068327  0.45119288  0.19715351  1
  S  S32  1  0.90989469  0.49501746  0.96454799  1
  S  S33  1  0.07855894  0.52128655  0.00551723  1
  S  S34  1  0.66305068  0.44241780  0.89701924  1
  S  S35  1  0.34300851  0.47525014  0.10929287  1
  S  S36  1  0.59481464  0.94212270  0.66760587  1
  S  S37  1  0.42494124  0.99401874  0.36135668  1
  S  S38  1  0.26019046  0.49358159  0.29603212  1
  S  S39  1  0.76093696  0.51114953  0.67395000  1
  S  S40  1  0.66530621  0.99851761  0.43292216  1
  S  S41  1  0.32491669  0.07860486  0.53308137  1
