# generated using pymatgen
data_Pr2Mn3(SbS3)4
_symmetry_space_group_name_H-M   'P 1'
_cell_length_a   20.02960800
_cell_length_b   3.90410600
_cell_length_c   14.95364829
_cell_angle_alpha   90.00000000
_cell_angle_beta   126.33350609
_cell_angle_gamma   90.00000000
_symmetry_Int_Tables_number   1
_chemical_formula_structural   Pr2Mn3(SbS3)4
_chemical_formula_sum   'Pr4 Mn6 Sb8 S24'
_cell_volume   942.00006694
_cell_formula_units_Z   2
loop_
 _symmetry_equiv_pos_site_id
 _symmetry_equiv_pos_as_xyz
  1  'x, y, z'
loop_
 _atom_site_type_symbol
 _atom_site_label
 _atom_site_symmetry_multiplicity
 _atom_site_fract_x
 _atom_site_fract_y
 _atom_site_fract_z
 _atom_site_occupancy
  Pr  Pr0  1  0.25881512  0.49395593  0.86196481  1
  Pr  Pr1  1  0.72889641  0.52945220  0.13181058  1
  Pr  Pr2  1  0.77064789  0.97736087  0.88559936  1
  Pr  Pr3  1  0.24572508  0.97139824  0.14649172  1
  Mn  Mn4  1  0.28759888  0.57891827  0.58715347  1
  Mn  Mn5  1  0.70161993  0.45949466  0.38675770  1
  Mn  Mn6  1  0.99918093  0.97395647  0.99914795  1
  Mn  Mn7  1  0.79023199  0.03724744  0.59162286  1
  Mn  Mn8  1  0.19425504  0.89356718  0.41221737  1
  Mn  Mn9  1  0.50841720  0.50608920  0.01516438  1
  Sb  Sb10  1  0.89040356  0.97703900  0.44891446  1
  Sb  Sb11  1  0.10928901  0.02516882  0.55507472  1
  Sb  Sb12  1  0.02068801  0.52781087  0.79958934  1
  Sb  Sb13  1  0.97500914  0.48955758  0.18396654  1
  Sb  Sb14  1  0.40273416  0.47974539  0.46364680  1
  Sb  Sb15  1  0.60442782  0.46339454  0.56879044  1
  Sb  Sb16  1  0.53227490  0.98207528  0.82228172  1
  Sb  Sb17  1  0.45971176  0.98844364  0.18058282  1
  S  S18  1  0.92651554  0.01037183  0.77402356  1
  S  S19  1  0.06688971  0.98615848  0.19766143  1
  S  S20  1  0.42061399  0.97857122  0.98718794  1
  S  S21  1  0.58146601  0.99036029  0.01719261  1
  S  S22  1  0.17099371  0.95233937  0.89470779  1
  S  S23  1  0.83546652  0.01023766  0.10434340  1
  S  S24  1  0.09433282  0.46782204  0.66567040  1
  S  S25  1  0.90167767  0.46237900  0.34454983  1
  S  S26  1  0.72436666  0.95589658  0.29126011  1
  S  S27  1  0.26723177  0.94810311  0.70046169  1
  S  S28  1  0.15950454  0.40481148  0.44244302  1
  S  S29  1  0.83368349  0.47335935  0.53162017  1
  S  S30  1  0.43918694  0.46368736  0.81439911  1
  S  S31  1  0.57076938  0.45133716  0.19663673  1
  S  S32  1  0.90987164  0.49483597  0.96449056  1
  S  S33  1  0.07876526  0.52249606  0.00557510  1
  S  S34  1  0.66340529  0.44139499  0.89680944  1
  S  S35  1  0.34316518  0.47589310  0.10933225  1
  S  S36  1  0.59497874  0.94294381  0.66760682  1
  S  S37  1  0.42469865  0.99341184  0.36120589  1
  S  S38  1  0.25995447  0.49176423  0.29553570  1
  S  S39  1  0.76096854  0.51018966  0.67414436  1
  S  S40  1  0.66488296  0.99895183  0.43273284  1
  S  S41  1  0.32479773  0.07924680  0.53281911  1
