# generated using pymatgen
data_Pr2Mn3(SbS3)4
_symmetry_space_group_name_H-M   'P 1'
_cell_length_a   20.02960800
_cell_length_b   3.90410600
_cell_length_c   14.95364829
_cell_angle_alpha   90.00000000
_cell_angle_beta   126.33350609
_cell_angle_gamma   90.00000000
_symmetry_Int_Tables_number   1
_chemical_formula_structural   Pr2Mn3(SbS3)4
_chemical_formula_sum   'Pr4 Mn6 Sb8 S24'
_cell_volume   942.00006694
_cell_formula_units_Z   2
loop_
 _symmetry_equiv_pos_site_id
 _symmetry_equiv_pos_as_xyz
  1  'x, y, z'
loop_
 _atom_site_type_symbol
 _atom_site_label
 _atom_site_symmetry_multiplicity
 _atom_site_fract_x
 _atom_site_fract_y
 _atom_site_fract_z
 _atom_site_occupancy
  Pr  Pr0  1  0.25889926  0.49345383  0.86200150  1
  Pr  Pr1  1  0.72885578  0.52897606  0.13153143  1
  Pr  Pr2  1  0.77076303  0.97750947  0.88555527  1
  Pr  Pr3  1  0.24581152  0.97122199  0.14665229  1
  Mn  Mn4  1  0.28762791  0.57862472  0.58713005  1
  Mn  Mn5  1  0.70165803  0.45913674  0.38684937  1
  Mn  Mn6  1  0.99913045  0.97270068  0.99911555  1
  Mn  Mn7  1  0.79006540  0.03754003  0.59132649  1
  Mn  Mn8  1  0.19418257  0.89289199  0.41211351  1
  Mn  Mn9  1  0.50828877  0.50559724  0.01512267  1
  Sb  Sb10  1  0.89050670  0.97716597  0.44900288  1
  Sb  Sb11  1  0.10933871  0.02482735  0.55529913  1
  Sb  Sb12  1  0.02078705  0.52702259  0.79969913  1
  Sb  Sb13  1  0.97497505  0.49037763  0.18384224  1
  Sb  Sb14  1  0.40284524  0.47909896  0.46376271  1
  Sb  Sb15  1  0.60451873  0.46368712  0.56879004  1
  Sb  Sb16  1  0.53230646  0.98192687  0.82237517  1
  Sb  Sb17  1  0.45958822  0.98808756  0.18062534  1
  S  S18  1  0.92659128  0.01195474  0.77411389  1
  S  S19  1  0.06761379  0.98842219  0.19864909  1
  S  S20  1  0.42024498  0.97813239  0.98680005  1
  S  S21  1  0.58115568  0.98993270  0.01693737  1
  S  S22  1  0.17118681  0.95208022  0.89486321  1
  S  S23  1  0.83526279  0.01085062  0.10416635  1
  S  S24  1  0.09432915  0.47023679  0.66559976  1
  S  S25  1  0.90181606  0.46249759  0.34460424  1
  S  S26  1  0.72423792  0.95694439  0.29081883  1
  S  S27  1  0.26722866  0.94767015  0.70052376  1
  S  S28  1  0.15968687  0.40254619  0.44289008  1
  S  S29  1  0.83372972  0.47346487  0.53133356  1
  S  S30  1  0.43938087  0.46408654  0.81456390  1
  S  S31  1  0.57071683  0.45083910  0.19607425  1
  S  S32  1  0.90987028  0.49487490  0.96453314  1
  S  S33  1  0.07901004  0.52432568  0.00558355  1
  S  S34  1  0.66386247  0.44037493  0.89667079  1
  S  S35  1  0.34327231  0.47604310  0.10930853  1
  S  S36  1  0.59517218  0.94367790  0.66775647  1
  S  S37  1  0.42444847  0.99191812  0.36109704  1
  S  S38  1  0.25966691  0.49036675  0.29495409  1
  S  S39  1  0.76116131  0.50837548  0.67427585  1
  S  S40  1  0.66456232  0.99953053  0.43277489  1
  S  S41  1  0.32456936  0.07993887  0.53251100  1
