# generated using pymatgen
data_Pr2Mn3(SbS3)4
_symmetry_space_group_name_H-M   'P 1'
_cell_length_a   20.02960800
_cell_length_b   3.90410600
_cell_length_c   14.95364829
_cell_angle_alpha   90.00000000
_cell_angle_beta   126.33350609
_cell_angle_gamma   90.00000000
_symmetry_Int_Tables_number   1
_chemical_formula_structural   Pr2Mn3(SbS3)4
_chemical_formula_sum   'Pr4 Mn6 Sb8 S24'
_cell_volume   942.00006694
_cell_formula_units_Z   2
loop_
 _symmetry_equiv_pos_site_id
 _symmetry_equiv_pos_as_xyz
  1  'x, y, z'
loop_
 _atom_site_type_symbol
 _atom_site_label
 _atom_site_symmetry_multiplicity
 _atom_site_fract_x
 _atom_site_fract_y
 _atom_site_fract_z
 _atom_site_occupancy
  Pr  Pr0  1  0.25898512  0.49316197  0.86205276  1
  Pr  Pr1  1  0.72875461  0.52849205  0.13118437  1
  Pr  Pr2  1  0.77080601  0.97789849  0.88549036  1
  Pr  Pr3  1  0.24596244  0.97075009  0.14684534  1
  Mn  Mn4  1  0.28771925  0.57834577  0.58717220  1
  Mn  Mn5  1  0.70174629  0.45916002  0.38707025  1
  Mn  Mn6  1  0.99898442  0.97104472  0.99897039  1
  Mn  Mn7  1  0.78982907  0.03808150  0.59076982  1
  Mn  Mn8  1  0.19406047  0.89191164  0.41200312  1
  Mn  Mn9  1  0.50810876  0.50482911  0.01505531  1
  Sb  Sb10  1  0.89059353  0.97741235  0.44918337  1
  Sb  Sb11  1  0.10941424  0.02472991  0.55554491  1
  Sb  Sb12  1  0.02086693  0.52587169  0.79973041  1
  Sb  Sb13  1  0.97485206  0.49082092  0.18364145  1
  Sb  Sb14  1  0.40294397  0.47834259  0.46381755  1
  Sb  Sb15  1  0.60463111  0.46391569  0.56878821  1
  Sb  Sb16  1  0.53233038  0.98165645  0.82248862  1
  Sb  Sb17  1  0.45944938  0.98767938  0.18064045  1
  S  S18  1  0.92668773  0.01317933  0.77406202  1
  S  S19  1  0.06819126  0.99042595  0.19945333  1
  S  S20  1  0.41985641  0.97764946  0.98632433  1
  S  S21  1  0.58084617  0.98907230  0.01659288  1
  S  S22  1  0.17135407  0.95150316  0.89503910  1
  S  S23  1  0.83500828  0.01138482  0.10395030  1
  S  S24  1  0.09416826  0.47262515  0.66526014  1
  S  S25  1  0.90190040  0.46269488  0.34475773  1
  S  S26  1  0.72431224  0.95815752  0.29069880  1
  S  S27  1  0.26724881  0.94779414  0.70062427  1
  S  S28  1  0.15986380  0.40028703  0.44331954  1
  S  S29  1  0.83374971  0.47459583  0.53105070  1
  S  S30  1  0.43948911  0.46443438  0.81484630  1
  S  S31  1  0.57056617  0.45059787  0.19570778  1
  S  S32  1  0.90991896  0.49513869  0.96450022  1
  S  S33  1  0.07924121  0.52538010  0.00551982  1
  S  S34  1  0.66423625  0.43925778  0.89650604  1
  S  S35  1  0.34340116  0.47626967  0.10938623  1
  S  S36  1  0.59524970  0.94441891  0.66767929  1
  S  S37  1  0.42410551  0.99014044  0.36097936  1
  S  S38  1  0.25927969  0.48913981  0.29418454  1
  S  S39  1  0.76136370  0.50670148  0.67448054  1
  S  S40  1  0.66435140  0.99981658  0.43278422  1
  S  S41  1  0.32430425  0.07994811  0.53241148  1
