# generated using pymatgen
data_Pr2Mn3(SbS3)4
_symmetry_space_group_name_H-M   'P 1'
_cell_length_a   20.02960800
_cell_length_b   3.90410600
_cell_length_c   14.95364829
_cell_angle_alpha   90.00000000
_cell_angle_beta   126.33350609
_cell_angle_gamma   90.00000000
_symmetry_Int_Tables_number   1
_chemical_formula_structural   Pr2Mn3(SbS3)4
_chemical_formula_sum   'Pr4 Mn6 Sb8 S24'
_cell_volume   942.00006694
_cell_formula_units_Z   2
loop_
 _symmetry_equiv_pos_site_id
 _symmetry_equiv_pos_as_xyz
  1  'x, y, z'
loop_
 _atom_site_type_symbol
 _atom_site_label
 _atom_site_symmetry_multiplicity
 _atom_site_fract_x
 _atom_site_fract_y
 _atom_site_fract_z
 _atom_site_occupancy
  Pr  Pr0  1  0.26937779  0.49582762  0.86688661  1
  Pr  Pr1  1  0.73399801  0.51546322  0.13306606  1
  Pr  Pr2  1  0.76526363  0.02326434  0.86427865  1
  Pr  Pr3  1  0.23317879  0.99355485  0.13254420  1
  Mn  Mn4  1  0.29745901  0.47140134  0.60050876  1
  Mn  Mn5  1  0.68495175  0.46130640  0.36127621  1
  Mn  Mn6  1  0.00456827  0.98885221  0.01036198  1
  Mn  Mn7  1  0.79705612  0.01051020  0.61868808  1
  Mn  Mn8  1  0.19574891  0.98080395  0.36729474  1
  Mn  Mn9  1  0.48624406  0.46796674  0.98419302  1
  Sb  Sb10  1  0.88908263  0.98869767  0.45099752  1
  Sb  Sb11  1  0.10993135  0.98074249  0.54521202  1
  Sb  Sb12  1  0.03628570  0.52716157  0.82197364  1
  Sb  Sb13  1  0.96740913  0.50005013  0.19017711  1
  Sb  Sb14  1  0.39224073  0.50201478  0.44791345  1
  Sb  Sb15  1  0.60609761  0.47610698  0.54603773  1
  Sb  Sb16  1  0.53406472  0.97992730  0.80806375  1
  Sb  Sb17  1  0.46619383  0.01803081  0.19034572  1
  S  S18  1  0.93519988  0.01425326  0.80642892  1
  S  S19  1  0.06500606  0.00517566  0.19800631  1
  S  S20  1  0.41807589  0.95877545  0.99008792  1
  S  S21  1  0.58538478  0.02780786  0.01630621  1
  S  S22  1  0.17084241  0.05369553  0.90093907  1
  S  S23  1  0.82652808  0.03832786  0.10102301  1
  S  S24  1  0.09072582  0.49599790  0.64551002  1
  S  S25  1  0.91487825  0.48367612  0.35596837  1
  S  S26  1  0.74056724  0.98939586  0.30459842  1
  S  S27  1  0.25995389  0.01091894  0.70986055  1
  S  S28  1  0.16544271  0.52282796  0.43260846  1
  S  S29  1  0.81401770  0.49706527  0.54441885  1
  S  S30  1  0.43060218  0.46892886  0.79542904  1
  S  S31  1  0.55459667  0.52143191  0.18221564  1
  S  S32  1  0.92024108  0.50557291  0.99059150  1
  S  S33  1  0.09205880  0.49408087  0.02940164  1
  S  S34  1  0.66397147  0.55496378  0.89483556  1
  S  S35  1  0.32723124  0.48003469  0.09181395  1
  S  S36  1  0.59082314  0.99146255  0.65066861  1
  S  S37  1  0.39904147  0.98478270  0.34269616  1
  S  S38  1  0.24368854  0.46516532  0.31668373  1
  S  S39  1  0.75906372  0.52276920  0.68751195  1
  S  S40  1  0.66357714  0.99505911  0.44658019  1
  S  S41  1  0.33173173  0.98086342  0.55559447  1
