# generated using pymatgen
data_Pr2Mn3(SbS3)4
_symmetry_space_group_name_H-M   'P 1'
_cell_length_a   20.02960800
_cell_length_b   3.90410600
_cell_length_c   14.95364829
_cell_angle_alpha   90.00000000
_cell_angle_beta   126.33350609
_cell_angle_gamma   90.00000000
_symmetry_Int_Tables_number   1
_chemical_formula_structural   Pr2Mn3(SbS3)4
_chemical_formula_sum   'Pr4 Mn6 Sb8 S24'
_cell_volume   942.00006694
_cell_formula_units_Z   2
loop_
 _symmetry_equiv_pos_site_id
 _symmetry_equiv_pos_as_xyz
  1  'x, y, z'
loop_
 _atom_site_type_symbol
 _atom_site_label
 _atom_site_symmetry_multiplicity
 _atom_site_fract_x
 _atom_site_fract_y
 _atom_site_fract_z
 _atom_site_occupancy
  Pr  Pr0  1  0.25911906  0.49289840  0.86218923  1
  Pr  Pr1  1  0.72864082  0.52789476  0.13083972  1
  Pr  Pr2  1  0.77085899  0.97805945  0.88540531  1
  Pr  Pr3  1  0.24599990  0.97040890  0.14689950  1
  Mn  Mn4  1  0.28778406  0.57808384  0.58720449  1
  Mn  Mn5  1  0.70178745  0.45958022  0.38728664  1
  Mn  Mn6  1  0.99876148  0.96908791  0.99861086  1
  Mn  Mn7  1  0.78949204  0.03845108  0.59006583  1
  Mn  Mn8  1  0.19395058  0.89082169  0.41182013  1
  Mn  Mn9  1  0.50791624  0.50498854  0.01492778  1
  Sb  Sb10  1  0.89073730  0.97751326  0.44936937  1
  Sb  Sb11  1  0.10953851  0.02448193  0.55573295  1
  Sb  Sb12  1  0.02090113  0.52547446  0.79980679  1
  Sb  Sb13  1  0.97479004  0.49108974  0.18356322  1
  Sb  Sb14  1  0.40304310  0.47772373  0.46393794  1
  Sb  Sb15  1  0.60462755  0.46391189  0.56871650  1
  Sb  Sb16  1  0.53240821  0.98116452  0.82265389  1
  Sb  Sb17  1  0.45927617  0.98705837  0.18059496  1
  S  S18  1  0.92675675  0.01417404  0.77391665  1
  S  S19  1  0.06854043  0.99240596  0.20012157  1
  S  S20  1  0.41932705  0.97728170  0.98572586  1
  S  S21  1  0.58063237  0.98814533  0.01631241  1
  S  S22  1  0.17146610  0.95086354  0.89523884  1
  S  S23  1  0.83476575  0.01168244  0.10375217  1
  S  S24  1  0.09415370  0.47501211  0.66495779  1
  S  S25  1  0.90199036  0.46293865  0.34504375  1
  S  S26  1  0.72431439  0.95917837  0.29074420  1
  S  S27  1  0.26709988  0.94814358  0.70056910  1
  S  S28  1  0.15989954  0.39770410  0.44358844  1
  S  S29  1  0.83385455  0.47567254  0.53106975  1
  S  S30  1  0.43969057  0.46487526  0.81535505  1
  S  S31  1  0.57043720  0.45099537  0.19533816  1
  S  S32  1  0.91001170  0.49555361  0.96455844  1
  S  S33  1  0.07943593  0.52622250  0.00534628  1
  S  S34  1  0.66469344  0.43779094  0.89645564  1
  S  S35  1  0.34357390  0.47689284  0.10971331  1
  S  S36  1  0.59522194  0.94517690  0.66720319  1
  S  S37  1  0.42372124  0.98934587  0.36079087  1
  S  S38  1  0.25887744  0.48851880  0.29361854  1
  S  S39  1  0.76145724  0.50525643  0.67430445  1
  S  S40  1  0.66423804  0.99981741  0.43282404  1
  S  S41  1  0.32408233  0.08014094  0.53228648  1
