# generated using pymatgen
data_Pr2Mn3(SbS3)4
_symmetry_space_group_name_H-M   'P 1'
_cell_length_a   20.02960800
_cell_length_b   3.90410600
_cell_length_c   14.95364829
_cell_angle_alpha   90.00000000
_cell_angle_beta   126.33350609
_cell_angle_gamma   90.00000000
_symmetry_Int_Tables_number   1
_chemical_formula_structural   Pr2Mn3(SbS3)4
_chemical_formula_sum   'Pr4 Mn6 Sb8 S24'
_cell_volume   942.00006694
_cell_formula_units_Z   2
loop_
 _symmetry_equiv_pos_site_id
 _symmetry_equiv_pos_as_xyz
  1  'x, y, z'
loop_
 _atom_site_type_symbol
 _atom_site_label
 _atom_site_symmetry_multiplicity
 _atom_site_fract_x
 _atom_site_fract_y
 _atom_site_fract_z
 _atom_site_occupancy
  Pr  Pr0  1  0.25925903  0.49281889  0.86240179  1
  Pr  Pr1  1  0.72854684  0.52731090  0.13057432  1
  Pr  Pr2  1  0.77089926  0.97823161  0.88527741  1
  Pr  Pr3  1  0.24607586  0.96977593  0.14696907  1
  Mn  Mn4  1  0.28789387  0.57784221  0.58725067  1
  Mn  Mn5  1  0.70185820  0.46014267  0.38744951  1
  Mn  Mn6  1  0.99853239  0.96783406  0.99822311  1
  Mn  Mn7  1  0.78919759  0.03851703  0.58963987  1
  Mn  Mn8  1  0.19371453  0.88995733  0.41148624  1
  Mn  Mn9  1  0.50770961  0.50479171  0.01466816  1
  Sb  Sb10  1  0.89090071  0.97721575  0.44955871  1
  Sb  Sb11  1  0.10967176  0.02408109  0.55587926  1
  Sb  Sb12  1  0.02099679  0.52559055  0.79989415  1
  Sb  Sb13  1  0.97470014  0.49116921  0.18339088  1
  Sb  Sb14  1  0.40319275  0.47694407  0.46412446  1
  Sb  Sb15  1  0.60462314  0.46368468  0.56864051  1
  Sb  Sb16  1  0.53243863  0.98063881  0.82278056  1
  Sb  Sb17  1  0.45922688  0.98680106  0.18059189  1
  S  S18  1  0.92682837  0.01482290  0.77380753  1
  S  S19  1  0.06883172  0.99413185  0.20071021  1
  S  S20  1  0.41901394  0.97682269  0.98533924  1
  S  S21  1  0.58037381  0.98712253  0.01605536  1
  S  S22  1  0.17139272  0.95044289  0.89529810  1
  S  S23  1  0.83455207  0.01115884  0.10368541  1
  S  S24  1  0.09397969  0.47710491  0.66438533  1
  S  S25  1  0.90193329  0.46328858  0.34513984  1
  S  S26  1  0.72431909  0.96045637  0.29079911  1
  S  S27  1  0.26705736  0.94839614  0.70055672  1
  S  S28  1  0.16006581  0.39535053  0.44390063  1
  S  S29  1  0.83396628  0.47691129  0.53111093  1
  S  S30  1  0.43991243  0.46616386  0.81574722  1
  S  S31  1  0.57024023  0.45129868  0.19498385  1
  S  S32  1  0.91011214  0.49594436  0.96466590  1
  S  S33  1  0.07956605  0.52677294  0.00514349  1
  S  S34  1  0.66501706  0.43605989  0.89630251  1
  S  S35  1  0.34363543  0.47729995  0.10988159  1
  S  S36  1  0.59506069  0.94539529  0.66665883  1
  S  S37  1  0.42348698  0.98950444  0.36063309  1
  S  S38  1  0.25854004  0.48851739  0.29294483  1
  S  S39  1  0.76159838  0.50433396  0.67432367  1
  S  S40  1  0.66394153  0.00004269  0.43270278  1
  S  S41  1  0.32409238  0.07957327  0.53248969  1
