# generated using pymatgen
data_Pr2Mn3(SbS3)4
_symmetry_space_group_name_H-M   'P 1'
_cell_length_a   20.02960800
_cell_length_b   3.90410600
_cell_length_c   14.95364829
_cell_angle_alpha   90.00000000
_cell_angle_beta   126.33350609
_cell_angle_gamma   90.00000000
_symmetry_Int_Tables_number   1
_chemical_formula_structural   Pr2Mn3(SbS3)4
_chemical_formula_sum   'Pr4 Mn6 Sb8 S24'
_cell_volume   942.00006694
_cell_formula_units_Z   2
loop_
 _symmetry_equiv_pos_site_id
 _symmetry_equiv_pos_as_xyz
  1  'x, y, z'
loop_
 _atom_site_type_symbol
 _atom_site_label
 _atom_site_symmetry_multiplicity
 _atom_site_fract_x
 _atom_site_fract_y
 _atom_site_fract_z
 _atom_site_occupancy
  Pr  Pr0  1  0.25941396  0.49281217  0.86268622  1
  Pr  Pr1  1  0.72846872  0.52698131  0.13033026  1
  Pr  Pr2  1  0.77090871  0.97803918  0.88508899  1
  Pr  Pr3  1  0.24607740  0.96925202  0.14698025  1
  Mn  Mn4  1  0.28785064  0.57716880  0.58707860  1
  Mn  Mn5  1  0.70208190  0.46076298  0.38774524  1
  Mn  Mn6  1  0.99835723  0.96672394  0.99787672  1
  Mn  Mn7  1  0.78899847  0.03855830  0.58937052  1
  Mn  Mn8  1  0.19346320  0.88947287  0.41123611  1
  Mn  Mn9  1  0.50748964  0.50429260  0.01443731  1
  Sb  Sb10  1  0.89093099  0.97727330  0.44967199  1
  Sb  Sb11  1  0.10979594  0.02375042  0.55599321  1
  Sb  Sb12  1  0.02111851  0.52573258  0.79998469  1
  Sb  Sb13  1  0.97461170  0.49100564  0.18330778  1
  Sb  Sb14  1  0.40331447  0.47633402  0.46428171  1
  Sb  Sb15  1  0.60453353  0.46301751  0.56844240  1
  Sb  Sb16  1  0.53251464  0.97991621  0.82293968  1
  Sb  Sb17  1  0.45926548  0.98670482  0.18061652  1
  S  S18  1  0.92684338  0.01547690  0.77369383  1
  S  S19  1  0.06909505  0.99551191  0.20124285  1
  S  S20  1  0.41852970  0.97658246  0.98463773  1
  S  S21  1  0.58024710  0.98660680  0.01581446  1
  S  S22  1  0.17135344  0.95045888  0.89523483  1
  S  S23  1  0.83429390  0.00982023  0.10353478  1
  S  S24  1  0.09377198  0.47917795  0.66371012  1
  S  S25  1  0.90184372  0.46367556  0.34524361  1
  S  S26  1  0.72440114  0.96113919  0.29089524  1
  S  S27  1  0.26712229  0.94906399  0.70083735  1
  S  S28  1  0.16002877  0.39345462  0.44409708  1
  S  S29  1  0.83409217  0.47784543  0.53118670  1
  S  S30  1  0.44014858  0.46680401  0.81627329  1
  S  S31  1  0.57009896  0.45170845  0.19470567  1
  S  S32  1  0.91019498  0.49651837  0.96474022  1
  S  S33  1  0.07970166  0.52753163  0.00506641  1
  S  S34  1  0.66545245  0.43402789  0.89632885  1
  S  S35  1  0.34362763  0.47761141  0.10998361  1
  S  S36  1  0.59484544  0.94509766  0.66610723  1
  S  S37  1  0.42323993  0.98992975  0.36042930  1
  S  S38  1  0.25823161  0.48915382  0.29251696  1
  S  S39  1  0.76174203  0.50296827  0.67432802  1
  S  S40  1  0.66364651  0.00001102  0.43251510  1
  S  S41  1  0.32415855  0.07848543  0.53270366  1
