# generated using pymatgen
data_Pr2Mn3(SbS3)4
_symmetry_space_group_name_H-M   'P 1'
_cell_length_a   20.02960800
_cell_length_b   3.90410600
_cell_length_c   14.95364829
_cell_angle_alpha   90.00000000
_cell_angle_beta   126.33350609
_cell_angle_gamma   90.00000000
_symmetry_Int_Tables_number   1
_chemical_formula_structural   Pr2Mn3(SbS3)4
_chemical_formula_sum   'Pr4 Mn6 Sb8 S24'
_cell_volume   942.00006694
_cell_formula_units_Z   2
loop_
 _symmetry_equiv_pos_site_id
 _symmetry_equiv_pos_as_xyz
  1  'x, y, z'
loop_
 _atom_site_type_symbol
 _atom_site_label
 _atom_site_symmetry_multiplicity
 _atom_site_fract_x
 _atom_site_fract_y
 _atom_site_fract_z
 _atom_site_occupancy
  Pr  Pr0  1  0.25954582  0.49262917  0.86288746  1
  Pr  Pr1  1  0.72838741  0.52645384  0.13006594  1
  Pr  Pr2  1  0.77084911  0.97782618  0.88482296  1
  Pr  Pr3  1  0.24603479  0.96912303  0.14702101  1
  Mn  Mn4  1  0.28778181  0.57663847  0.58685311  1
  Mn  Mn5  1  0.70236634  0.46109299  0.38794667  1
  Mn  Mn6  1  0.99819756  0.96534744  0.99767268  1
  Mn  Mn7  1  0.78876820  0.03809710  0.58914193  1
  Mn  Mn8  1  0.19329336  0.88911285  0.41122776  1
  Mn  Mn9  1  0.50736305  0.50370952  0.01418604  1
  Sb  Sb10  1  0.89099518  0.97766929  0.44985428  1
  Sb  Sb11  1  0.10988326  0.02310943  0.55602705  1
  Sb  Sb12  1  0.02120685  0.52557585  0.80006724  1
  Sb  Sb13  1  0.97448603  0.49074187  0.18320495  1
  Sb  Sb14  1  0.40339333  0.47543784  0.46434510  1
  Sb  Sb15  1  0.60449482  0.46225778  0.56822212  1
  Sb  Sb16  1  0.53258103  0.97930137  0.82313345  1
  Sb  Sb17  1  0.45929318  0.98630160  0.18049139  1
  S  S18  1  0.92693669  0.01653799  0.77359340  1
  S  S19  1  0.06949661  0.99656422  0.20192923  1
  S  S20  1  0.41813869  0.97643964  0.98399987  1
  S  S21  1  0.58018468  0.98651769  0.01562300  1
  S  S22  1  0.17124886  0.95059528  0.89516095  1
  S  S23  1  0.83408510  0.00828322  0.10347199  1
  S  S24  1  0.09361456  0.48156057  0.66319216  1
  S  S25  1  0.90173634  0.46461689  0.34524689  1
  S  S26  1  0.72452908  0.96136097  0.29104108  1
  S  S27  1  0.26743560  0.94914445  0.70124804  1
  S  S28  1  0.16003915  0.39120322  0.44434248  1
  S  S29  1  0.83405650  0.47860938  0.53129543  1
  S  S30  1  0.44027643  0.46766696  0.81676407  1
  S  S31  1  0.56987506  0.45254041  0.19433762  1
  S  S32  1  0.91034499  0.49699760  0.96497838  1
  S  S33  1  0.07992099  0.52799883  0.00490265  1
  S  S34  1  0.66582885  0.43232003  0.89652041  1
  S  S35  1  0.34365437  0.47790612  0.11011192  1
  S  S36  1  0.59470493  0.94552298  0.66579479  1
  S  S37  1  0.42298835  0.98981252  0.36021171  1
  S  S38  1  0.25814719  0.48961407  0.29231136  1
  S  S39  1  0.76174366  0.50142399  0.67424499  1
  S  S40  1  0.66329991  0.00046006  0.43214111  1
  S  S41  1  0.32423141  0.07654365  0.53304512  1
