# generated using pymatgen
data_Pr2Mn3(SbS3)4
_symmetry_space_group_name_H-M   'P 1'
_cell_length_a   20.02960800
_cell_length_b   3.90410600
_cell_length_c   14.95364829
_cell_angle_alpha   90.00000000
_cell_angle_beta   126.33350609
_cell_angle_gamma   90.00000000
_symmetry_Int_Tables_number   1
_chemical_formula_structural   Pr2Mn3(SbS3)4
_chemical_formula_sum   'Pr4 Mn6 Sb8 S24'
_cell_volume   942.00006694
_cell_formula_units_Z   2
loop_
 _symmetry_equiv_pos_site_id
 _symmetry_equiv_pos_as_xyz
  1  'x, y, z'
loop_
 _atom_site_type_symbol
 _atom_site_label
 _atom_site_symmetry_multiplicity
 _atom_site_fract_x
 _atom_site_fract_y
 _atom_site_fract_z
 _atom_site_occupancy
  Pr  Pr0  1  0.25969343  0.49265350  0.86310166  1
  Pr  Pr1  1  0.72838101  0.52609703  0.12981628  1
  Pr  Pr2  1  0.77092266  0.97742388  0.88464089  1
  Pr  Pr3  1  0.24604432  0.96918722  0.14709925  1
  Mn  Mn4  1  0.28759097  0.57608423  0.58661645  1
  Mn  Mn5  1  0.70258639  0.46117634  0.38812106  1
  Mn  Mn6  1  0.99814930  0.96458619  0.99746470  1
  Mn  Mn7  1  0.78860412  0.03788977  0.58892539  1
  Mn  Mn8  1  0.19319042  0.88884253  0.41126927  1
  Mn  Mn9  1  0.50736607  0.50361509  0.01396394  1
  Sb  Sb10  1  0.89101012  0.97820635  0.44998091  1
  Sb  Sb11  1  0.10996649  0.02245285  0.55609170  1
  Sb  Sb12  1  0.02129811  0.52539134  0.80016421  1
  Sb  Sb13  1  0.97433440  0.49060830  0.18312199  1
  Sb  Sb14  1  0.40352084  0.47461423  0.46446924  1
  Sb  Sb15  1  0.60448945  0.46178570  0.56813292  1
  Sb  Sb16  1  0.53263812  0.97857632  0.82337092  1
  Sb  Sb17  1  0.45942141  0.98597008  0.18049008  1
  S  S18  1  0.92704843  0.01681426  0.77332806  1
  S  S19  1  0.06985481  0.99787930  0.20258603  1
  S  S20  1  0.41772745  0.97632078  0.98330650  1
  S  S21  1  0.58016750  0.98618811  0.01562869  1
  S  S22  1  0.17114437  0.95111612  0.89524226  1
  S  S23  1  0.83374281  0.00689284  0.10321484  1
  S  S24  1  0.09364127  0.48298191  0.66261148  1
  S  S25  1  0.90149978  0.46502356  0.34521981  1
  S  S26  1  0.72491011  0.96178924  0.29147965  1
  S  S27  1  0.26766227  0.94914561  0.70156196  1
  S  S28  1  0.16017927  0.38894129  0.44497452  1
  S  S29  1  0.83394407  0.47964216  0.53130879  1
  S  S30  1  0.44047949  0.46881932  0.81719095  1
  S  S31  1  0.56984602  0.45407861  0.19422326  1
  S  S32  1  0.91057854  0.49723745  0.96525195  1
  S  S33  1  0.08010327  0.52845758  0.00485403  1
  S  S34  1  0.66635483  0.43022308  0.89677593  1
  S  S35  1  0.34378386  0.47740827  0.11038445  1
  S  S36  1  0.59461289  0.94585247  0.66570298  1
  S  S37  1  0.42263899  0.98996632  0.36001968  1
  S  S38  1  0.25803213  0.49009804  0.29204186  1
  S  S39  1  0.76179715  0.49982793  0.67423770  1
  S  S40  1  0.66296561  0.00072157  0.43172720  1
  S  S41  1  0.32435131  0.07485505  0.53326925  1
