# generated using pymatgen
data_Pr2Mn3(SbS3)4
_symmetry_space_group_name_H-M   'P 1'
_cell_length_a   20.02960800
_cell_length_b   3.90410600
_cell_length_c   14.95364829
_cell_angle_alpha   90.00000000
_cell_angle_beta   126.33350609
_cell_angle_gamma   90.00000000
_symmetry_Int_Tables_number   1
_chemical_formula_structural   Pr2Mn3(SbS3)4
_chemical_formula_sum   'Pr4 Mn6 Sb8 S24'
_cell_volume   942.00006694
_cell_formula_units_Z   2
loop_
 _symmetry_equiv_pos_site_id
 _symmetry_equiv_pos_as_xyz
  1  'x, y, z'
loop_
 _atom_site_type_symbol
 _atom_site_label
 _atom_site_symmetry_multiplicity
 _atom_site_fract_x
 _atom_site_fract_y
 _atom_site_fract_z
 _atom_site_occupancy
  Pr  Pr0  1  0.25979664  0.49272079  0.86328275  1
  Pr  Pr1  1  0.72832759  0.52574103  0.12955461  1
  Pr  Pr2  1  0.77095784  0.97702795  0.88449601  1
  Pr  Pr3  1  0.24605256  0.96922579  0.14720241  1
  Mn  Mn4  1  0.28747779  0.57599399  0.58663612  1
  Mn  Mn5  1  0.70272425  0.46143681  0.38822993  1
  Mn  Mn6  1  0.99817393  0.96395204  0.99713587  1
  Mn  Mn7  1  0.78835957  0.03770985  0.58859031  1
  Mn  Mn8  1  0.19315745  0.88860898  0.41134637  1
  Mn  Mn9  1  0.50736236  0.50446189  0.01378897  1
  Sb  Sb10  1  0.89109179  0.97850932  0.45019736  1
  Sb  Sb11  1  0.11000997  0.02179310  0.55609371  1
  Sb  Sb12  1  0.02134404  0.52520122  0.80017143  1
  Sb  Sb13  1  0.97412260  0.49085701  0.18305417  1
  Sb  Sb14  1  0.40364725  0.47406278  0.46456645  1
  Sb  Sb15  1  0.60444676  0.46156327  0.56801151  1
  Sb  Sb16  1  0.53266781  0.97774139  0.82355519  1
  Sb  Sb17  1  0.45957929  0.98533173  0.18053056  1
  S  S18  1  0.92715171  0.01732099  0.77300623  1
  S  S19  1  0.07010864  0.99876375  0.20292777  1
  S  S20  1  0.41734898  0.97628573  0.98263209  1
  S  S21  1  0.58013246  0.98583140  0.01563901  1
  S  S22  1  0.17104676  0.95124394  0.89533288  1
  S  S23  1  0.83334854  0.00622916  0.10300074  1
  S  S24  1  0.09371962  0.48448175  0.66190456  1
  S  S25  1  0.90137806  0.46581962  0.34522121  1
  S  S26  1  0.72509054  0.96227198  0.29170626  1
  S  S27  1  0.26785218  0.94922609  0.70213307  1
  S  S28  1  0.16021136  0.38733233  0.44536929  1
  S  S29  1  0.83384897  0.48107881  0.53152880  1
  S  S30  1  0.44061526  0.47035302  0.81761975  1
  S  S31  1  0.56960230  0.45588301  0.19398217  1
  S  S32  1  0.91085128  0.49783437  0.96554679  1
  S  S33  1  0.08031025  0.52917283  0.00470456  1
  S  S34  1  0.66693020  0.42907129  0.89695118  1
  S  S35  1  0.34412898  0.47679278  0.11081572  1
  S  S36  1  0.59452930  0.94665064  0.66561913  1
  S  S37  1  0.42227926  0.99027392  0.35970919  1
  S  S38  1  0.25794419  0.49006496  0.29190364  1
  S  S39  1  0.76193696  0.49917062  0.67424274  1
  S  S40  1  0.66269229  0.00089240  0.43148924  1
  S  S41  1  0.32451779  0.07346751  0.53340540  1
