# generated using pymatgen
data_Pr2Mn3(SbS3)4
_symmetry_space_group_name_H-M   'P 1'
_cell_length_a   20.02960800
_cell_length_b   3.90410600
_cell_length_c   14.95364829
_cell_angle_alpha   90.00000000
_cell_angle_beta   126.33350609
_cell_angle_gamma   90.00000000
_symmetry_Int_Tables_number   1
_chemical_formula_structural   Pr2Mn3(SbS3)4
_chemical_formula_sum   'Pr4 Mn6 Sb8 S24'
_cell_volume   942.00006694
_cell_formula_units_Z   2
loop_
 _symmetry_equiv_pos_site_id
 _symmetry_equiv_pos_as_xyz
  1  'x, y, z'
loop_
 _atom_site_type_symbol
 _atom_site_label
 _atom_site_symmetry_multiplicity
 _atom_site_fract_x
 _atom_site_fract_y
 _atom_site_fract_z
 _atom_site_occupancy
  Pr  Pr0  1  0.25987948  0.49310847  0.86346038  1
  Pr  Pr1  1  0.72823059  0.52506003  0.12927367  1
  Pr  Pr2  1  0.77097981  0.97652973  0.88431984  1
  Pr  Pr3  1  0.24612682  0.96942735  0.14741594  1
  Mn  Mn4  1  0.28731990  0.57618321  0.58653967  1
  Mn  Mn5  1  0.70292778  0.46185837  0.38831088  1
  Mn  Mn6  1  0.99809163  0.96343385  0.99666287  1
  Mn  Mn7  1  0.78804650  0.03793808  0.58811079  1
  Mn  Mn8  1  0.19322656  0.88829930  0.41133839  1
  Mn  Mn9  1  0.50738339  0.50515895  0.01361732  1
  Sb  Sb10  1  0.89120760  0.97863542  0.45046888  1
  Sb  Sb11  1  0.11012397  0.02108109  0.55616334  1
  Sb  Sb12  1  0.02135888  0.52512474  0.80012392  1
  Sb  Sb13  1  0.97390378  0.49127258  0.18277484  1
  Sb  Sb14  1  0.40372739  0.47391751  0.46465207  1
  Sb  Sb15  1  0.60437104  0.46109796  0.56787461  1
  Sb  Sb16  1  0.53280073  0.97692121  0.82371565  1
  Sb  Sb17  1  0.45970747  0.98479371  0.18051852  1
  S  S18  1  0.92704180  0.01753655  0.77250208  1
  S  S19  1  0.07032696  0.00059692  0.20318870  1
  S  S20  1  0.41711603  0.97697731  0.98207680  1
  S  S21  1  0.58010534  0.98566402  0.01570408  1
  S  S22  1  0.17091858  0.95152258  0.89517849  1
  S  S23  1  0.83321992  0.00548925  0.10295063  1
  S  S24  1  0.09371630  0.48579796  0.66117259  1
  S  S25  1  0.90140443  0.46636748  0.34532713  1
  S  S26  1  0.72514840  0.96274128  0.29180030  1
  S  S27  1  0.26797833  0.94919927  0.70257292  1
  S  S28  1  0.16017398  0.38575646  0.44559204  1
  S  S29  1  0.83392993  0.48232969  0.53169855  1
  S  S30  1  0.44059725  0.47260051  0.81809500  1
  S  S31  1  0.56936346  0.45772839  0.19390886  1
  S  S32  1  0.91118804  0.49823606  0.96601620  1
  S  S33  1  0.08049423  0.52938679  0.00445747  1
  S  S34  1  0.66750205  0.42813543  0.89713157  1
  S  S35  1  0.34436533  0.47598924  0.11136536  1
  S  S36  1  0.59444142  0.94743420  0.66564714  1
  S  S37  1  0.42188928  0.99028609  0.35932342  1
  S  S38  1  0.25778546  0.48983332  0.29176054  1
  S  S39  1  0.76230527  0.49872207  0.67440994  1
  S  S40  1  0.66242800  0.00137755  0.43103581  1
  S  S41  1  0.32471293  0.07247698  0.53347696  1
