# generated using pymatgen
data_Pr2Mn3(SbS3)4
_symmetry_space_group_name_H-M   'P 1'
_cell_length_a   20.02960800
_cell_length_b   3.90410600
_cell_length_c   14.95364829
_cell_angle_alpha   90.00000000
_cell_angle_beta   126.33350609
_cell_angle_gamma   90.00000000
_symmetry_Int_Tables_number   1
_chemical_formula_structural   Pr2Mn3(SbS3)4
_chemical_formula_sum   'Pr4 Mn6 Sb8 S24'
_cell_volume   942.00006694
_cell_formula_units_Z   2
loop_
 _symmetry_equiv_pos_site_id
 _symmetry_equiv_pos_as_xyz
  1  'x, y, z'
loop_
 _atom_site_type_symbol
 _atom_site_label
 _atom_site_symmetry_multiplicity
 _atom_site_fract_x
 _atom_site_fract_y
 _atom_site_fract_z
 _atom_site_occupancy
  Pr  Pr0  1  0.25999119  0.49350680  0.86373965  1
  Pr  Pr1  1  0.72816101  0.52424610  0.12917214  1
  Pr  Pr2  1  0.77101873  0.97609501  0.88408847  1
  Pr  Pr3  1  0.24619183  0.96964231  0.14770345  1
  Mn  Mn4  1  0.28703703  0.57646301  0.58630179  1
  Mn  Mn5  1  0.70303508  0.46236214  0.38836250  1
  Mn  Mn6  1  0.99812599  0.96310126  0.99626616  1
  Mn  Mn7  1  0.78783205  0.03816923  0.58770259  1
  Mn  Mn8  1  0.19322684  0.88798042  0.41121556  1
  Mn  Mn9  1  0.50746147  0.50596889  0.01350509  1
  Sb  Sb10  1  0.89126644  0.97892500  0.45062199  1
  Sb  Sb11  1  0.11033761  0.02087658  0.55642292  1
  Sb  Sb12  1  0.02138278  0.52507488  0.80011318  1
  Sb  Sb13  1  0.97373052  0.49136163  0.18255062  1
  Sb  Sb14  1  0.40388788  0.47361168  0.46480101  1
  Sb  Sb15  1  0.60421691  0.46068306  0.56773666  1
  Sb  Sb16  1  0.53286227  0.97649942  0.82376196  1
  Sb  Sb17  1  0.45969487  0.98436588  0.18043033  1
  S  S18  1  0.92690174  0.01732694  0.77187551  1
  S  S19  1  0.07055120  0.00209740  0.20358848  1
  S  S20  1  0.41699549  0.97759437  0.98179693  1
  S  S21  1  0.58015503  0.98537588  0.01564236  1
  S  S22  1  0.17089433  0.95259513  0.89511609  1
  S  S23  1  0.83309528  0.00511001  0.10299344  1
  S  S24  1  0.09374849  0.48667896  0.66049731  1
  S  S25  1  0.90142866  0.46602528  0.34545339  1
  S  S26  1  0.72528080  0.96345007  0.29194252  1
  S  S27  1  0.26816386  0.94829279  0.70303512  1
  S  S28  1  0.16001510  0.38428640  0.44566777  1
  S  S29  1  0.83392751  0.48343641  0.53187778  1
  S  S30  1  0.44049066  0.47551453  0.81825885  1
  S  S31  1  0.56906393  0.46011935  0.19389119  1
  S  S32  1  0.91153631  0.49881168  0.96661584  1
  S  S33  1  0.08070380  0.52893587  0.00424930  1
  S  S34  1  0.66804136  0.42699675  0.89740189  1
  S  S35  1  0.34429936  0.47538155  0.11146020  1
  S  S36  1  0.59424201  0.94819422  0.66565131  1
  S  S37  1  0.42161335  0.99029466  0.35893458  1
  S  S38  1  0.25769492  0.48917806  0.29160437  1
  S  S39  1  0.76262405  0.49761727  0.67446379  1
  S  S40  1  0.66229687  0.00197309  0.43060084  1
  S  S41  1  0.32491660  0.07125054  0.53360395  1
