# generated using pymatgen
data_Pr2Mn3(SbS3)4
_symmetry_space_group_name_H-M   'P 1'
_cell_length_a   20.02960800
_cell_length_b   3.90410600
_cell_length_c   14.95364829
_cell_angle_alpha   90.00000000
_cell_angle_beta   126.33350609
_cell_angle_gamma   90.00000000
_symmetry_Int_Tables_number   1
_chemical_formula_structural   Pr2Mn3(SbS3)4
_chemical_formula_sum   'Pr4 Mn6 Sb8 S24'
_cell_volume   942.00006694
_cell_formula_units_Z   2
loop_
 _symmetry_equiv_pos_site_id
 _symmetry_equiv_pos_as_xyz
  1  'x, y, z'
loop_
 _atom_site_type_symbol
 _atom_site_label
 _atom_site_symmetry_multiplicity
 _atom_site_fract_x
 _atom_site_fract_y
 _atom_site_fract_z
 _atom_site_occupancy
  Pr  Pr0  1  0.26000840  0.49385356  0.86388626  1
  Pr  Pr1  1  0.72806069  0.52357906  0.12911602  1
  Pr  Pr2  1  0.77102348  0.97557575  0.88382006  1
  Pr  Pr3  1  0.24627899  0.96963873  0.14801819  1
  Mn  Mn4  1  0.28683679  0.57676177  0.58610473  1
  Mn  Mn5  1  0.70318345  0.46206441  0.38848657  1
  Mn  Mn6  1  0.99814169  0.96257832  0.99577680  1
  Mn  Mn7  1  0.78768476  0.03883044  0.58735202  1
  Mn  Mn8  1  0.19326087  0.88787673  0.41111748  1
  Mn  Mn9  1  0.50755225  0.50706370  0.01346582  1
  Sb  Sb10  1  0.89131966  0.97914099  0.45066161  1
  Sb  Sb11  1  0.11055404  0.02047890  0.55664432  1
  Sb  Sb12  1  0.02130142  0.52494796  0.80010952  1
  Sb  Sb13  1  0.97352845  0.49167042  0.18236625  1
  Sb  Sb14  1  0.40404973  0.47350236  0.46496961  1
  Sb  Sb15  1  0.60409010  0.46028158  0.56764814  1
  Sb  Sb16  1  0.53294055  0.97592403  0.82379393  1
  Sb  Sb17  1  0.45963359  0.98386559  0.18029562  1
  S  S18  1  0.92676799  0.01695105  0.77138582  1
  S  S19  1  0.07095457  0.00318377  0.20407271  1
  S  S20  1  0.41681477  0.97789512  0.98137905  1
  S  S21  1  0.58021477  0.98466196  0.01564225  1
  S  S22  1  0.17093419  0.95345824  0.89521923  1
  S  S23  1  0.83291422  0.00438507  0.10306510  1
  S  S24  1  0.09385748  0.48742218  0.66010603  1
  S  S25  1  0.90153289  0.46575330  0.34560006  1
  S  S26  1  0.72550678  0.96449577  0.29216434  1
  S  S27  1  0.26854963  0.94733683  0.70369162  1
  S  S28  1  0.15982619  0.38301064  0.44558179  1
  S  S29  1  0.83383346  0.48428387  0.53200347  1
  S  S30  1  0.44057051  0.47804884  0.81840943  1
  S  S31  1  0.56869747  0.46245957  0.19384094  1
  S  S32  1  0.91177370  0.49885922  0.96713448  1
  S  S33  1  0.08076225  0.52796091  0.00400354  1
  S  S34  1  0.66852638  0.42588521  0.89791296  1
  S  S35  1  0.34440241  0.47480401  0.11167700  1
  S  S36  1  0.59415646  0.94870265  0.66575227  1
  S  S37  1  0.42159784  0.99007475  0.35873881  1
  S  S38  1  0.25766069  0.48842688  0.29156262  1
  S  S39  1  0.76282412  0.49610967  0.67452453  1
  S  S40  1  0.66208827  0.00300959  0.43008943  1
  S  S41  1  0.32508148  0.07052165  0.53388181  1
