# generated using pymatgen
data_Pr2Mn3(SbS3)4
_symmetry_space_group_name_H-M   'P 1'
_cell_length_a   20.02960800
_cell_length_b   3.90410600
_cell_length_c   14.95364829
_cell_angle_alpha   90.00000000
_cell_angle_beta   126.33350609
_cell_angle_gamma   90.00000000
_symmetry_Int_Tables_number   1
_chemical_formula_structural   Pr2Mn3(SbS3)4
_chemical_formula_sum   'Pr4 Mn6 Sb8 S24'
_cell_volume   942.00006694
_cell_formula_units_Z   2
loop_
 _symmetry_equiv_pos_site_id
 _symmetry_equiv_pos_as_xyz
  1  'x, y, z'
loop_
 _atom_site_type_symbol
 _atom_site_label
 _atom_site_symmetry_multiplicity
 _atom_site_fract_x
 _atom_site_fract_y
 _atom_site_fract_z
 _atom_site_occupancy
  Pr  Pr0  1  0.25999931  0.49396021  0.86399262  1
  Pr  Pr1  1  0.72793763  0.52305229  0.12907896  1
  Pr  Pr2  1  0.77101886  0.97519204  0.88354926  1
  Pr  Pr3  1  0.24637755  0.96963741  0.14826582  1
  Mn  Mn4  1  0.28670437  0.57671592  0.58589847  1
  Mn  Mn5  1  0.70324213  0.46125564  0.38850153  1
  Mn  Mn6  1  0.99813211  0.96207140  0.99527164  1
  Mn  Mn7  1  0.78755765  0.03897644  0.58698733  1
  Mn  Mn8  1  0.19331788  0.88784495  0.41117903  1
  Mn  Mn9  1  0.50767305  0.50797166  0.01342785  1
  Sb  Sb10  1  0.89139448  0.97970634  0.45082057  1
  Sb  Sb11  1  0.11075957  0.02008532  0.55682030  1
  Sb  Sb12  1  0.02123363  0.52454201  0.80008896  1
  Sb  Sb13  1  0.97333785  0.49248991  0.18219897  1
  Sb  Sb14  1  0.40426195  0.47346239  0.46523719  1
  Sb  Sb15  1  0.60401740  0.45968532  0.56757105  1
  Sb  Sb16  1  0.53294674  0.97548395  0.82365853  1
  Sb  Sb17  1  0.45955093  0.98346286  0.18017197  1
  S  S18  1  0.92659305  0.01660238  0.77091347  1
  S  S19  1  0.07130651  0.00316931  0.20448675  1
  S  S20  1  0.41647868  0.97852246  0.98088954  1
  S  S21  1  0.58029198  0.98358353  0.01567128  1
  S  S22  1  0.17089242  0.95440062  0.89530188  1
  S  S23  1  0.83277163  0.00367466  0.10318731  1
  S  S24  1  0.09388018  0.48764888  0.65971422  1
  S  S25  1  0.90156670  0.46558387  0.34569256  1
  S  S26  1  0.72553710  0.96487509  0.29218674  1
  S  S27  1  0.26879555  0.94634692  0.70414875  1
  S  S28  1  0.15952085  0.38211061  0.44549722  1
  S  S29  1  0.83380095  0.48443613  0.53230427  1
  S  S30  1  0.44071336  0.48089898  0.81860320  1
  S  S31  1  0.56852360  0.46518449  0.19419874  1
  S  S32  1  0.91208608  0.49916525  0.96783595  1
  S  S33  1  0.08083337  0.52709230  0.00390442  1
  S  S34  1  0.66891258  0.42438114  0.89833147  1
  S  S35  1  0.34453441  0.47424148  0.11180077  1
  S  S36  1  0.59412635  0.94941382  0.66557276  1
  S  S37  1  0.42156522  0.99057167  0.35837820  1
  S  S38  1  0.25761529  0.48740775  0.29166951  1
  S  S39  1  0.76304006  0.49474007  0.67472560  1
  S  S40  1  0.66199684  0.00396824  0.42988270  1
  S  S41  1  0.32521259  0.06921353  0.53398278  1
