# generated using pymatgen
data_Pr2Mn3(SbS3)4
_symmetry_space_group_name_H-M   'P 1'
_cell_length_a   20.02960800
_cell_length_b   3.90410600
_cell_length_c   14.95364829
_cell_angle_alpha   90.00000000
_cell_angle_beta   126.33350609
_cell_angle_gamma   90.00000000
_symmetry_Int_Tables_number   1
_chemical_formula_structural   Pr2Mn3(SbS3)4
_chemical_formula_sum   'Pr4 Mn6 Sb8 S24'
_cell_volume   942.00006694
_cell_formula_units_Z   2
loop_
 _symmetry_equiv_pos_site_id
 _symmetry_equiv_pos_as_xyz
  1  'x, y, z'
loop_
 _atom_site_type_symbol
 _atom_site_label
 _atom_site_symmetry_multiplicity
 _atom_site_fract_x
 _atom_site_fract_y
 _atom_site_fract_z
 _atom_site_occupancy
  Pr  Pr0  1  0.26934413  0.49645944  0.86685997  1
  Pr  Pr1  1  0.73398415  0.51531010  0.13304532  1
  Pr  Pr2  1  0.76532499  0.02339450  0.86436997  1
  Pr  Pr3  1  0.23318271  0.99303890  0.13269866  1
  Mn  Mn4  1  0.29761141  0.47089669  0.60068850  1
  Mn  Mn5  1  0.68496797  0.46083864  0.36119499  1
  Mn  Mn6  1  0.00446773  0.98925017  0.01032375  1
  Mn  Mn7  1  0.79705711  0.01101487  0.61871330  1
  Mn  Mn8  1  0.19556987  0.98095402  0.36727902  1
  Mn  Mn9  1  0.48617561  0.46830640  0.98409934  1
  Sb  Sb10  1  0.88926506  0.98848750  0.45092854  1
  Sb  Sb11  1  0.10992739  0.98109486  0.54526296  1
  Sb  Sb12  1  0.03632599  0.52757434  0.82202139  1
  Sb  Sb13  1  0.96734767  0.50027748  0.19009699  1
  Sb  Sb14  1  0.39225402  0.50223291  0.44797546  1
  Sb  Sb15  1  0.60622514  0.47614189  0.54600689  1
  Sb  Sb16  1  0.53404744  0.97968582  0.80802571  1
  Sb  Sb17  1  0.46621819  0.01849046  0.19029117  1
  S  S18  1  0.93523143  0.01349249  0.80657666  1
  S  S19  1  0.06507600  0.00644951  0.19771807  1
  S  S20  1  0.41799110  0.95960813  0.98985781  1
  S  S21  1  0.58557159  0.02891630  0.01659277  1
  S  S22  1  0.17094444  0.05384907  0.90098742  1
  S  S23  1  0.82665772  0.03801188  0.10111047  1
  S  S24  1  0.09061388  0.49560888  0.64544923  1
  S  S25  1  0.91463578  0.48466320  0.35560219  1
  S  S26  1  0.74054289  0.99043614  0.30445122  1
  S  S27  1  0.25987382  0.01093738  0.70959911  1
  S  S28  1  0.16576906  0.52348859  0.43273529  1
  S  S29  1  0.81364006  0.49802397  0.54378989  1
  S  S30  1  0.43037149  0.46835706  0.79524391  1
  S  S31  1  0.55434472  0.52103726  0.18215104  1
  S  S32  1  0.92046300  0.50565214  0.99097391  1
  S  S33  1  0.09179133  0.49445793  0.02901369  1
  S  S34  1  0.66416724  0.55493492  0.89516167  1
  S  S35  1  0.32730230  0.47974435  0.09168574  1
  S  S36  1  0.59056544  0.99019052  0.65062425  1
  S  S37  1  0.39880798  0.98353690  0.34250155  1
  S  S38  1  0.24374382  0.46697729  0.31690115  1
  S  S39  1  0.75899113  0.52265299  0.68738463  1
  S  S40  1  0.66362667  0.99465512  0.44639542  1
  S  S41  1  0.33158567  0.98148845  0.55558520  1
