# generated using pymatgen
data_Pr2Mn3(SbS3)4
_symmetry_space_group_name_H-M   'P 1'
_cell_length_a   20.02960800
_cell_length_b   3.90410600
_cell_length_c   14.95364829
_cell_angle_alpha   90.00000000
_cell_angle_beta   126.33350609
_cell_angle_gamma   90.00000000
_symmetry_Int_Tables_number   1
_chemical_formula_structural   Pr2Mn3(SbS3)4
_chemical_formula_sum   'Pr4 Mn6 Sb8 S24'
_cell_volume   942.00006694
_cell_formula_units_Z   2
loop_
 _symmetry_equiv_pos_site_id
 _symmetry_equiv_pos_as_xyz
  1  'x, y, z'
loop_
 _atom_site_type_symbol
 _atom_site_label
 _atom_site_symmetry_multiplicity
 _atom_site_fract_x
 _atom_site_fract_y
 _atom_site_fract_z
 _atom_site_occupancy
  Pr  Pr0  1  0.26000868  0.49425138  0.86412805  1
  Pr  Pr1  1  0.72787005  0.52275566  0.12903595  1
  Pr  Pr2  1  0.77101686  0.97494648  0.88333413  1
  Pr  Pr3  1  0.24645572  0.96985171  0.14852119  1
  Mn  Mn4  1  0.28649952  0.57705415  0.58567576  1
  Mn  Mn5  1  0.70326825  0.46031093  0.38838920  1
  Mn  Mn6  1  0.99809996  0.96109100  0.99473201  1
  Mn  Mn7  1  0.78756001  0.03861307  0.58680911  1
  Mn  Mn8  1  0.19336199  0.88790450  0.41111737  1
  Mn  Mn9  1  0.50780362  0.50921756  0.01341757  1
  Sb  Sb10  1  0.89139905  0.98024661  0.45083557  1
  Sb  Sb11  1  0.11089505  0.01987263  0.55695350  1
  Sb  Sb12  1  0.02116896  0.52393709  0.80004409  1
  Sb  Sb13  1  0.97311495  0.49351444  0.18191309  1
  Sb  Sb14  1  0.40443636  0.47344530  0.46542308  1
  Sb  Sb15  1  0.60395312  0.45900244  0.56752622  1
  Sb  Sb16  1  0.53294806  0.97519827  0.82357099  1
  Sb  Sb17  1  0.45942222  0.98314418  0.17997586  1
  S  S18  1  0.92633133  0.01643003  0.77035234  1
  S  S19  1  0.07148208  0.00297914  0.20469819  1
  S  S20  1  0.41623391  0.97936773  0.98050521  1
  S  S21  1  0.58018584  0.98244452  0.01558127  1
  S  S22  1  0.17085172  0.95486137  0.89532966  1
  S  S23  1  0.83246068  0.00268622  0.10284816  1
  S  S24  1  0.09388724  0.48811393  0.65940726  1
  S  S25  1  0.90170322  0.46502531  0.34592022  1
  S  S26  1  0.72564281  0.96605907  0.29235491  1
  S  S27  1  0.26908174  0.94525949  0.70461595  1
  S  S28  1  0.15935101  0.38167628  0.44543537  1
  S  S29  1  0.83380816  0.48412506  0.53257651  1
  S  S30  1  0.44078946  0.48414576  0.81864834  1
  S  S31  1  0.56835341  0.46741616  0.19443922  1
  S  S32  1  0.91234156  0.49973758  0.96842733  1
  S  S33  1  0.08086950  0.52578052  0.00363050  1
  S  S34  1  0.66932362  0.42220100  0.89877345  1
  S  S35  1  0.34457012  0.47364853  0.11205653  1
  S  S36  1  0.59394100  0.95050896  0.66530511  1
  S  S37  1  0.42157479  0.99167080  0.35804231  1
  S  S38  1  0.25753714  0.48637872  0.29165964  1
  S  S39  1  0.76313373  0.49422297  0.67494422  1
  S  S40  1  0.66190205  0.00468036  0.42955775  1
  S  S41  1  0.32538076  0.06843965  0.53427579  1
