# generated using pymatgen
data_Pr2Mn3(SbS3)4
_symmetry_space_group_name_H-M   'P 1'
_cell_length_a   20.02960800
_cell_length_b   3.90410600
_cell_length_c   14.95364829
_cell_angle_alpha   90.00000000
_cell_angle_beta   126.33350609
_cell_angle_gamma   90.00000000
_symmetry_Int_Tables_number   1
_chemical_formula_structural   Pr2Mn3(SbS3)4
_chemical_formula_sum   'Pr4 Mn6 Sb8 S24'
_cell_volume   942.00006694
_cell_formula_units_Z   2
loop_
 _symmetry_equiv_pos_site_id
 _symmetry_equiv_pos_as_xyz
  1  'x, y, z'
loop_
 _atom_site_type_symbol
 _atom_site_label
 _atom_site_symmetry_multiplicity
 _atom_site_fract_x
 _atom_site_fract_y
 _atom_site_fract_z
 _atom_site_occupancy
  Pr  Pr0  1  0.26008655  0.49449666  0.86431409  1
  Pr  Pr1  1  0.72786577  0.52243554  0.12902360  1
  Pr  Pr2  1  0.77100661  0.97494351  0.88311562  1
  Pr  Pr3  1  0.24651702  0.97038380  0.14874286  1
  Mn  Mn4  1  0.28643532  0.57729404  0.58556208  1
  Mn  Mn5  1  0.70320721  0.45911634  0.38842256  1
  Mn  Mn6  1  0.99811447  0.95988173  0.99433353  1
  Mn  Mn7  1  0.78764242  0.03860324  0.58668684  1
  Mn  Mn8  1  0.19327817  0.88759270  0.41098653  1
  Mn  Mn9  1  0.50795930  0.51058879  0.01339952  1
  Sb  Sb10  1  0.89150301  0.98093498  0.45089412  1
  Sb  Sb11  1  0.11098712  0.01982800  0.55707727  1
  Sb  Sb12  1  0.02112389  0.52347297  0.79999660  1
  Sb  Sb13  1  0.97288100  0.49441324  0.18160227  1
  Sb  Sb14  1  0.40467772  0.47350697  0.46559771  1
  Sb  Sb15  1  0.60395265  0.45830241  0.56749356  1
  Sb  Sb16  1  0.53288311  0.97492787  0.82341672  1
  Sb  Sb17  1  0.45931213  0.98284593  0.17983686  1
  S  S18  1  0.92598128  0.01530266  0.76979892  1
  S  S19  1  0.07178360  0.00297934  0.20516279  1
  S  S20  1  0.41610722  0.98073850  0.98024127  1
  S  S21  1  0.58012118  0.98172682  0.01540172  1
  S  S22  1  0.17065553  0.95507227  0.89514689  1
  S  S23  1  0.83231210  0.00197888  0.10261880  1
  S  S24  1  0.09390295  0.48878883  0.65911914  1
  S  S25  1  0.90168799  0.46461623  0.34609595  1
  S  S26  1  0.72582378  0.96741158  0.29243416  1
  S  S27  1  0.26916473  0.94401231  0.70476179  1
  S  S28  1  0.15925887  0.38171621  0.44537353  1
  S  S29  1  0.83380602  0.48425853  0.53271431  1
  S  S30  1  0.44089180  0.48637385  0.81878702  1
  S  S31  1  0.56813079  0.46937102  0.19460943  1
  S  S32  1  0.91248833  0.49943009  0.96906153  1
  S  S33  1  0.08088320  0.52414644  0.00342446  1
  S  S34  1  0.66975256  0.42061560  0.89918491  1
  S  S35  1  0.34455208  0.47340839  0.11243032  1
  S  S36  1  0.59384193  0.95141270  0.66516634  1
  S  S37  1  0.42146260  0.99298547  0.35760208  1
  S  S38  1  0.25739028  0.48544780  0.29167122  1
  S  S39  1  0.76315550  0.49372798  0.67493438  1
  S  S40  1  0.66164659  0.00494628  0.42927815  1
  S  S41  1  0.32550148  0.06772378  0.53429657  1
