# generated using pymatgen
data_Pr2Mn3(SbS3)4
_symmetry_space_group_name_H-M   'P 1'
_cell_length_a   20.02960800
_cell_length_b   3.90410600
_cell_length_c   14.95364829
_cell_angle_alpha   90.00000000
_cell_angle_beta   126.33350609
_cell_angle_gamma   90.00000000
_symmetry_Int_Tables_number   1
_chemical_formula_structural   Pr2Mn3(SbS3)4
_chemical_formula_sum   'Pr4 Mn6 Sb8 S24'
_cell_volume   942.00006694
_cell_formula_units_Z   2
loop_
 _symmetry_equiv_pos_site_id
 _symmetry_equiv_pos_as_xyz
  1  'x, y, z'
loop_
 _atom_site_type_symbol
 _atom_site_label
 _atom_site_symmetry_multiplicity
 _atom_site_fract_x
 _atom_site_fract_y
 _atom_site_fract_z
 _atom_site_occupancy
  Pr  Pr0  1  0.26011321  0.49479090  0.86442658  1
  Pr  Pr1  1  0.72783253  0.52206866  0.12895867  1
  Pr  Pr2  1  0.77099272  0.97490201  0.88300416  1
  Pr  Pr3  1  0.24658255  0.97050358  0.14889131  1
  Mn  Mn4  1  0.28627984  0.57815697  0.58544682  1
  Mn  Mn5  1  0.70315303  0.45810057  0.38836993  1
  Mn  Mn6  1  0.99809263  0.95906837  0.99400701  1
  Mn  Mn7  1  0.78753323  0.03867226  0.58638423  1
  Mn  Mn8  1  0.19311185  0.88688627  0.41088846  1
  Mn  Mn9  1  0.50814424  0.51187767  0.01326927  1
  Sb  Sb10  1  0.89157563  0.98181965  0.45097751  1
  Sb  Sb11  1  0.11099900  0.01966029  0.55711718  1
  Sb  Sb12  1  0.02105003  0.52302298  0.79995531  1
  Sb  Sb13  1  0.97273029  0.49550951  0.18146157  1
  Sb  Sb14  1  0.40488196  0.47398200  0.46567306  1
  Sb  Sb15  1  0.60398935  0.45777015  0.56745481  1
  Sb  Sb16  1  0.53277768  0.97484710  0.82316519  1
  Sb  Sb17  1  0.45925619  0.98262143  0.17973173  1
  S  S18  1  0.92565717  0.01388361  0.76925779  1
  S  S19  1  0.07197987  0.00344067  0.20542799  1
  S  S20  1  0.41599042  0.98163046  0.97999885  1
  S  S21  1  0.57995344  0.98112822  0.01528502  1
  S  S22  1  0.17035965  0.95478386  0.89485534  1
  S  S23  1  0.83217215  0.00111148  0.10254299  1
  S  S24  1  0.09372479  0.48886137  0.65873862  1
  S  S25  1  0.90177184  0.46453986  0.34634025  1
  S  S26  1  0.72626060  0.96863056  0.29275210  1
  S  S27  1  0.26930029  0.94379714  0.70484293  1
  S  S28  1  0.15909876  0.38189251  0.44545278  1
  S  S29  1  0.83377493  0.48422283  0.53296984  1
  S  S30  1  0.44107497  0.48823687  0.81889247  1
  S  S31  1  0.56802765  0.47149901  0.19474886  1
  S  S32  1  0.91273757  0.49849007  0.96975908  1
  S  S33  1  0.08088870  0.52212755  0.00329749  1
  S  S34  1  0.67025223  0.41953472  0.89968006  1
  S  S35  1  0.34453908  0.47265238  0.11272820  1
  S  S36  1  0.59379799  0.95219577  0.66493191  1
  S  S37  1  0.42157055  0.99354233  0.35740012  1
  S  S38  1  0.25742491  0.48472086  0.29190391  1
  S  S39  1  0.76329512  0.49318519  0.67517977  1
  S  S40  1  0.66160000  0.00541118  0.42920532  1
  S  S41  1  0.32562768  0.06717586  0.53446204  1
