# generated using pymatgen
data_Pr2Mn3(SbS3)4
_symmetry_space_group_name_H-M   'P 1'
_cell_length_a   20.02960800
_cell_length_b   3.90410600
_cell_length_c   14.95364829
_cell_angle_alpha   90.00000000
_cell_angle_beta   126.33350609
_cell_angle_gamma   90.00000000
_symmetry_Int_Tables_number   1
_chemical_formula_structural   Pr2Mn3(SbS3)4
_chemical_formula_sum   'Pr4 Mn6 Sb8 S24'
_cell_volume   942.00006694
_cell_formula_units_Z   2
loop_
 _symmetry_equiv_pos_site_id
 _symmetry_equiv_pos_as_xyz
  1  'x, y, z'
loop_
 _atom_site_type_symbol
 _atom_site_label
 _atom_site_symmetry_multiplicity
 _atom_site_fract_x
 _atom_site_fract_y
 _atom_site_fract_z
 _atom_site_occupancy
  Pr  Pr0  1  0.26011900  0.49524906  0.86444822  1
  Pr  Pr1  1  0.72785958  0.52154293  0.12896934  1
  Pr  Pr2  1  0.77093254  0.97490468  0.88286328  1
  Pr  Pr3  1  0.24665309  0.97049051  0.14907645  1
  Mn  Mn4  1  0.28618756  0.57907751  0.58539809  1
  Mn  Mn5  1  0.70309183  0.45773392  0.38825189  1
  Mn  Mn6  1  0.99808740  0.95816910  0.99371237  1
  Mn  Mn7  1  0.78739779  0.03861885  0.58607719  1
  Mn  Mn8  1  0.19295599  0.88644266  0.41086123  1
  Mn  Mn9  1  0.50841049  0.51321270  0.01322910  1
  Sb  Sb10  1  0.89167211  0.98258125  0.45105648  1
  Sb  Sb11  1  0.11102080  0.01926367  0.55710734  1
  Sb  Sb12  1  0.02099276  0.52243289  0.79993613  1
  Sb  Sb13  1  0.97257157  0.49644593  0.18126021  1
  Sb  Sb14  1  0.40498579  0.47436500  0.46570552  1
  Sb  Sb15  1  0.60406853  0.45761230  0.56748796  1
  Sb  Sb16  1  0.53264971  0.97477919  0.82288345  1
  Sb  Sb17  1  0.45917967  0.98237258  0.17957770  1
  S  S18  1  0.92529050  0.01265666  0.76883437  1
  S  S19  1  0.07210264  0.00392618  0.20573293  1
  S  S20  1  0.41593983  0.98215228  0.97990612  1
  S  S21  1  0.57988543  0.97979198  0.01523666  1
  S  S22  1  0.17008263  0.95423830  0.89474896  1
  S  S23  1  0.83207545  0.00015685  0.10268100  1
  S  S24  1  0.09349483  0.48802727  0.65827354  1
  S  S25  1  0.90190230  0.46473971  0.34662530  1
  S  S26  1  0.72678051  0.96900066  0.29316538  1
  S  S27  1  0.26946574  0.94348285  0.70490054  1
  S  S28  1  0.15902608  0.38235428  0.44523902  1
  S  S29  1  0.83371726  0.48456346  0.53314369  1
  S  S30  1  0.44133090  0.48977305  0.81898123  1
  S  S31  1  0.56804767  0.47396394  0.19486356  1
  S  S32  1  0.91282281  0.49744716  0.97032436  1
  S  S33  1  0.08088651  0.51967154  0.00340352  1
  S  S34  1  0.67088276  0.41886585  0.90030026  1
  S  S35  1  0.34450371  0.47246419  0.11286674  1
  S  S36  1  0.59374717  0.95375845  0.66482094  1
  S  S37  1  0.42185194  0.99419106  0.35750269  1
  S  S38  1  0.25745892  0.48398440  0.29223155  1
  S  S39  1  0.76345144  0.49260043  0.67539212  1
  S  S40  1  0.66156037  0.00650044  0.42902456  1
  S  S41  1  0.32585690  0.06637045  0.53479652  1
