# generated using pymatgen
data_Pr2Mn3(SbS3)4
_symmetry_space_group_name_H-M   'P 1'
_cell_length_a   20.02960800
_cell_length_b   3.90410600
_cell_length_c   14.95364829
_cell_angle_alpha   90.00000000
_cell_angle_beta   126.33350609
_cell_angle_gamma   90.00000000
_symmetry_Int_Tables_number   1
_chemical_formula_structural   Pr2Mn3(SbS3)4
_chemical_formula_sum   'Pr4 Mn6 Sb8 S24'
_cell_volume   942.00006694
_cell_formula_units_Z   2
loop_
 _symmetry_equiv_pos_site_id
 _symmetry_equiv_pos_as_xyz
  1  'x, y, z'
loop_
 _atom_site_type_symbol
 _atom_site_label
 _atom_site_symmetry_multiplicity
 _atom_site_fract_x
 _atom_site_fract_y
 _atom_site_fract_z
 _atom_site_occupancy
  Pr  Pr0  1  0.26005672  0.49517989  0.86435309  1
  Pr  Pr1  1  0.72799137  0.52118840  0.12902655  1
  Pr  Pr2  1  0.77084841  0.97506112  0.88258712  1
  Pr  Pr3  1  0.24673776  0.97029041  0.14926314  1
  Mn  Mn4  1  0.28614724  0.57948059  0.58536950  1
  Mn  Mn5  1  0.70300823  0.45769178  0.38806092  1
  Mn  Mn6  1  0.99791556  0.95751797  0.99320356  1
  Mn  Mn7  1  0.78720788  0.03908254  0.58578331  1
  Mn  Mn8  1  0.19286866  0.88612303  0.41072788  1
  Mn  Mn9  1  0.50870740  0.51483032  0.01325543  1
  Sb  Sb10  1  0.89174286  0.98271822  0.45111538  1
  Sb  Sb11  1  0.11105167  0.01879506  0.55712604  1
  Sb  Sb12  1  0.02101312  0.52189523  0.79992250  1
  Sb  Sb13  1  0.97236822  0.49755822  0.18093812  1
  Sb  Sb14  1  0.40501257  0.47439075  0.46571606  1
  Sb  Sb15  1  0.60413308  0.45753064  0.56758810  1
  Sb  Sb16  1  0.53258328  0.97465555  0.82260424  1
  Sb  Sb17  1  0.45913738  0.98244932  0.17940642  1
  S  S18  1  0.92496029  0.01200721  0.76852767  1
  S  S19  1  0.07221002  0.00468049  0.20593858  1
  S  S20  1  0.41593767  0.98237112  0.98004626  1
  S  S21  1  0.57977479  0.97835529  0.01515475  1
  S  S22  1  0.16963267  0.95440587  0.89436394  1
  S  S23  1  0.83204096  0.00000586  0.10284929  1
  S  S24  1  0.09326603  0.48723872  0.65790537  1
  S  S25  1  0.90180725  0.46503357  0.34679580  1
  S  S26  1  0.72723472  0.96837422  0.29360248  1
  S  S27  1  0.26963538  0.94297564  0.70481610  1
  S  S28  1  0.15898048  0.38226968  0.44489755  1
  S  S29  1  0.83365556  0.48467406  0.53333316  1
  S  S30  1  0.44170793  0.49136747  0.81916903  1
  S  S31  1  0.56803856  0.47652790  0.19503227  1
  S  S32  1  0.91267902  0.49574607  0.97065586  1
  S  S33  1  0.08079211  0.51679470  0.00323693  1
  S  S34  1  0.67133615  0.41855394  0.90087076  1
  S  S35  1  0.34460270  0.47243205  0.11310363  1
  S  S36  1  0.59393138  0.95475372  0.66489702  1
  S  S37  1  0.42208441  0.99412850  0.35768627  1
  S  S38  1  0.25748160  0.48260119  0.29264881  1
  S  S39  1  0.76357886  0.49181653  0.67543950  1
  S  S40  1  0.66129458  0.00722355  0.42851793  1
  S  S41  1  0.32605202  0.06573026  0.53505029  1
