# generated using pymatgen
data_Pr2Mn3(SbS3)4
_symmetry_space_group_name_H-M   'P 1'
_cell_length_a   20.02960800
_cell_length_b   3.90410600
_cell_length_c   14.95364829
_cell_angle_alpha   90.00000000
_cell_angle_beta   126.33350609
_cell_angle_gamma   90.00000000
_symmetry_Int_Tables_number   1
_chemical_formula_structural   Pr2Mn3(SbS3)4
_chemical_formula_sum   'Pr4 Mn6 Sb8 S24'
_cell_volume   942.00006694
_cell_formula_units_Z   2
loop_
 _symmetry_equiv_pos_site_id
 _symmetry_equiv_pos_as_xyz
  1  'x, y, z'
loop_
 _atom_site_type_symbol
 _atom_site_label
 _atom_site_symmetry_multiplicity
 _atom_site_fract_x
 _atom_site_fract_y
 _atom_site_fract_z
 _atom_site_occupancy
  Pr  Pr0  1  0.26001365  0.49514405  0.86423394  1
  Pr  Pr1  1  0.72798426  0.52094597  0.12894267  1
  Pr  Pr2  1  0.77074228  0.97519274  0.88235873  1
  Pr  Pr3  1  0.24680557  0.96988464  0.14944695  1
  Mn  Mn4  1  0.28613336  0.57977460  0.58535609  1
  Mn  Mn5  1  0.70303102  0.45738887  0.38803738  1
  Mn  Mn6  1  0.99779450  0.95717659  0.99285333  1
  Mn  Mn7  1  0.78704051  0.03915821  0.58561141  1
  Mn  Mn8  1  0.19274170  0.88598839  0.41053064  1
  Mn  Mn9  1  0.50895178  0.51587841  0.01328041  1
  Sb  Sb10  1  0.89179133  0.98270728  0.45115207  1
  Sb  Sb11  1  0.11098493  0.01828315  0.55699162  1
  Sb  Sb12  1  0.02108987  0.52142955  0.79994288  1
  Sb  Sb13  1  0.97217804  0.49871665  0.18069312  1
  Sb  Sb14  1  0.40513914  0.47461213  0.46580654  1
  Sb  Sb15  1  0.60418443  0.45760435  0.56771820  1
  Sb  Sb16  1  0.53245463  0.97463258  0.82224061  1
  Sb  Sb17  1  0.45908464  0.98279591  0.17915492  1
  S  S18  1  0.92472009  0.01153939  0.76850998  1
  S  S19  1  0.07225468  0.00522826  0.20638421  1
  S  S20  1  0.41594549  0.98226356  0.98033207  1
  S  S21  1  0.57970149  0.97789771  0.01516030  1
  S  S22  1  0.16922802  0.95375163  0.89379995  1
  S  S23  1  0.83182736  0.00040923  0.10289551  1
  S  S24  1  0.09309257  0.48670917  0.65735724  1
  S  S25  1  0.90180956  0.46529579  0.34702532  1
  S  S26  1  0.72777624  0.96703919  0.29398289  1
  S  S27  1  0.26967046  0.94289194  0.70470148  1
  S  S28  1  0.15880895  0.38215301  0.44451129  1
  S  S29  1  0.83359851  0.48506839  0.53366653  1
  S  S30  1  0.44208181  0.49224466  0.81923768  1
  S  S31  1  0.56813326  0.47909388  0.19528693  1
  S  S32  1  0.91264562  0.49388030  0.97107186  1
  S  S33  1  0.08077103  0.51356343  0.00324163  1
  S  S34  1  0.67179050  0.41820217  0.90140623  1
  S  S35  1  0.34465441  0.47208459  0.11324342  1
  S  S36  1  0.59410574  0.95550582  0.66508222  1
  S  S37  1  0.42214077  0.99435591  0.35771122  1
  S  S38  1  0.25744417  0.48126836  0.29310928  1
  S  S39  1  0.76372904  0.49141314  0.67547939  1
  S  S40  1  0.66101169  0.00794260  0.42806020  1
  S  S41  1  0.32619890  0.06565819  0.53514759  1
