# generated using pymatgen
data_Pr2Mn3(SbS3)4
_symmetry_space_group_name_H-M   'P 1'
_cell_length_a   20.02960800
_cell_length_b   3.90410600
_cell_length_c   14.95364829
_cell_angle_alpha   90.00000000
_cell_angle_beta   126.33350609
_cell_angle_gamma   90.00000000
_symmetry_Int_Tables_number   1
_chemical_formula_structural   Pr2Mn3(SbS3)4
_chemical_formula_sum   'Pr4 Mn6 Sb8 S24'
_cell_volume   942.00006694
_cell_formula_units_Z   2
loop_
 _symmetry_equiv_pos_site_id
 _symmetry_equiv_pos_as_xyz
  1  'x, y, z'
loop_
 _atom_site_type_symbol
 _atom_site_label
 _atom_site_symmetry_multiplicity
 _atom_site_fract_x
 _atom_site_fract_y
 _atom_site_fract_z
 _atom_site_occupancy
  Pr  Pr0  1  0.25995186  0.49463526  0.86408122  1
  Pr  Pr1  1  0.72804268  0.52085578  0.12893404  1
  Pr  Pr2  1  0.77064324  0.97532462  0.88213572  1
  Pr  Pr3  1  0.24684008  0.96965317  0.14960017  1
  Mn  Mn4  1  0.28619622  0.58011385  0.58540737  1
  Mn  Mn5  1  0.70313579  0.45683603  0.38815615  1
  Mn  Mn6  1  0.99767759  0.95667069  0.99262044  1
  Mn  Mn7  1  0.78688367  0.03876979  0.58543614  1
  Mn  Mn8  1  0.19254284  0.88590476  0.41027702  1
  Mn  Mn9  1  0.50925528  0.51669481  0.01344390  1
  Sb  Sb10  1  0.89178644  0.98309523  0.45119495  1
  Sb  Sb11  1  0.11084884  0.01794194  0.55673572  1
  Sb  Sb12  1  0.02112844  0.52079528  0.79996489  1
  Sb  Sb13  1  0.97195338  0.49920626  0.18043716  1
  Sb  Sb14  1  0.40534476  0.47489362  0.46596626  1
  Sb  Sb15  1  0.60416659  0.45737110  0.56772433  1
  Sb  Sb16  1  0.53226357  0.97474017  0.82184841  1
  Sb  Sb17  1  0.45900710  0.98293848  0.17890519  1
  S  S18  1  0.92454369  0.01042147  0.76878347  1
  S  S19  1  0.07239485  0.00565164  0.20672040  1
  S  S20  1  0.41580058  0.98207257  0.98062936  1
  S  S21  1  0.57986422  0.97739704  0.01518964  1
  S  S22  1  0.16869240  0.95319374  0.89327823  1
  S  S23  1  0.83165478  0.00078113  0.10273142  1
  S  S24  1  0.09291915  0.48643685  0.65688757  1
  S  S25  1  0.90164581  0.46577760  0.34699700  1
  S  S26  1  0.72830983  0.96564267  0.29444433  1
  S  S27  1  0.26970176  0.94282134  0.70457171  1
  S  S28  1  0.15857830  0.38232638  0.44416327  1
  S  S29  1  0.83344887  0.48569789  0.53391293  1
  S  S30  1  0.44240083  0.49306414  0.81917065  1
  S  S31  1  0.56816713  0.48117563  0.19549422  1
  S  S32  1  0.91268033  0.49211632  0.97150743  1
  S  S33  1  0.08087484  0.51076610  0.00346739  1
  S  S34  1  0.67224794  0.41816904  0.90179823  1
  S  S35  1  0.34469706  0.47167298  0.11345503  1
  S  S36  1  0.59439079  0.95733804  0.66543556  1
  S  S37  1  0.42227643  0.99418843  0.35791313  1
  S  S38  1  0.25734047  0.48043329  0.29357020  1
  S  S39  1  0.76382213  0.49089090  0.67565123  1
  S  S40  1  0.66084809  0.00844124  0.42783604  1
  S  S41  1  0.32629040  0.06567034  0.53521208  1
