# generated using pymatgen
data_Pr2Mn3(SbS3)4
_symmetry_space_group_name_H-M   'P 1'
_cell_length_a   20.02960800
_cell_length_b   3.90410600
_cell_length_c   14.95364829
_cell_angle_alpha   90.00000000
_cell_angle_beta   126.33350609
_cell_angle_gamma   90.00000000
_symmetry_Int_Tables_number   1
_chemical_formula_structural   Pr2Mn3(SbS3)4
_chemical_formula_sum   'Pr4 Mn6 Sb8 S24'
_cell_volume   942.00006694
_cell_formula_units_Z   2
loop_
 _symmetry_equiv_pos_site_id
 _symmetry_equiv_pos_as_xyz
  1  'x, y, z'
loop_
 _atom_site_type_symbol
 _atom_site_label
 _atom_site_symmetry_multiplicity
 _atom_site_fract_x
 _atom_site_fract_y
 _atom_site_fract_z
 _atom_site_occupancy
  Pr  Pr0  1  0.25997558  0.49428817  0.86409205  1
  Pr  Pr1  1  0.72807030  0.52075923  0.12884727  1
  Pr  Pr2  1  0.77060343  0.97550952  0.88186898  1
  Pr  Pr3  1  0.24691770  0.96934067  0.14984756  1
  Mn  Mn4  1  0.28625961  0.58096095  0.58546817  1
  Mn  Mn5  1  0.70320872  0.45718069  0.38832285  1
  Mn  Mn6  1  0.99739643  0.95613579  0.99222467  1
  Mn  Mn7  1  0.78670812  0.03857304  0.58515418  1
  Mn  Mn8  1  0.19230274  0.88573554  0.40997131  1
  Mn  Mn9  1  0.50961209  0.51779555  0.01376984  1
  Sb  Sb10  1  0.89174733  0.98350372  0.45109991  1
  Sb  Sb11  1  0.11071278  0.01775379  0.55645068  1
  Sb  Sb12  1  0.02109818  0.52008665  0.79988578  1
  Sb  Sb13  1  0.97174430  0.49941901  0.18019640  1
  Sb  Sb14  1  0.40548596  0.47512200  0.46603239  1
  Sb  Sb15  1  0.60413350  0.45710190  0.56769398  1
  Sb  Sb16  1  0.53208066  0.97469387  0.82146917  1
  Sb  Sb17  1  0.45890963  0.98336646  0.17847608  1
  S  S18  1  0.92461950  0.00880561  0.76930286  1
  S  S19  1  0.07234964  0.00535456  0.20694869  1
  S  S20  1  0.41564023  0.98182633  0.98094551  1
  S  S21  1  0.58017506  0.97732105  0.01522967  1
  S  S22  1  0.16836673  0.95312248  0.89310479  1
  S  S23  1  0.83159926  0.00086790  0.10261229  1
  S  S24  1  0.09286562  0.48616809  0.65657064  1
  S  S25  1  0.90148538  0.46598880  0.34693951  1
  S  S26  1  0.72869668  0.96475385  0.29479237  1
  S  S27  1  0.26977203  0.94269167  0.70449554  1
  S  S28  1  0.15835204  0.38231600  0.44403413  1
  S  S29  1  0.83340263  0.48694194  0.53418018  1
  S  S30  1  0.44261461  0.49376174  0.81900765  1
  S  S31  1  0.56829012  0.48339731  0.19570436  1
  S  S32  1  0.91269892  0.49148328  0.97192495  1
  S  S33  1  0.08101630  0.50804226  0.00370168  1
  S  S34  1  0.67271022  0.41843457  0.90226853  1
  S  S35  1  0.34480092  0.47108856  0.11371306  1
  S  S36  1  0.59468448  0.95923292  0.66579313  1
  S  S37  1  0.42262161  0.99388754  0.35846284  1
  S  S38  1  0.25734138  0.47918615  0.29410061  1
  S  S39  1  0.76401237  0.49005090  0.67578491  1
  S  S40  1  0.66072681  0.00872408  0.42770368  1
  S  S41  1  0.32647889  0.06550927  0.53528673  1
