# generated using pymatgen
data_Pr2Mn3(SbS3)4
_symmetry_space_group_name_H-M   'P 1'
_cell_length_a   20.02960800
_cell_length_b   3.90410600
_cell_length_c   14.95364829
_cell_angle_alpha   90.00000000
_cell_angle_beta   126.33350609
_cell_angle_gamma   90.00000000
_symmetry_Int_Tables_number   1
_chemical_formula_structural   Pr2Mn3(SbS3)4
_chemical_formula_sum   'Pr4 Mn6 Sb8 S24'
_cell_volume   942.00006694
_cell_formula_units_Z   2
loop_
 _symmetry_equiv_pos_site_id
 _symmetry_equiv_pos_as_xyz
  1  'x, y, z'
loop_
 _atom_site_type_symbol
 _atom_site_label
 _atom_site_symmetry_multiplicity
 _atom_site_fract_x
 _atom_site_fract_y
 _atom_site_fract_z
 _atom_site_occupancy
  Pr  Pr0  1  0.25995858  0.49377768  0.86406786  1
  Pr  Pr1  1  0.72810550  0.52069104  0.12878319  1
  Pr  Pr2  1  0.77054249  0.97559938  0.88165775  1
  Pr  Pr3  1  0.24696805  0.96899914  0.15007742  1
  Mn  Mn4  1  0.28626643  0.58177822  0.58538423  1
  Mn  Mn5  1  0.70324832  0.45756396  0.38846184  1
  Mn  Mn6  1  0.99703274  0.95598556  0.99175009  1
  Mn  Mn7  1  0.78640073  0.03775697  0.58476706  1
  Mn  Mn8  1  0.19195992  0.88520965  0.40960338  1
  Mn  Mn9  1  0.50993547  0.51900528  0.01394086  1
  Sb  Sb10  1  0.89167486  0.98365612  0.45084592  1
  Sb  Sb11  1  0.11057351  0.01736361  0.55617033  1
  Sb  Sb12  1  0.02107726  0.51963851  0.79976962  1
  Sb  Sb13  1  0.97165715  0.49966407  0.18016013  1
  Sb  Sb14  1  0.40561447  0.47519025  0.46614955  1
  Sb  Sb15  1  0.60413421  0.45711934  0.56768567  1
  Sb  Sb16  1  0.53190450  0.97459488  0.82110466  1
  Sb  Sb17  1  0.45887033  0.98400177  0.17817151  1
  S  S18  1  0.92472149  0.00717724  0.76992478  1
  S  S19  1  0.07249170  0.00517029  0.20717414  1
  S  S20  1  0.41555281  0.98080778  0.98127831  1
  S  S21  1  0.58060417  0.97730520  0.01538262  1
  S  S22  1  0.16820530  0.95333603  0.89291460  1
  S  S23  1  0.83163978  0.00122710  0.10259303  1
  S  S24  1  0.09277462  0.48644356  0.65615417  1
  S  S25  1  0.90132855  0.46656262  0.34696135  1
  S  S26  1  0.72905534  0.96359007  0.29504488  1
  S  S27  1  0.26988442  0.94276860  0.70451751  1
  S  S28  1  0.15801797  0.38248001  0.44375530  1
  S  S29  1  0.83322076  0.48832984  0.53423268  1
  S  S30  1  0.44285686  0.49426387  0.81910658  1
  S  S31  1  0.56836292  0.48559355  0.19586052  1
  S  S32  1  0.91274759  0.49115410  0.97223545  1
  S  S33  1  0.08102772  0.50544188  0.00366810  1
  S  S34  1  0.67303188  0.41838721  0.90259184  1
  S  S35  1  0.34486727  0.47092886  0.11395607  1
  S  S36  1  0.59503264  0.96131899  0.66604303  1
  S  S37  1  0.42287289  0.99375140  0.35885342  1
  S  S38  1  0.25739591  0.47814502  0.29467784  1
  S  S39  1  0.76417728  0.48915643  0.67598761  1
  S  S40  1  0.66050848  0.00897342  0.42757725  1
  S  S41  1  0.32676663  0.06456748  0.53544330  1
