# generated using pymatgen
data_Pr2Mn3(SbS3)4
_symmetry_space_group_name_H-M   'P 1'
_cell_length_a   20.02960800
_cell_length_b   3.90410600
_cell_length_c   14.95364829
_cell_angle_alpha   90.00000000
_cell_angle_beta   126.33350609
_cell_angle_gamma   90.00000000
_symmetry_Int_Tables_number   1
_chemical_formula_structural   Pr2Mn3(SbS3)4
_chemical_formula_sum   'Pr4 Mn6 Sb8 S24'
_cell_volume   942.00006694
_cell_formula_units_Z   2
loop_
 _symmetry_equiv_pos_site_id
 _symmetry_equiv_pos_as_xyz
  1  'x, y, z'
loop_
 _atom_site_type_symbol
 _atom_site_label
 _atom_site_symmetry_multiplicity
 _atom_site_fract_x
 _atom_site_fract_y
 _atom_site_fract_z
 _atom_site_occupancy
  Pr  Pr0  1  0.25999132  0.49363364  0.86415663  1
  Pr  Pr1  1  0.72816505  0.52073542  0.12869891  1
  Pr  Pr2  1  0.77045751  0.97561835  0.88154581  1
  Pr  Pr3  1  0.24706337  0.96897043  0.15027350  1
  Mn  Mn4  1  0.28636551  0.58258123  0.58537638  1
  Mn  Mn5  1  0.70329311  0.45758579  0.38864134  1
  Mn  Mn6  1  0.99665527  0.95559332  0.99127724  1
  Mn  Mn7  1  0.78601271  0.03703469  0.58424712  1
  Mn  Mn8  1  0.19160051  0.88501777  0.40916024  1
  Mn  Mn9  1  0.51026443  0.52012350  0.01408490  1
  Sb  Sb10  1  0.89163265  0.98391201  0.45069463  1
  Sb  Sb11  1  0.11045652  0.01723481  0.55598811  1
  Sb  Sb12  1  0.02112925  0.51907623  0.79964638  1
  Sb  Sb13  1  0.97156638  0.49977485  0.18005845  1
  Sb  Sb14  1  0.40568572  0.47490402  0.46631073  1
  Sb  Sb15  1  0.60410546  0.45736753  0.56762064  1
  Sb  Sb16  1  0.53178573  0.97474681  0.82074851  1
  Sb  Sb17  1  0.45879880  0.98450383  0.17790261  1
  S  S18  1  0.92469996  0.00572059  0.77027716  1
  S  S19  1  0.07276587  0.00527715  0.20735989  1
  S  S20  1  0.41552604  0.97981093  0.98146231  1
  S  S21  1  0.58100279  0.97707317  0.01558614  1
  S  S22  1  0.16794351  0.95343429  0.89256384  1
  S  S23  1  0.83173376  0.00125673  0.10259571  1
  S  S24  1  0.09273184  0.48640194  0.65587024  1
  S  S25  1  0.90112619  0.46784338  0.34693059  1
  S  S26  1  0.72930768  0.96275795  0.29526804  1
  S  S27  1  0.26982339  0.94271348  0.70439750  1
  S  S28  1  0.15770706  0.38248128  0.44348353  1
  S  S29  1  0.83306432  0.48941029  0.53432703  1
  S  S30  1  0.44317562  0.49408053  0.81917730  1
  S  S31  1  0.56830236  0.48798175  0.19572766  1
  S  S32  1  0.91293075  0.49116109  0.97258540  1
  S  S33  1  0.08099596  0.50357195  0.00360349  1
  S  S34  1  0.67334839  0.41819755  0.90273545  1
  S  S35  1  0.34503492  0.47057720  0.11402198  1
  S  S36  1  0.59552237  0.96378727  0.66647001  1
  S  S37  1  0.42317320  0.99407547  0.35934294  1
  S  S38  1  0.25739989  0.47730422  0.29540645  1
  S  S39  1  0.76427763  0.48825824  0.67608894  1
  S  S40  1  0.66037680  0.00881093  0.42759996  1
  S  S41  1  0.32708465  0.06368184  0.53553291  1
