# generated using pymatgen
data_Pr2Mn3(SbS3)4
_symmetry_space_group_name_H-M   'P 1'
_cell_length_a   20.02960800
_cell_length_b   3.90410600
_cell_length_c   14.95364829
_cell_angle_alpha   90.00000000
_cell_angle_beta   126.33350609
_cell_angle_gamma   90.00000000
_symmetry_Int_Tables_number   1
_chemical_formula_structural   Pr2Mn3(SbS3)4
_chemical_formula_sum   'Pr4 Mn6 Sb8 S24'
_cell_volume   942.00006694
_cell_formula_units_Z   2
loop_
 _symmetry_equiv_pos_site_id
 _symmetry_equiv_pos_as_xyz
  1  'x, y, z'
loop_
 _atom_site_type_symbol
 _atom_site_label
 _atom_site_symmetry_multiplicity
 _atom_site_fract_x
 _atom_site_fract_y
 _atom_site_fract_z
 _atom_site_occupancy
  Pr  Pr0  1  0.26931667  0.49685096  0.86686409  1
  Pr  Pr1  1  0.73397983  0.51512238  0.13303631  1
  Pr  Pr2  1  0.76537014  0.02366591  0.86445134  1
  Pr  Pr3  1  0.23319462  0.99271495  0.13280996  1
  Mn  Mn4  1  0.29780674  0.47041987  0.60093991  1
  Mn  Mn5  1  0.68496060  0.46015320  0.36113295  1
  Mn  Mn6  1  0.00431538  0.98951670  0.01022359  1
  Mn  Mn7  1  0.79694017  0.01141293  0.61865863  1
  Mn  Mn8  1  0.19539349  0.98099620  0.36719725  1
  Mn  Mn9  1  0.48602388  0.46861978  0.98398345  1
  Sb  Sb10  1  0.88942449  0.98831569  0.45075173  1
  Sb  Sb11  1  0.10990301  0.98121823  0.54528186  1
  Sb  Sb12  1  0.03632562  0.52808834  0.82202051  1
  Sb  Sb13  1  0.96731063  0.50055747  0.19004484  1
  Sb  Sb14  1  0.39223695  0.50218213  0.44799723  1
  Sb  Sb15  1  0.60636997  0.47636116  0.54595106  1
  Sb  Sb16  1  0.53404559  0.97950708  0.80796576  1
  Sb  Sb17  1  0.46622439  0.01880291  0.19015459  1
  S  S18  1  0.93521625  0.01308818  0.80676462  1
  S  S19  1  0.06500710  0.00702205  0.19747475  1
  S  S20  1  0.41780782  0.96059766  0.98960997  1
  S  S21  1  0.58569189  0.02998040  0.01675101  1
  S  S22  1  0.17102526  0.05378553  0.90103750  1
  S  S23  1  0.82679223  0.03750230  0.10123882  1
  S  S24  1  0.09046531  0.49530090  0.64526424  1
  S  S25  1  0.91436749  0.48539713  0.35523989  1
  S  S26  1  0.74045269  0.99143876  0.30418045  1
  S  S27  1  0.25980226  0.01048504  0.70930651  1
  S  S28  1  0.16604300  0.52326445  0.43281860  1
  S  S29  1  0.81325282  0.49882974  0.54311360  1
  S  S30  1  0.43026375  0.46841713  0.79514303  1
  S  S31  1  0.55421141  0.52061825  0.18218657  1
  S  S32  1  0.92074464  0.50530428  0.99136648  1
  S  S33  1  0.09147200  0.49434646  0.02860499  1
  S  S34  1  0.66439917  0.55456312  0.89546782  1
  S  S35  1  0.32739969  0.47933713  0.09168895  1
  S  S36  1  0.59023310  0.98934749  0.65052607  1
  S  S37  1  0.39871005  0.98226630  0.34239681  1
  S  S38  1  0.24385602  0.46921803  0.31707284  1
  S  S39  1  0.75897734  0.52352936  0.68718894  1
  S  S40  1  0.66358192  0.99425518  0.44624339  1
  S  S41  1  0.33147020  0.98220664  0.55554397  1
