# generated using pymatgen
data_Pr2Mn3(SbS3)4
_symmetry_space_group_name_H-M   'P 1'
_cell_length_a   20.02960800
_cell_length_b   3.90410600
_cell_length_c   14.95364829
_cell_angle_alpha   90.00000000
_cell_angle_beta   126.33350609
_cell_angle_gamma   90.00000000
_symmetry_Int_Tables_number   1
_chemical_formula_structural   Pr2Mn3(SbS3)4
_chemical_formula_sum   'Pr4 Mn6 Sb8 S24'
_cell_volume   942.00006694
_cell_formula_units_Z   2
loop_
 _symmetry_equiv_pos_site_id
 _symmetry_equiv_pos_as_xyz
  1  'x, y, z'
loop_
 _atom_site_type_symbol
 _atom_site_label
 _atom_site_symmetry_multiplicity
 _atom_site_fract_x
 _atom_site_fract_y
 _atom_site_fract_z
 _atom_site_occupancy
  Pr  Pr0  1  0.26003018  0.49355467  0.86415513  1
  Pr  Pr1  1  0.72816746  0.52065285  0.12864315  1
  Pr  Pr2  1  0.77039145  0.97576169  0.88147815  1
  Pr  Pr3  1  0.24717426  0.96904962  0.15050125  1
  Mn  Mn4  1  0.28647454  0.58356004  0.58537401  1
  Mn  Mn5  1  0.70329547  0.45744814  0.38890449  1
  Mn  Mn6  1  0.99626961  0.95491710  0.99068582  1
  Mn  Mn7  1  0.78573490  0.03609018  0.58367338  1
  Mn  Mn8  1  0.19119560  0.88500021  0.40876952  1
  Mn  Mn9  1  0.51058979  0.52093542  0.01408823  1
  Sb  Sb10  1  0.89162084  0.98405117  0.45061463  1
  Sb  Sb11  1  0.11034750  0.01710168  0.55585343  1
  Sb  Sb12  1  0.02117300  0.51888123  0.79957399  1
  Sb  Sb13  1  0.97150901  0.50005904  0.18001530  1
  Sb  Sb14  1  0.40577267  0.47451939  0.46633641  1
  Sb  Sb15  1  0.60413596  0.45747039  0.56757584  1
  Sb  Sb16  1  0.53172563  0.97492838  0.82052689  1
  Sb  Sb17  1  0.45873609  0.98477172  0.17771367  1
  S  S18  1  0.92469033  0.00426269  0.77064582  1
  S  S19  1  0.07308801  0.00593518  0.20746411  1
  S  S20  1  0.41541718  0.97844702  0.98152008  1
  S  S21  1  0.58136215  0.97716580  0.01565817  1
  S  S22  1  0.16779293  0.95453991  0.89241236  1
  S  S23  1  0.83207630  0.00106157  0.10268525  1
  S  S24  1  0.09270548  0.48635539  0.65562608  1
  S  S25  1  0.90104372  0.46886395  0.34697439  1
  S  S26  1  0.72937837  0.96256186  0.29551718  1
  S  S27  1  0.26978587  0.94265639  0.70426250  1
  S  S28  1  0.15752945  0.38185145  0.44334970  1
  S  S29  1  0.83293614  0.49005559  0.53449024  1
  S  S30  1  0.44354999  0.49418116  0.81934040  1
  S  S31  1  0.56827561  0.49008508  0.19552769  1
  S  S32  1  0.91304027  0.49190081  0.97293796  1
  S  S33  1  0.08086193  0.50227310  0.00343022  1
  S  S34  1  0.67365438  0.41809574  0.90289866  1
  S  S35  1  0.34520972  0.47117042  0.11436543  1
  S  S36  1  0.59586447  0.96568140  0.66666484  1
  S  S37  1  0.42342550  0.99423897  0.35983627  1
  S  S38  1  0.25733527  0.47657978  0.29595739  1
  S  S39  1  0.76438524  0.48830989  0.67605633  1
  S  S40  1  0.66027782  0.00838681  0.42770149  1
  S  S41  1  0.32742112  0.06299883  0.53576936  1
