# generated using pymatgen
data_Pr2Mn3(SbS3)4
_symmetry_space_group_name_H-M   'P 1'
_cell_length_a   20.02960800
_cell_length_b   3.90410600
_cell_length_c   14.95364829
_cell_angle_alpha   90.00000000
_cell_angle_beta   126.33350609
_cell_angle_gamma   90.00000000
_symmetry_Int_Tables_number   1
_chemical_formula_structural   Pr2Mn3(SbS3)4
_chemical_formula_sum   'Pr4 Mn6 Sb8 S24'
_cell_volume   942.00006694
_cell_formula_units_Z   2
loop_
 _symmetry_equiv_pos_site_id
 _symmetry_equiv_pos_as_xyz
  1  'x, y, z'
loop_
 _atom_site_type_symbol
 _atom_site_label
 _atom_site_symmetry_multiplicity
 _atom_site_fract_x
 _atom_site_fract_y
 _atom_site_fract_z
 _atom_site_occupancy
  Pr  Pr0  1  0.26009977  0.49363931  0.86415292  1
  Pr  Pr1  1  0.72816188  0.52033484  0.12866962  1
  Pr  Pr2  1  0.77035259  0.97575347  0.88141197  1
  Pr  Pr3  1  0.24727288  0.96892298  0.15078156  1
  Mn  Mn4  1  0.28656988  0.58477208  0.58545969  1
  Mn  Mn5  1  0.70344251  0.45748759  0.38924942  1
  Mn  Mn6  1  0.99581181  0.95436940  0.99016308  1
  Mn  Mn7  1  0.78543424  0.03583009  0.58307889  1
  Mn  Mn8  1  0.19073570  0.88526141  0.40850953  1
  Mn  Mn9  1  0.51085119  0.52178152  0.01413803  1
  Sb  Sb10  1  0.89159953  0.98473697  0.45055758  1
  Sb  Sb11  1  0.11026426  0.01685891  0.55568903  1
  Sb  Sb12  1  0.02123427  0.51894688  0.79949412  1
  Sb  Sb13  1  0.97152700  0.50027274  0.18001230  1
  Sb  Sb14  1  0.40584450  0.47453639  0.46639472  1
  Sb  Sb15  1  0.60426572  0.45824064  0.56754666  1
  Sb  Sb16  1  0.53163992  0.97506754  0.82038083  1
  Sb  Sb17  1  0.45868728  0.98494012  0.17759577  1
  S  S18  1  0.92475989  0.00287973  0.77092499  1
  S  S19  1  0.07364358  0.00611081  0.20772178  1
  S  S20  1  0.41532189  0.97757118  0.98166492  1
  S  S21  1  0.58160123  0.97728481  0.01574696  1
  S  S22  1  0.16763726  0.95501015  0.89254784  1
  S  S23  1  0.83229962  0.00012546  0.10276364  1
  S  S24  1  0.09277228  0.48582237  0.65535950  1
  S  S25  1  0.90087056  0.46980074  0.34668723  1
  S  S26  1  0.72942946  0.96243897  0.29577148  1
  S  S27  1  0.26979139  0.94267249  0.70415383  1
  S  S28  1  0.15747186  0.38114808  0.44333871  1
  S  S29  1  0.83274102  0.49086172  0.53465522  1
  S  S30  1  0.44392387  0.49392806  0.81943134  1
  S  S31  1  0.56830220  0.49224489  0.19532498  1
  S  S32  1  0.91335972  0.49203129  0.97336181  1
  S  S33  1  0.08064586  0.50019426  0.00322268  1
  S  S34  1  0.67393241  0.41782711  0.90305315  1
  S  S35  1  0.34532805  0.47200912  0.11454684  1
  S  S36  1  0.59622365  0.96751553  0.66678175  1
  S  S37  1  0.42371379  0.99402102  0.36040453  1
  S  S38  1  0.25721230  0.47604813  0.29636352  1
  S  S39  1  0.76435931  0.48822864  0.67595150  1
  S  S40  1  0.66017587  0.00805752  0.42770408  1
  S  S41  1  0.32785969  0.06240202  0.53588743  1
