# generated using pymatgen
data_Pr2Mn3(SbS3)4
_symmetry_space_group_name_H-M   'P 1'
_cell_length_a   20.02960800
_cell_length_b   3.90410600
_cell_length_c   14.95364829
_cell_angle_alpha   90.00000000
_cell_angle_beta   126.33350609
_cell_angle_gamma   90.00000000
_symmetry_Int_Tables_number   1
_chemical_formula_structural   Pr2Mn3(SbS3)4
_chemical_formula_sum   'Pr4 Mn6 Sb8 S24'
_cell_volume   942.00006694
_cell_formula_units_Z   2
loop_
 _symmetry_equiv_pos_site_id
 _symmetry_equiv_pos_as_xyz
  1  'x, y, z'
loop_
 _atom_site_type_symbol
 _atom_site_label
 _atom_site_symmetry_multiplicity
 _atom_site_fract_x
 _atom_site_fract_y
 _atom_site_fract_z
 _atom_site_occupancy
  Pr  Pr0  1  0.26021760  0.49356013  0.86434581  1
  Pr  Pr1  1  0.72809111  0.52007339  0.12871295  1
  Pr  Pr2  1  0.77032759  0.97561763  0.88139062  1
  Pr  Pr3  1  0.24729191  0.96864839  0.15099822  1
  Mn  Mn4  1  0.28652158  0.58582750  0.58546208  1
  Mn  Mn5  1  0.70351625  0.45750271  0.38951287  1
  Mn  Mn6  1  0.99539446  0.95351178  0.98967803  1
  Mn  Mn7  1  0.78508183  0.03591241  0.58249735  1
  Mn  Mn8  1  0.19029542  0.88590792  0.40834487  1
  Mn  Mn9  1  0.51108676  0.52208636  0.01422333  1
  Sb  Sb10  1  0.89167469  0.98526513  0.45064933  1
  Sb  Sb11  1  0.11015649  0.01649781  0.55552934  1
  Sb  Sb12  1  0.02134131  0.51890769  0.79940326  1
  Sb  Sb13  1  0.97152471  0.50073412  0.18001793  1
  Sb  Sb14  1  0.40590518  0.47439430  0.46637257  1
  Sb  Sb15  1  0.60433507  0.45930174  0.56751121  1
  Sb  Sb16  1  0.53153472  0.97500103  0.82025230  1
  Sb  Sb17  1  0.45869153  0.98475182  0.17750144  1
  S  S18  1  0.92491652  0.00179896  0.77126872  1
  S  S19  1  0.07419813  0.00611246  0.20809008  1
  S  S20  1  0.41519070  0.97691840  0.98179471  1
  S  S21  1  0.58178534  0.97764622  0.01601175  1
  S  S22  1  0.16757772  0.95564180  0.89261219  1
  S  S23  1  0.83249746  0.99914983  0.10273414  1
  S  S24  1  0.09275628  0.48512185  0.65515494  1
  S  S25  1  0.90063737  0.46992295  0.34638027  1
  S  S26  1  0.72955369  0.96202969  0.29603824  1
  S  S27  1  0.26993479  0.94318912  0.70439635  1
  S  S28  1  0.15730818  0.38098789  0.44313041  1
  S  S29  1  0.83259466  0.49152400  0.53490812  1
  S  S30  1  0.44440949  0.49393247  0.81967102  1
  S  S31  1  0.56839861  0.49413661  0.19529261  1
  S  S32  1  0.91352704  0.49280939  0.97366233  1
  S  S33  1  0.08023278  0.49827800  0.00282051  1
  S  S34  1  0.67396196  0.41841305  0.90314871  1
  S  S35  1  0.34547443  0.47321642  0.11458299  1
  S  S36  1  0.59651084  0.96937420  0.66678264  1
  S  S37  1  0.42387740  0.99425813  0.36095479  1
  S  S38  1  0.25695950  0.47568121  0.29653526  1
  S  S39  1  0.76423407  0.48824418  0.67591183  1
  S  S40  1  0.66006549  0.00778736  0.42784769  1
  S  S41  1  0.32833895  0.06234352  0.53589549  1
