# generated using pymatgen
data_Pr2Mn3(SbS3)4
_symmetry_space_group_name_H-M   'P 1'
_cell_length_a   20.02960800
_cell_length_b   3.90410600
_cell_length_c   14.95364829
_cell_angle_alpha   90.00000000
_cell_angle_beta   126.33350609
_cell_angle_gamma   90.00000000
_symmetry_Int_Tables_number   1
_chemical_formula_structural   Pr2Mn3(SbS3)4
_chemical_formula_sum   'Pr4 Mn6 Sb8 S24'
_cell_volume   942.00006694
_cell_formula_units_Z   2
loop_
 _symmetry_equiv_pos_site_id
 _symmetry_equiv_pos_as_xyz
  1  'x, y, z'
loop_
 _atom_site_type_symbol
 _atom_site_label
 _atom_site_symmetry_multiplicity
 _atom_site_fract_x
 _atom_site_fract_y
 _atom_site_fract_z
 _atom_site_occupancy
  Pr  Pr0  1  0.26033009  0.49373668  0.86446827  1
  Pr  Pr1  1  0.72804831  0.51947552  0.12883933  1
  Pr  Pr2  1  0.77034408  0.97550079  0.88129774  1
  Pr  Pr3  1  0.24732460  0.96841024  0.15126037  1
  Mn  Mn4  1  0.28658586  0.58676167  0.58560293  1
  Mn  Mn5  1  0.70349881  0.45759605  0.38967844  1
  Mn  Mn6  1  0.99503432  0.95246801  0.98921026  1
  Mn  Mn7  1  0.78486848  0.03571786  0.58196954  1
  Mn  Mn8  1  0.18985750  0.88662034  0.40813499  1
  Mn  Mn9  1  0.51128712  0.52239876  0.01426773  1
  Sb  Sb10  1  0.89179815  0.98550877  0.45083948  1
  Sb  Sb11  1  0.11005494  0.01603564  0.55534619  1
  Sb  Sb12  1  0.02140130  0.51900268  0.79936867  1
  Sb  Sb13  1  0.97155294  0.50100049  0.18003082  1
  Sb  Sb14  1  0.40591937  0.47395294  0.46628228  1
  Sb  Sb15  1  0.60434085  0.46026988  0.56753271  1
  Sb  Sb16  1  0.53146316  0.97461521  0.82015295  1
  Sb  Sb17  1  0.45874435  0.98450141  0.17741338  1
  S  S18  1  0.92507199  0.00034172  0.77153809  1
  S  S19  1  0.07482090  0.00648252  0.20848243  1
  S  S20  1  0.41503686  0.97632520  0.98206711  1
  S  S21  1  0.58221352  0.97797089  0.01647389  1
  S  S22  1  0.16753796  0.95580075  0.89274598  1
  S  S23  1  0.83270045  0.99829996  0.10277854  1
  S  S24  1  0.09263278  0.48458188  0.65477295  1
  S  S25  1  0.90030503  0.47056375  0.34592712  1
  S  S26  1  0.72965096  0.96182887  0.29660336  1
  S  S27  1  0.27006772  0.94402464  0.70476357  1
  S  S28  1  0.15712943  0.38094293  0.44263958  1
  S  S29  1  0.83254458  0.49268691  0.53529627  1
  S  S30  1  0.44483436  0.49359892  0.81991565  1
  S  S31  1  0.56845235  0.49555331  0.19525389  1
  S  S32  1  0.91373871  0.49360246  0.97402592  1
  S  S33  1  0.07992232  0.49664650  0.00246792  1
  S  S34  1  0.67386477  0.41922276  0.90320557  1
  S  S35  1  0.34580319  0.47469878  0.11469382  1
  S  S36  1  0.59670959  0.97044290  0.66664256  1
  S  S37  1  0.42391703  0.99476045  0.36131804  1
  S  S38  1  0.25674103  0.47491702  0.29679056  1
  S  S39  1  0.76419154  0.48838475  0.67607405  1
  S  S40  1  0.66001695  0.00750616  0.42803744  1
  S  S41  1  0.32875230  0.06188193  0.53544157  1
