# generated using pymatgen
data_Pr2Mn3(SbS3)4
_symmetry_space_group_name_H-M   'P 1'
_cell_length_a   20.02960800
_cell_length_b   3.90410600
_cell_length_c   14.95364829
_cell_angle_alpha   90.00000000
_cell_angle_beta   126.33350609
_cell_angle_gamma   90.00000000
_symmetry_Int_Tables_number   1
_chemical_formula_structural   Pr2Mn3(SbS3)4
_chemical_formula_sum   'Pr4 Mn6 Sb8 S24'
_cell_volume   942.00006694
_cell_formula_units_Z   2
loop_
 _symmetry_equiv_pos_site_id
 _symmetry_equiv_pos_as_xyz
  1  'x, y, z'
loop_
 _atom_site_type_symbol
 _atom_site_label
 _atom_site_symmetry_multiplicity
 _atom_site_fract_x
 _atom_site_fract_y
 _atom_site_fract_z
 _atom_site_occupancy
  Pr  Pr0  1  0.26041695  0.49380462  0.86464585  1
  Pr  Pr1  1  0.72798635  0.51876337  0.12883999  1
  Pr  Pr2  1  0.77033653  0.97547356  0.88110454  1
  Pr  Pr3  1  0.24734368  0.96830655  0.15137967  1
  Mn  Mn4  1  0.28660183  0.58744811  0.58573716  1
  Mn  Mn5  1  0.70346784  0.45773323  0.38983263  1
  Mn  Mn6  1  0.99460928  0.95153366  0.98872536  1
  Mn  Mn7  1  0.78465088  0.03557406  0.58138329  1
  Mn  Mn8  1  0.18950620  0.88770577  0.40795984  1
  Mn  Mn9  1  0.51134824  0.52233228  0.01412376  1
  Sb  Sb10  1  0.89194343  0.98541619  0.45110036  1
  Sb  Sb11  1  0.10983431  0.01556829  0.55496758  1
  Sb  Sb12  1  0.02143748  0.51944249  0.79931510  1
  Sb  Sb13  1  0.97162129  0.50072310  0.18009950  1
  Sb  Sb14  1  0.40592036  0.47373115  0.46611317  1
  Sb  Sb15  1  0.60430719  0.46107466  0.56749893  1
  Sb  Sb16  1  0.53125906  0.97441744  0.81995252  1
  Sb  Sb17  1  0.45883151  0.98409126  0.17735041  1
  S  S18  1  0.92521701  0.99921899  0.77182223  1
  S  S19  1  0.07534528  0.00622124  0.20870335  1
  S  S20  1  0.41500332  0.97576258  0.98232594  1
  S  S21  1  0.58248174  0.97830716  0.01687893  1
  S  S22  1  0.16744726  0.95589798  0.89278739  1
  S  S23  1  0.83272036  0.99843157  0.10258930  1
  S  S24  1  0.09236174  0.48408915  0.65422052  1
  S  S25  1  0.89980648  0.47130131  0.34534884  1
  S  S26  1  0.72976427  0.96238419  0.29703573  1
  S  S27  1  0.27020196  0.94561635  0.70501826  1
  S  S28  1  0.15691167  0.38139126  0.44202419  1
  S  S29  1  0.83247451  0.49400835  0.53567030  1
  S  S30  1  0.44505179  0.49323971  0.81992316  1
  S  S31  1  0.56859291  0.49704791  0.19546191  1
  S  S32  1  0.91403542  0.49460821  0.97463874  1
  S  S33  1  0.07961635  0.49564976  0.00204964  1
  S  S34  1  0.67382418  0.41972081  0.90338144  1
  S  S35  1  0.34599777  0.47634900  0.11465365  1
  S  S36  1  0.59689912  0.97128170  0.66665638  1
  S  S37  1  0.42405538  0.99556036  0.36167149  1
  S  S38  1  0.25645654  0.47372913  0.29715908  1
  S  S39  1  0.76410907  0.48809079  0.67637264  1
  S  S40  1  0.66009765  0.00731164  0.42833593  1
  S  S41  1  0.32893544  0.06128596  0.53467817  1
