# generated using pymatgen
data_Pr2Mn3(SbS3)4
_symmetry_space_group_name_H-M   'P 1'
_cell_length_a   20.02960800
_cell_length_b   3.90410600
_cell_length_c   14.95364829
_cell_angle_alpha   90.00000000
_cell_angle_beta   126.33350609
_cell_angle_gamma   90.00000000
_symmetry_Int_Tables_number   1
_chemical_formula_structural   Pr2Mn3(SbS3)4
_chemical_formula_sum   'Pr4 Mn6 Sb8 S24'
_cell_volume   942.00006694
_cell_formula_units_Z   2
loop_
 _symmetry_equiv_pos_site_id
 _symmetry_equiv_pos_as_xyz
  1  'x, y, z'
loop_
 _atom_site_type_symbol
 _atom_site_label
 _atom_site_symmetry_multiplicity
 _atom_site_fract_x
 _atom_site_fract_y
 _atom_site_fract_z
 _atom_site_occupancy
  Pr  Pr0  1  0.26052250  0.49343110  0.86488396  1
  Pr  Pr1  1  0.72787897  0.51815179  0.12877102  1
  Pr  Pr2  1  0.77036547  0.97549502  0.88097754  1
  Pr  Pr3  1  0.24732006  0.96816075  0.15145326  1
  Mn  Mn4  1  0.28671100  0.58793184  0.58605683  1
  Mn  Mn5  1  0.70350567  0.45827861  0.38998180  1
  Mn  Mn6  1  0.99418422  0.95110832  0.98826833  1
  Mn  Mn7  1  0.78454110  0.03523150  0.58098983  1
  Mn  Mn8  1  0.18921649  0.88849435  0.40782758  1
  Mn  Mn9  1  0.51129506  0.52226555  0.01394173  1
  Sb  Sb10  1  0.89206627  0.98516151  0.45136755  1
  Sb  Sb11  1  0.10960499  0.01524142  0.55459137  1
  Sb  Sb12  1  0.02148365  0.51983815  0.79927712  1
  Sb  Sb13  1  0.97173446  0.50048453  0.18025754  1
  Sb  Sb14  1  0.40588876  0.47355857  0.46593454  1
  Sb  Sb15  1  0.60424703  0.46175746  0.56745682  1
  Sb  Sb16  1  0.53107813  0.97384037  0.81983011  1
  Sb  Sb17  1  0.45900839  0.98369127  0.17734519  1
  S  S18  1  0.92536204  0.99795394  0.77204773  1
  S  S19  1  0.07583936  0.00542442  0.20887606  1
  S  S20  1  0.41495311  0.97538162  0.98243873  1
  S  S21  1  0.58281299  0.97856155  0.01722325  1
  S  S22  1  0.16740349  0.95544972  0.89289210  1
  S  S23  1  0.83290813  0.99882056  0.10251528  1
  S  S24  1  0.09210713  0.48399347  0.65368145  1
  S  S25  1  0.89925036  0.47185201  0.34478058  1
  S  S26  1  0.73010317  0.96300856  0.29758535  1
  S  S27  1  0.27024993  0.94719085  0.70513047  1
  S  S28  1  0.15671077  0.38140926  0.44141491  1
  S  S29  1  0.83230263  0.49594658  0.53592203  1
  S  S30  1  0.44523690  0.49265993  0.81987071  1
  S  S31  1  0.56873571  0.49823911  0.19558637  1
  S  S32  1  0.91432337  0.49458168  0.97546603  1
  S  S33  1  0.07946417  0.49399200  0.00171967  1
  S  S34  1  0.67367871  0.41914832  0.90341220  1
  S  S35  1  0.34612114  0.47786632  0.11443582  1
  S  S36  1  0.59708596  0.97218993  0.66675906  1
  S  S37  1  0.42409317  0.99626929  0.36203737  1
  S  S38  1  0.25618948  0.47238477  0.29758275  1
  S  S39  1  0.76409365  0.48777041  0.67663059  1
  S  S40  1  0.66034002  0.00685219  0.42884697  1
  S  S41  1  0.32918244  0.06078325  0.53398072  1
