# generated using pymatgen
data_Pr2Mn3(SbS3)4
_symmetry_space_group_name_H-M   'P 1'
_cell_length_a   20.02960800
_cell_length_b   3.90410600
_cell_length_c   14.95364829
_cell_angle_alpha   90.00000000
_cell_angle_beta   126.33350609
_cell_angle_gamma   90.00000000
_symmetry_Int_Tables_number   1
_chemical_formula_structural   Pr2Mn3(SbS3)4
_chemical_formula_sum   'Pr4 Mn6 Sb8 S24'
_cell_volume   942.00006694
_cell_formula_units_Z   2
loop_
 _symmetry_equiv_pos_site_id
 _symmetry_equiv_pos_as_xyz
  1  'x, y, z'
loop_
 _atom_site_type_symbol
 _atom_site_label
 _atom_site_symmetry_multiplicity
 _atom_site_fract_x
 _atom_site_fract_y
 _atom_site_fract_z
 _atom_site_occupancy
  Pr  Pr0  1  0.26061268  0.49351229  0.86503210  1
  Pr  Pr1  1  0.72777048  0.51754630  0.12871219  1
  Pr  Pr2  1  0.77043442  0.97527459  0.88084878  1
  Pr  Pr3  1  0.24733107  0.96808585  0.15154360  1
  Mn  Mn4  1  0.28680216  0.58865537  0.58640948  1
  Mn  Mn5  1  0.70362923  0.45867047  0.39013834  1
  Mn  Mn6  1  0.99384477  0.95050400  0.98787562  1
  Mn  Mn7  1  0.78436431  0.03484831  0.58058915  1
  Mn  Mn8  1  0.18903504  0.89008716  0.40776731  1
  Mn  Mn9  1  0.51130206  0.52154601  0.01390072  1
  Sb  Sb10  1  0.89220322  0.98498799  0.45167185  1
  Sb  Sb11  1  0.10940063  0.01495413  0.55423597  1
  Sb  Sb12  1  0.02153775  0.52049349  0.79914063  1
  Sb  Sb13  1  0.97177083  0.50033816  0.18036364  1
  Sb  Sb14  1  0.40590542  0.47356205  0.46580719  1
  Sb  Sb15  1  0.60420714  0.46233858  0.56737008  1
  Sb  Sb16  1  0.53090723  0.97344621  0.81980378  1
  Sb  Sb17  1  0.45909125  0.98323573  0.17724623  1
  S  S18  1  0.92547310  0.99692306  0.77224013  1
  S  S19  1  0.07627496  0.00510232  0.20894533  1
  S  S20  1  0.41497517  0.97545153  0.98264632  1
  S  S21  1  0.58308189  0.97846617  0.01751743  1
  S  S22  1  0.16723752  0.95483226  0.89293404  1
  S  S23  1  0.83314333  0.00041043  0.10274631  1
  S  S24  1  0.09192826  0.48433834  0.65316278  1
  S  S25  1  0.89871298  0.47234164  0.34426987  1
  S  S26  1  0.73051178  0.96352835  0.29824803  1
  S  S27  1  0.27033506  0.94842925  0.70516729  1
  S  S28  1  0.15659730  0.38092314  0.44098022  1
  S  S29  1  0.83217855  0.49777077  0.53629425  1
  S  S30  1  0.44530350  0.49223471  0.81966755  1
  S  S31  1  0.56902207  0.49937225  0.19606427  1
  S  S32  1  0.91464046  0.49451016  0.97624113  1
  S  S33  1  0.07931658  0.49265357  0.00144851  1
  S  S34  1  0.67358016  0.41800063  0.90340034  1
  S  S35  1  0.34622170  0.47923221  0.11427607  1
  S  S36  1  0.59719246  0.97267674  0.66676075  1
  S  S37  1  0.42417113  0.99724648  0.36245665  1
  S  S38  1  0.25585884  0.47127906  0.29789393  1
  S  S39  1  0.76400221  0.48719217  0.67670806  1
  S  S40  1  0.66057137  0.00686264  0.42949683  1
  S  S41  1  0.32941214  0.06026391  0.53342880  1
