# generated using pymatgen
data_Pr2Mn3(SbS3)4
_symmetry_space_group_name_H-M   'P 1'
_cell_length_a   20.02960800
_cell_length_b   3.90410600
_cell_length_c   14.95364829
_cell_angle_alpha   90.00000000
_cell_angle_beta   126.33350609
_cell_angle_gamma   90.00000000
_symmetry_Int_Tables_number   1
_chemical_formula_structural   Pr2Mn3(SbS3)4
_chemical_formula_sum   'Pr4 Mn6 Sb8 S24'
_cell_volume   942.00006694
_cell_formula_units_Z   2
loop_
 _symmetry_equiv_pos_site_id
 _symmetry_equiv_pos_as_xyz
  1  'x, y, z'
loop_
 _atom_site_type_symbol
 _atom_site_label
 _atom_site_symmetry_multiplicity
 _atom_site_fract_x
 _atom_site_fract_y
 _atom_site_fract_z
 _atom_site_occupancy
  Pr  Pr0  1  0.26062580  0.49355848  0.86510459  1
  Pr  Pr1  1  0.72777543  0.51712062  0.12868078  1
  Pr  Pr2  1  0.77048683  0.97487687  0.88080048  1
  Pr  Pr3  1  0.24729167  0.96796234  0.15151904  1
  Mn  Mn4  1  0.28685246  0.58928378  0.58679811  1
  Mn  Mn5  1  0.70389107  0.45922011  0.39051101  1
  Mn  Mn6  1  0.99352073  0.95080718  0.98750557  1
  Mn  Mn7  1  0.78429985  0.03393854  0.58029973  1
  Mn  Mn8  1  0.18895587  0.89198402  0.40776602  1
  Mn  Mn9  1  0.51136209  0.52072579  0.01408694  1
  Sb  Sb10  1  0.89237570  0.98494976  0.45196073  1
  Sb  Sb11  1  0.10916508  0.01492507  0.55382765  1
  Sb  Sb12  1  0.02154270  0.52121253  0.79902248  1
  Sb  Sb13  1  0.97180143  0.50016234  0.18056618  1
  Sb  Sb14  1  0.40593922  0.47367486  0.46564460  1
  Sb  Sb15  1  0.60410468  0.46303435  0.56722613  1
  Sb  Sb16  1  0.53074475  0.97298862  0.81972786  1
  Sb  Sb17  1  0.45916273  0.98249828  0.17718078  1
  S  S18  1  0.92562802  0.99541301  0.77247486  1
  S  S19  1  0.07669862  0.00523517  0.20908013  1
  S  S20  1  0.41501052  0.97634474  0.98291033  1
  S  S21  1  0.58333076  0.97843091  0.01780570  1
  S  S22  1  0.16709723  0.95396367  0.89302531  1
  S  S23  1  0.83339091  0.00194868  0.10297068  1
  S  S24  1  0.09176038  0.48455500  0.65263497  1
  S  S25  1  0.89808845  0.47244102  0.34369973  1
  S  S26  1  0.73097617  0.96316735  0.29892303  1
  S  S27  1  0.27042044  0.94994824  0.70529164  1
  S  S28  1  0.15650472  0.38083252  0.44067231  1
  S  S29  1  0.83208861  0.49925183  0.53664796  1
  S  S30  1  0.44539025  0.49136948  0.81949619  1
  S  S31  1  0.56926694  0.50001585  0.19630261  1
  S  S32  1  0.91475213  0.49482923  0.97681741  1
  S  S33  1  0.07925985  0.49127905  0.00127260  1
  S  S34  1  0.67350453  0.41712268  0.90335973  1
  S  S35  1  0.34627588  0.48058081  0.11411481  1
  S  S36  1  0.59720150  0.97312084  0.66679314  1
  S  S37  1  0.42454003  0.99820308  0.36323703  1
  S  S38  1  0.25544242  0.47012846  0.29788468  1
  S  S39  1  0.76392044  0.48654919  0.67694695  1
  S  S40  1  0.66077937  0.00657336  0.43015594  1
  S  S41  1  0.32961783  0.05966793  0.53287099  1
