# generated using pymatgen
data_Pr2Mn3(SbS3)4
_symmetry_space_group_name_H-M   'P 1'
_cell_length_a   20.02960800
_cell_length_b   3.90410600
_cell_length_c   14.95364829
_cell_angle_alpha   90.00000000
_cell_angle_beta   126.33350609
_cell_angle_gamma   90.00000000
_symmetry_Int_Tables_number   1
_chemical_formula_structural   Pr2Mn3(SbS3)4
_chemical_formula_sum   'Pr4 Mn6 Sb8 S24'
_cell_volume   942.00006694
_cell_formula_units_Z   2
loop_
 _symmetry_equiv_pos_site_id
 _symmetry_equiv_pos_as_xyz
  1  'x, y, z'
loop_
 _atom_site_type_symbol
 _atom_site_label
 _atom_site_symmetry_multiplicity
 _atom_site_fract_x
 _atom_site_fract_y
 _atom_site_fract_z
 _atom_site_occupancy
  Pr  Pr0  1  0.26059798  0.49379620  0.86514562  1
  Pr  Pr1  1  0.72777754  0.51687252  0.12860729  1
  Pr  Pr2  1  0.77058409  0.97445798  0.88079813  1
  Pr  Pr3  1  0.24724825  0.96795340  0.15148742  1
  Mn  Mn4  1  0.28685805  0.59029167  0.58713606  1
  Mn  Mn5  1  0.70417774  0.45996213  0.39091973  1
  Mn  Mn6  1  0.99333766  0.95159722  0.98727695  1
  Mn  Mn7  1  0.78419897  0.03331242  0.57999382  1
  Mn  Mn8  1  0.18894911  0.89380101  0.40763013  1
  Mn  Mn9  1  0.51131386  0.51984785  0.01417284  1
  Sb  Sb10  1  0.89253417  0.98463784  0.45212597  1
  Sb  Sb11  1  0.10888759  0.01495528  0.55332906  1
  Sb  Sb12  1  0.02152360  0.52153168  0.79895256  1
  Sb  Sb13  1  0.97178935  0.49996710  0.18078910  1
  Sb  Sb14  1  0.40595157  0.47347544  0.46552055  1
  Sb  Sb15  1  0.60404968  0.46299217  0.56717736  1
  Sb  Sb16  1  0.53062091  0.97264577  0.81970012  1
  Sb  Sb17  1  0.45925358  0.98180563  0.17706973  1
  S  S18  1  0.92555457  0.99426801  0.77263357  1
  S  S19  1  0.07715454  0.00520477  0.20934974  1
  S  S20  1  0.41525662  0.97714525  0.98328194  1
  S  S21  1  0.58360659  0.97819773  0.01813454  1
  S  S22  1  0.16703608  0.95355517  0.89323389  1
  S  S23  1  0.83365912  0.00374916  0.10316761  1
  S  S24  1  0.09166075  0.48393882  0.65218053  1
  S  S25  1  0.89751942  0.47228220  0.34323398  1
  S  S26  1  0.73145174  0.96291991  0.29941876  1
  S  S27  1  0.27053284  0.95109273  0.70538624  1
  S  S28  1  0.15641563  0.38129731  0.44056653  1
  S  S29  1  0.83211247  0.50009403  0.53707765  1
  S  S30  1  0.44542943  0.49098511  0.81934585  1
  S  S31  1  0.56947729  0.50101604  0.19640497  1
  S  S32  1  0.91474811  0.49447730  0.97731179  1
  S  S33  1  0.07913382  0.49016896  0.00090752  1
  S  S34  1  0.67357034  0.41670779  0.90347251  1
  S  S35  1  0.34634517  0.48208686  0.11395027  1
  S  S36  1  0.59738157  0.97427522  0.66685201  1
  S  S37  1  0.42490996  0.99978043  0.36397498  1
  S  S38  1  0.25508223  0.46909245  0.29795071  1
  S  S39  1  0.76374897  0.48710849  0.67687617  1
  S  S40  1  0.66107558  0.00639734  0.43093902  1
  S  S41  1  0.32970991  0.05845215  0.53218297  1
