# generated using pymatgen
data_Pr2Mn3(SbS3)4
_symmetry_space_group_name_H-M   'P 1'
_cell_length_a   20.02960800
_cell_length_b   3.90410600
_cell_length_c   14.95364829
_cell_angle_alpha   90.00000000
_cell_angle_beta   126.33350609
_cell_angle_gamma   90.00000000
_symmetry_Int_Tables_number   1
_chemical_formula_structural   Pr2Mn3(SbS3)4
_chemical_formula_sum   'Pr4 Mn6 Sb8 S24'
_cell_volume   942.00006694
_cell_formula_units_Z   2
loop_
 _symmetry_equiv_pos_site_id
 _symmetry_equiv_pos_as_xyz
  1  'x, y, z'
loop_
 _atom_site_type_symbol
 _atom_site_label
 _atom_site_symmetry_multiplicity
 _atom_site_fract_x
 _atom_site_fract_y
 _atom_site_fract_z
 _atom_site_occupancy
  Pr  Pr0  1  0.26049463  0.49398886  0.86508117  1
  Pr  Pr1  1  0.72775611  0.51657777  0.12852827  1
  Pr  Pr2  1  0.77072121  0.97431575  0.88079129  1
  Pr  Pr3  1  0.24716078  0.96756527  0.15144143  1
  Mn  Mn4  1  0.28699375  0.59100319  0.58754483  1
  Mn  Mn5  1  0.70436725  0.46119018  0.39130086  1
  Mn  Mn6  1  0.99310400  0.95266447  0.98695598  1
  Mn  Mn7  1  0.78409277  0.03352052  0.57982667  1
  Mn  Mn8  1  0.18890809  0.89520894  0.40734273  1
  Mn  Mn9  1  0.51128348  0.51850736  0.01421189  1
  Sb  Sb10  1  0.89270937  0.98447844  0.45224279  1
  Sb  Sb11  1  0.10862654  0.01519866  0.55293396  1
  Sb  Sb12  1  0.02156006  0.52178755  0.79897127  1
  Sb  Sb13  1  0.97180736  0.49999426  0.18098245  1
  Sb  Sb14  1  0.40602373  0.47318034  0.46538682  1
  Sb  Sb15  1  0.60396562  0.46299033  0.56716512  1
  Sb  Sb16  1  0.53053154  0.97224517  0.81972628  1
  Sb  Sb17  1  0.45933722  0.98125765  0.17705115  1
  S  S18  1  0.92541520  0.99239996  0.77267198  1
  S  S19  1  0.07767181  0.00480981  0.20981751  1
  S  S20  1  0.41533215  0.97772185  0.98355795  1
  S  S21  1  0.58388424  0.97777435  0.01835906  1
  S  S22  1  0.16699105  0.95316860  0.89336139  1
  S  S23  1  0.83377051  0.00519147  0.10328574  1
  S  S24  1  0.09158224  0.48313084  0.65170658  1
  S  S25  1  0.89690070  0.47203298  0.34264158  1
  S  S26  1  0.73190242  0.96245428  0.29992849  1
  S  S27  1  0.27053847  0.95162958  0.70542895  1
  S  S28  1  0.15629052  0.38147403  0.44051326  1
  S  S29  1  0.83191474  0.50078732  0.53734106  1
  S  S30  1  0.44564221  0.49154418  0.81920238  1
  S  S31  1  0.56973240  0.50202846  0.19656562  1
  S  S32  1  0.91470937  0.49415948  0.97775860  1
  S  S33  1  0.07894283  0.48882826  0.00044144  1
  S  S34  1  0.67366082  0.41656409  0.90347507  1
  S  S35  1  0.34626098  0.48380342  0.11371582  1
  S  S36  1  0.59753694  0.97491926  0.66703100  1
  S  S37  1  0.42523276  0.00145512  0.36461498  1
  S  S38  1  0.25467950  0.46820659  0.29776057  1
  S  S39  1  0.76364570  0.48765708  0.67681118  1
  S  S40  1  0.66132067  0.00579815  0.43175811  1
  S  S41  1  0.32974260  0.05693025  0.53178557  1
