# generated using pymatgen
data_Pr2Mn3(SbS3)4
_symmetry_space_group_name_H-M   'P 1'
_cell_length_a   20.02960800
_cell_length_b   3.90410600
_cell_length_c   14.95364829
_cell_angle_alpha   90.00000000
_cell_angle_beta   126.33350609
_cell_angle_gamma   90.00000000
_symmetry_Int_Tables_number   1
_chemical_formula_structural   Pr2Mn3(SbS3)4
_chemical_formula_sum   'Pr4 Mn6 Sb8 S24'
_cell_volume   942.00006694
_cell_formula_units_Z   2
loop_
 _symmetry_equiv_pos_site_id
 _symmetry_equiv_pos_as_xyz
  1  'x, y, z'
loop_
 _atom_site_type_symbol
 _atom_site_label
 _atom_site_symmetry_multiplicity
 _atom_site_fract_x
 _atom_site_fract_y
 _atom_site_fract_z
 _atom_site_occupancy
  Pr  Pr0  1  0.26932984  0.49731479  0.86693106  1
  Pr  Pr1  1  0.73394190  0.51492810  0.13301524  1
  Pr  Pr2  1  0.76538259  0.02367997  0.86452054  1
  Pr  Pr3  1  0.23312598  0.99263061  0.13279905  1
  Mn  Mn4  1  0.29796597  0.46986590  0.60126280  1
  Mn  Mn5  1  0.68491026  0.45980782  0.36100812  1
  Mn  Mn6  1  0.00422621  0.99004583  0.01025157  1
  Mn  Mn7  1  0.79683061  0.01170969  0.61859820  1
  Mn  Mn8  1  0.19511990  0.98108300  0.36699749  1
  Mn  Mn9  1  0.48589594  0.46884211  0.98390045  1
  Sb  Sb10  1  0.88950092  0.98795195  0.45052973  1
  Sb  Sb11  1  0.10989384  0.98135466  0.54534003  1
  Sb  Sb12  1  0.03628873  0.52850827  0.82193142  1
  Sb  Sb13  1  0.96723807  0.50082429  0.18993413  1
  Sb  Sb14  1  0.39227206  0.50221909  0.44811862  1
  Sb  Sb15  1  0.60655182  0.47637132  0.54589676  1
  Sb  Sb16  1  0.53404576  0.97925025  0.80793232  1
  Sb  Sb17  1  0.46625199  0.01890592  0.19010962  1
  S  S18  1  0.93515806  0.01221818  0.80687330  1
  S  S19  1  0.06503743  0.00780202  0.19742374  1
  S  S20  1  0.41755907  0.96195553  0.98934126  1
  S  S21  1  0.58586740  0.03104141  0.01691725  1
  S  S22  1  0.17104591  0.05390698  0.90105495  1
  S  S23  1  0.82688549  0.03694229  0.10154820  1
  S  S24  1  0.09026419  0.49481296  0.64485878  1
  S  S25  1  0.91421103  0.48600493  0.35489057  1
  S  S26  1  0.74040507  0.99265602  0.30394632  1
  S  S27  1  0.25961576  0.01013928  0.70892328  1
  S  S28  1  0.16632131  0.52325791  0.43282862  1
  S  S29  1  0.81295948  0.49914258  0.54258528  1
  S  S30  1  0.43015722  0.46842361  0.79505632  1
  S  S31  1  0.55423327  0.52032936  0.18230339  1
  S  S32  1  0.92096461  0.50475731  0.99174383  1
  S  S33  1  0.09114090  0.49455907  0.02833423  1
  S  S34  1  0.66464895  0.55421422  0.89572784  1
  S  S35  1  0.32751953  0.47917896  0.09172561  1
  S  S36  1  0.58991238  0.98879689  0.65046148  1
  S  S37  1  0.39856426  0.98151001  0.34230607  1
  S  S38  1  0.24391690  0.47103654  0.31725025  1
  S  S39  1  0.75899100  0.52471058  0.68703771  1
  S  S40  1  0.66366192  0.99351490  0.44629544  1
  S  S41  1  0.33144926  0.98314095  0.55562329  1
