# generated using pymatgen
data_Pr2Mn3(SbS3)4
_symmetry_space_group_name_H-M   'P 1'
_cell_length_a   20.02960800
_cell_length_b   3.90410600
_cell_length_c   14.95364829
_cell_angle_alpha   90.00000000
_cell_angle_beta   126.33350609
_cell_angle_gamma   90.00000000
_symmetry_Int_Tables_number   1
_chemical_formula_structural   Pr2Mn3(SbS3)4
_chemical_formula_sum   'Pr4 Mn6 Sb8 S24'
_cell_volume   942.00006694
_cell_formula_units_Z   2
loop_
 _symmetry_equiv_pos_site_id
 _symmetry_equiv_pos_as_xyz
  1  'x, y, z'
loop_
 _atom_site_type_symbol
 _atom_site_label
 _atom_site_symmetry_multiplicity
 _atom_site_fract_x
 _atom_site_fract_y
 _atom_site_fract_z
 _atom_site_occupancy
  Pr  Pr0  1  0.26046226  0.49420724  0.86497657  1
  Pr  Pr1  1  0.72773230  0.51624484  0.12830673  1
  Pr  Pr2  1  0.77088257  0.97395459  0.88078406  1
  Pr  Pr3  1  0.24710255  0.96704681  0.15151809  1
  Mn  Mn4  1  0.28709204  0.59164433  0.58795602  1
  Mn  Mn5  1  0.70430162  0.46220822  0.39155026  1
  Mn  Mn6  1  0.99284056  0.95393189  0.98657628  1
  Mn  Mn7  1  0.78397575  0.03394470  0.57967251  1
  Mn  Mn8  1  0.18885703  0.89657920  0.40716241  1
  Mn  Mn9  1  0.51124340  0.51730139  0.01409379  1
  Sb  Sb10  1  0.89285836  0.98434986  0.45240072  1
  Sb  Sb11  1  0.10833439  0.01539647  0.55252367  1
  Sb  Sb12  1  0.02161738  0.52199276  0.79904046  1
  Sb  Sb13  1  0.97177954  0.49985342  0.18114679  1
  Sb  Sb14  1  0.40612804  0.47308722  0.46522613  1
  Sb  Sb15  1  0.60389229  0.46321325  0.56709856  1
  Sb  Sb16  1  0.53039497  0.97169806  0.81975014  1
  Sb  Sb17  1  0.45939926  0.98046991  0.17697143  1
  S  S18  1  0.92513956  0.99072114  0.77246277  1
  S  S19  1  0.07819473  0.00456396  0.21025711  1
  S  S20  1  0.41538550  0.97794741  0.98370059  1
  S  S21  1  0.58430668  0.97693533  0.01859846  1
  S  S22  1  0.16705402  0.95302064  0.89354792  1
  S  S23  1  0.83378057  0.00650079  0.10334452  1
  S  S24  1  0.09150146  0.48254000  0.65136171  1
  S  S25  1  0.89639721  0.47172790  0.34199682  1
  S  S26  1  0.73233069  0.96215724  0.30050943  1
  S  S27  1  0.27046621  0.95185298  0.70523412  1
  S  S28  1  0.15618331  0.38108869  0.44049100  1
  S  S29  1  0.83171209  0.50134473  0.53765477  1
  S  S30  1  0.44590216  0.49271851  0.81913129  1
  S  S31  1  0.56985624  0.50293512  0.19674178  1
  S  S32  1  0.91460195  0.49380696  0.97798744  1
  S  S33  1  0.07873469  0.48707038  0.00000850  1
  S  S34  1  0.67378838  0.41612427  0.90336662  1
  S  S35  1  0.34629358  0.48505162  0.11340266  1
  S  S36  1  0.59756883  0.97578898  0.66704674  1
  S  S37  1  0.42550775  0.00277921  0.36523004  1
  S  S38  1  0.25427756  0.46719985  0.29745618  1
  S  S39  1  0.76360663  0.48756041  0.67681473  1
  S  S40  1  0.66147647  0.00511685  0.43247667  1
  S  S41  1  0.32964511  0.05535748  0.53140198  1
