# generated using pymatgen
data_Pr2Mn3(SbS3)4
_symmetry_space_group_name_H-M   'P 1'
_cell_length_a   20.02960800
_cell_length_b   3.90410600
_cell_length_c   14.95364829
_cell_angle_alpha   90.00000000
_cell_angle_beta   126.33350609
_cell_angle_gamma   90.00000000
_symmetry_Int_Tables_number   1
_chemical_formula_structural   Pr2Mn3(SbS3)4
_chemical_formula_sum   'Pr4 Mn6 Sb8 S24'
_cell_volume   942.00006694
_cell_formula_units_Z   2
loop_
 _symmetry_equiv_pos_site_id
 _symmetry_equiv_pos_as_xyz
  1  'x, y, z'
loop_
 _atom_site_type_symbol
 _atom_site_label
 _atom_site_symmetry_multiplicity
 _atom_site_fract_x
 _atom_site_fract_y
 _atom_site_fract_z
 _atom_site_occupancy
  Pr  Pr0  1  0.26047392  0.49453686  0.86496025  1
  Pr  Pr1  1  0.72769357  0.51619711  0.12811434  1
  Pr  Pr2  1  0.77101520  0.97345341  0.88071910  1
  Pr  Pr3  1  0.24709726  0.96662459  0.15170276  1
  Mn  Mn4  1  0.28719415  0.59180346  0.58830189  1
  Mn  Mn5  1  0.70422309  0.46296448  0.39189972  1
  Mn  Mn6  1  0.99255681  0.95492346  0.98616544  1
  Mn  Mn7  1  0.78379134  0.03453025  0.57958429  1
  Mn  Mn8  1  0.18879229  0.89788602  0.40696163  1
  Mn  Mn9  1  0.51135814  0.51550237  0.01413625  1
  Sb  Sb10  1  0.89297886  0.98423798  0.45255525  1
  Sb  Sb11  1  0.10804347  0.01553852  0.55216520  1
  Sb  Sb12  1  0.02168250  0.52212064  0.79906465  1
  Sb  Sb13  1  0.97176621  0.50011198  0.18127853  1
  Sb  Sb14  1  0.40620317  0.47295798  0.46507286  1
  Sb  Sb15  1  0.60384184  0.46353251  0.56708695  1
  Sb  Sb16  1  0.53023885  0.97131883  0.81967147  1
  Sb  Sb17  1  0.45945747  0.97938935  0.17687015  1
  S  S18  1  0.92495848  0.98931392  0.77224140  1
  S  S19  1  0.07873019  0.00407904  0.21065421  1
  S  S20  1  0.41564020  0.97922602  0.98390423  1
  S  S21  1  0.58480042  0.97551346  0.01887870  1
  S  S22  1  0.16710328  0.95214516  0.89380044  1
  S  S23  1  0.83377890  0.00757172  0.10355958  1
  S  S24  1  0.09141979  0.48215118  0.65103073  1
  S  S25  1  0.89606054  0.47107215  0.34170738  1
  S  S26  1  0.73277049  0.96204316  0.30108892  1
  S  S27  1  0.27048813  0.95202736  0.70483251  1
  S  S28  1  0.15625143  0.38073014  0.44076247  1
  S  S29  1  0.83170151  0.50222275  0.53795286  1
  S  S30  1  0.44615349  0.49307029  0.81902192  1
  S  S31  1  0.56996908  0.50358886  0.19700909  1
  S  S32  1  0.91457178  0.49329617  0.97832386  1
  S  S33  1  0.07852980  0.48503513  0.99951646  1
  S  S34  1  0.67375980  0.41601694  0.90306012  1
  S  S35  1  0.34626263  0.48691344  0.11312185  1
  S  S36  1  0.59753082  0.97673283  0.66714760  1
  S  S37  1  0.42572230  0.00396106  0.36577946  1
  S  S38  1  0.25382848  0.46621447  0.29714083  1
  S  S39  1  0.76359768  0.48715677  0.67691018  1
  S  S40  1  0.66151910  0.00417479  0.43296218  1
  S  S41  1  0.32943822  0.05345722  0.53085618  1
