# generated using pymatgen
data_Pr2Mn3(SbS3)4
_symmetry_space_group_name_H-M   'P 1'
_cell_length_a   20.02960800
_cell_length_b   3.90410600
_cell_length_c   14.95364829
_cell_angle_alpha   90.00000000
_cell_angle_beta   126.33350609
_cell_angle_gamma   90.00000000
_symmetry_Int_Tables_number   1
_chemical_formula_structural   Pr2Mn3(SbS3)4
_chemical_formula_sum   'Pr4 Mn6 Sb8 S24'
_cell_volume   942.00006694
_cell_formula_units_Z   2
loop_
 _symmetry_equiv_pos_site_id
 _symmetry_equiv_pos_as_xyz
  1  'x, y, z'
loop_
 _atom_site_type_symbol
 _atom_site_label
 _atom_site_symmetry_multiplicity
 _atom_site_fract_x
 _atom_site_fract_y
 _atom_site_fract_z
 _atom_site_occupancy
  Pr  Pr0  1  0.26050616  0.49484529  0.86510417  1
  Pr  Pr1  1  0.72758228  0.51607983  0.12787117  1
  Pr  Pr2  1  0.77120398  0.97325611  0.88069935  1
  Pr  Pr3  1  0.24710446  0.96612238  0.15189085  1
  Mn  Mn4  1  0.28723731  0.59167517  0.58850916  1
  Mn  Mn5  1  0.70421521  0.46344591  0.39222557  1
  Mn  Mn6  1  0.99229419  0.95565990  0.98588573  1
  Mn  Mn7  1  0.78367839  0.03508484  0.57954607  1
  Mn  Mn8  1  0.18879051  0.89918727  0.40680689  1
  Mn  Mn9  1  0.51150354  0.51391712  0.01422917  1
  Sb  Sb10  1  0.89310903  0.98393196  0.45278061  1
  Sb  Sb11  1  0.10776434  0.01558070  0.55186226  1
  Sb  Sb12  1  0.02168107  0.52249627  0.79904323  1
  Sb  Sb13  1  0.97175953  0.50001891  0.18143143  1
  Sb  Sb14  1  0.40629354  0.47289411  0.46494142  1
  Sb  Sb15  1  0.60374941  0.46360543  0.56705567  1
  Sb  Sb16  1  0.53016206  0.97118560  0.81954947  1
  Sb  Sb17  1  0.45948211  0.97859138  0.17685805  1
  S  S18  1  0.92495274  0.98793514  0.77205415  1
  S  S19  1  0.07925948  0.00353117  0.21091032  1
  S  S20  1  0.41575334  0.98034501  0.98405152  1
  S  S21  1  0.58531715  0.97344270  0.01917530  1
  S  S22  1  0.16725114  0.95199805  0.89388015  1
  S  S23  1  0.83378258  0.00855614  0.10379776  1
  S  S24  1  0.09130358  0.48184801  0.65060878  1
  S  S25  1  0.89581491  0.47094519  0.34151815  1
  S  S26  1  0.73330090  0.96131230  0.30169023  1
  S  S27  1  0.27044411  0.95179339  0.70438342  1
  S  S28  1  0.15631266  0.37980398  0.44123271  1
  S  S29  1  0.83166070  0.50351675  0.53803023  1
  S  S30  1  0.44652373  0.49312024  0.81909748  1
  S  S31  1  0.56982036  0.50412158  0.19709527  1
  S  S32  1  0.91455053  0.49327291  0.97837544  1
  S  S33  1  0.07831715  0.48336236  0.99898850  1
  S  S34  1  0.67385232  0.41587936  0.90289215  1
  S  S35  1  0.34631273  0.48872669  0.11285024  1
  S  S36  1  0.59754678  0.97792066  0.66736756  1
  S  S37  1  0.42595104  0.00452988  0.36622276  1
  S  S38  1  0.25353854  0.46485869  0.29680737  1
  S  S39  1  0.76339096  0.48635601  0.67685236  1
  S  S40  1  0.66152872  0.00280343  0.43345664  1
  S  S41  1  0.32923841  0.05177585  0.53045909  1
