# generated using pymatgen
data_Pr2Mn3(SbS3)4
_symmetry_space_group_name_H-M   'P 1'
_cell_length_a   20.02960800
_cell_length_b   3.90410600
_cell_length_c   14.95364829
_cell_angle_alpha   90.00000000
_cell_angle_beta   126.33350609
_cell_angle_gamma   90.00000000
_symmetry_Int_Tables_number   1
_chemical_formula_structural   Pr2Mn3(SbS3)4
_chemical_formula_sum   'Pr4 Mn6 Sb8 S24'
_cell_volume   942.00006694
_cell_formula_units_Z   2
loop_
 _symmetry_equiv_pos_site_id
 _symmetry_equiv_pos_as_xyz
  1  'x, y, z'
loop_
 _atom_site_type_symbol
 _atom_site_label
 _atom_site_symmetry_multiplicity
 _atom_site_fract_x
 _atom_site_fract_y
 _atom_site_fract_z
 _atom_site_occupancy
  Pr  Pr0  1  0.26056314  0.49474897  0.86523080  1
  Pr  Pr1  1  0.72750276  0.51596350  0.12761559  1
  Pr  Pr2  1  0.77135323  0.97319127  0.88068477  1
  Pr  Pr3  1  0.24710232  0.96551146  0.15202611  1
  Mn  Mn4  1  0.28717600  0.59146525  0.58871800  1
  Mn  Mn5  1  0.70420550  0.46389863  0.39254251  1
  Mn  Mn6  1  0.99201683  0.95605035  0.98549258  1
  Mn  Mn7  1  0.78368879  0.03581272  0.57969719  1
  Mn  Mn8  1  0.18884602  0.90012718  0.40672780  1
  Mn  Mn9  1  0.51157110  0.51245409  0.01427904  1
  Sb  Sb10  1  0.89325542  0.98396811  0.45299248  1
  Sb  Sb11  1  0.10751814  0.01569658  0.55166072  1
  Sb  Sb12  1  0.02167586  0.52273951  0.79899060  1
  Sb  Sb13  1  0.97174572  0.49986363  0.18161450  1
  Sb  Sb14  1  0.40632891  0.47300697  0.46474875  1
  Sb  Sb15  1  0.60365431  0.46357116  0.56701013  1
  Sb  Sb16  1  0.53014989  0.97106716  0.81954516  1
  Sb  Sb17  1  0.45947253  0.97767736  0.17688625  1
  S  S18  1  0.92478820  0.98632454  0.77175926  1
  S  S19  1  0.07959006  0.00375207  0.21109455  1
  S  S20  1  0.41568847  0.98081629  0.98412491  1
  S  S21  1  0.58584022  0.97149661  0.01947822  1
  S  S22  1  0.16747104  0.95217037  0.89399287  1
  S  S23  1  0.83364123  0.00965614  0.10373641  1
  S  S24  1  0.09134148  0.48160483  0.65021742  1
  S  S25  1  0.89559636  0.47098149  0.34137316  1
  S  S26  1  0.73380224  0.96011641  0.30232352  1
  S  S27  1  0.27037970  0.95141272  0.70402717  1
  S  S28  1  0.15625933  0.37912351  0.44143138  1
  S  S29  1  0.83164776  0.50414457  0.53810162  1
  S  S30  1  0.44649149  0.49232041  0.81873343  1
  S  S31  1  0.56960519  0.50461222  0.19710949  1
  S  S32  1  0.91456571  0.49190685  0.97854952  1
  S  S33  1  0.07805930  0.48190682  0.99857043  1
  S  S34  1  0.67388593  0.41663272  0.90254769  1
  S  S35  1  0.34622343  0.49055876  0.11266990  1
  S  S36  1  0.59747254  0.97946714  0.66741956  1
  S  S37  1  0.42612851  0.00485914  0.36666054  1
  S  S38  1  0.25348976  0.46356567  0.29672778  1
  S  S39  1  0.76312630  0.48525877  0.67671335  1
  S  S40  1  0.66162772  0.00205719  0.43409025  1
  S  S41  1  0.32906028  0.05043238  0.53007396  1
