# generated using pymatgen
data_Pr2Mn3(SbS3)4
_symmetry_space_group_name_H-M   'P 1'
_cell_length_a   20.02960800
_cell_length_b   3.90410600
_cell_length_c   14.95364829
_cell_angle_alpha   90.00000000
_cell_angle_beta   126.33350609
_cell_angle_gamma   90.00000000
_symmetry_Int_Tables_number   1
_chemical_formula_structural   Pr2Mn3(SbS3)4
_chemical_formula_sum   'Pr4 Mn6 Sb8 S24'
_cell_volume   942.00006694
_cell_formula_units_Z   2
loop_
 _symmetry_equiv_pos_site_id
 _symmetry_equiv_pos_as_xyz
  1  'x, y, z'
loop_
 _atom_site_type_symbol
 _atom_site_label
 _atom_site_symmetry_multiplicity
 _atom_site_fract_x
 _atom_site_fract_y
 _atom_site_fract_z
 _atom_site_occupancy
  Pr  Pr0  1  0.26067641  0.49465638  0.86532087  1
  Pr  Pr1  1  0.72740605  0.51596682  0.12739867  1
  Pr  Pr2  1  0.77155999  0.97298915  0.88074556  1
  Pr  Pr3  1  0.24705966  0.96486589  0.15217922  1
  Mn  Mn4  1  0.28705254  0.59172746  0.58885422  1
  Mn  Mn5  1  0.70407821  0.46441722  0.39257373  1
  Mn  Mn6  1  0.99175303  0.95656117  0.98520454  1
  Mn  Mn7  1  0.78370458  0.03643630  0.57985710  1
  Mn  Mn8  1  0.18882784  0.90118220  0.40653470  1
  Mn  Mn9  1  0.51153991  0.51122835  0.01428882  1
  Sb  Sb10  1  0.89336774  0.98405931  0.45317177  1
  Sb  Sb11  1  0.10730528  0.01573856  0.55151797  1
  Sb  Sb12  1  0.02165506  0.52255288  0.79890206  1
  Sb  Sb13  1  0.97169573  0.49973258  0.18178118  1
  Sb  Sb14  1  0.40643820  0.47329011  0.46461088  1
  Sb  Sb15  1  0.60358092  0.46379807  0.56699982  1
  Sb  Sb16  1  0.53018991  0.97132414  0.81968803  1
  Sb  Sb17  1  0.45953745  0.97692408  0.17702705  1
  S  S18  1  0.92446481  0.98543563  0.77136986  1
  S  S19  1  0.07985868  0.00432736  0.21128579  1
  S  S20  1  0.41551715  0.98137927  0.98390986  1
  S  S21  1  0.58610555  0.96992699  0.01953288  1
  S  S22  1  0.16760421  0.95220798  0.89399926  1
  S  S23  1  0.83356188  0.01088139  0.10385010  1
  S  S24  1  0.09137397  0.48191263  0.64981984  1
  S  S25  1  0.89530083  0.47141722  0.34109132  1
  S  S26  1  0.73422167  0.95905821  0.30300488  1
  S  S27  1  0.27030567  0.95076539  0.70383691  1
  S  S28  1  0.15618419  0.37811107  0.44146370  1
  S  S29  1  0.83145948  0.50529466  0.53815080  1
  S  S30  1  0.44661861  0.49139480  0.81849681  1
  S  S31  1  0.56933545  0.50501156  0.19695490  1
  S  S32  1  0.91464127  0.49086517  0.97884182  1
  S  S33  1  0.07780652  0.48085046  0.99850398  1
  S  S34  1  0.67395980  0.41719909  0.90225319  1
  S  S35  1  0.34627513  0.49237341  0.11268867  1
  S  S36  1  0.59730986  0.98115760  0.66738274  1
  S  S37  1  0.42649150  0.00474177  0.36712984  1
  S  S38  1  0.25352310  0.46232252  0.29672399  1
  S  S39  1  0.76271284  0.48464168  0.67645276  1
  S  S40  1  0.66163519  0.00135082  0.43458572  1
  S  S41  1  0.32877943  0.04929152  0.52970984  1
