# generated using pymatgen
data_Pr2Mn3(SbS3)4
_symmetry_space_group_name_H-M   'P 1'
_cell_length_a   20.02960800
_cell_length_b   3.90410600
_cell_length_c   14.95364829
_cell_angle_alpha   90.00000000
_cell_angle_beta   126.33350609
_cell_angle_gamma   90.00000000
_symmetry_Int_Tables_number   1
_chemical_formula_structural   Pr2Mn3(SbS3)4
_chemical_formula_sum   'Pr4 Mn6 Sb8 S24'
_cell_volume   942.00006694
_cell_formula_units_Z   2
loop_
 _symmetry_equiv_pos_site_id
 _symmetry_equiv_pos_as_xyz
  1  'x, y, z'
loop_
 _atom_site_type_symbol
 _atom_site_label
 _atom_site_symmetry_multiplicity
 _atom_site_fract_x
 _atom_site_fract_y
 _atom_site_fract_z
 _atom_site_occupancy
  Pr  Pr0  1  0.26082532  0.49448078  0.86545456  1
  Pr  Pr1  1  0.72732763  0.51604791  0.12730069  1
  Pr  Pr2  1  0.77177332  0.97294774  0.88083626  1
  Pr  Pr3  1  0.24701540  0.96445579  0.15226764  1
  Mn  Mn4  1  0.28695358  0.59189214  0.58877983  1
  Mn  Mn5  1  0.70388136  0.46511692  0.39257464  1
  Mn  Mn6  1  0.99147374  0.95760732  0.98486345  1
  Mn  Mn7  1  0.78373007  0.03703722  0.58000045  1
  Mn  Mn8  1  0.18879405  0.90210057  0.40634141  1
  Mn  Mn9  1  0.51141310  0.51021624  0.01419261  1
  Sb  Sb10  1  0.89348863  0.98409001  0.45335703  1
  Sb  Sb11  1  0.10719150  0.01591438  0.55142193  1
  Sb  Sb12  1  0.02166079  0.52262297  0.79886628  1
  Sb  Sb13  1  0.97172726  0.49964183  0.18200268  1
  Sb  Sb14  1  0.40662641  0.47334897  0.46453792  1
  Sb  Sb15  1  0.60342852  0.46383772  0.56690559  1
  Sb  Sb16  1  0.53018253  0.97127846  0.81972796  1
  Sb  Sb17  1  0.45958950  0.97602835  0.17715093  1
  S  S18  1  0.92450079  0.98396001  0.77135518  1
  S  S19  1  0.08019886  0.00477841  0.21146356  1
  S  S20  1  0.41540861  0.98210951  0.98359875  1
  S  S21  1  0.58641459  0.96890094  0.01959220  1
  S  S22  1  0.16787898  0.95194345  0.89400962  1
  S  S23  1  0.83348344  0.01142786  0.10410994  1
  S  S24  1  0.09138371  0.48195965  0.64955974  1
  S  S25  1  0.89515959  0.47195919  0.34070617  1
  S  S26  1  0.73461039  0.95842628  0.30372258  1
  S  S27  1  0.27024530  0.95031747  0.70360036  1
  S  S28  1  0.15607068  0.37795739  0.44144572  1
  S  S29  1  0.83130955  0.50587020  0.53826348  1
  S  S30  1  0.44675778  0.49040616  0.81838926  1
  S  S31  1  0.56894831  0.50526128  0.19676935  1
  S  S32  1  0.91482615  0.48997996  0.97901808  1
  S  S33  1  0.07755491  0.47935215  0.99846880  1
  S  S34  1  0.67407170  0.41784343  0.90197396  1
  S  S35  1  0.34641814  0.49374538  0.11269221  1
  S  S36  1  0.59718115  0.98296403  0.66753195  1
  S  S37  1  0.42689811  0.00497695  0.36759518  1
  S  S38  1  0.25356987  0.46121576  0.29684421  1
  S  S39  1  0.76235393  0.48389113  0.67602876  1
  S  S40  1  0.66171764  0.00080504  0.43504609  1
  S  S41  1  0.32860447  0.04746641  0.52944147  1
