# generated using pymatgen
data_Pr2Mn3(SbS3)4
_symmetry_space_group_name_H-M   'P 1'
_cell_length_a   20.02960800
_cell_length_b   3.90410600
_cell_length_c   14.95364829
_cell_angle_alpha   90.00000000
_cell_angle_beta   126.33350609
_cell_angle_gamma   90.00000000
_symmetry_Int_Tables_number   1
_chemical_formula_structural   Pr2Mn3(SbS3)4
_chemical_formula_sum   'Pr4 Mn6 Sb8 S24'
_cell_volume   942.00006694
_cell_formula_units_Z   2
loop_
 _symmetry_equiv_pos_site_id
 _symmetry_equiv_pos_as_xyz
  1  'x, y, z'
loop_
 _atom_site_type_symbol
 _atom_site_label
 _atom_site_symmetry_multiplicity
 _atom_site_fract_x
 _atom_site_fract_y
 _atom_site_fract_z
 _atom_site_occupancy
  Pr  Pr0  1  0.26100142  0.49445000  0.86554497  1
  Pr  Pr1  1  0.72728237  0.51587524  0.12730616  1
  Pr  Pr2  1  0.77196809  0.97260037  0.88085615  1
  Pr  Pr3  1  0.24696232  0.96401894  0.15230727  1
  Mn  Mn4  1  0.28677942  0.59215931  0.58860786  1
  Mn  Mn5  1  0.70365741  0.46556325  0.39253923  1
  Mn  Mn6  1  0.99118103  0.95817926  0.98451875  1
  Mn  Mn7  1  0.78372328  0.03778793  0.58019063  1
  Mn  Mn8  1  0.18881499  0.90329102  0.40618677  1
  Mn  Mn9  1  0.51141121  0.50901770  0.01400581  1
  Sb  Sb10  1  0.89367998  0.98423834  0.45357313  1
  Sb  Sb11  1  0.10702668  0.01623422  0.55124537  1
  Sb  Sb12  1  0.02167100  0.52246301  0.79884713  1
  Sb  Sb13  1  0.97175994  0.49946241  0.18218293  1
  Sb  Sb14  1  0.40682382  0.47359262  0.46449568  1
  Sb  Sb15  1  0.60330751  0.46386860  0.56676805  1
  Sb  Sb16  1  0.53006938  0.97129353  0.81972572  1
  Sb  Sb17  1  0.45964597  0.97513255  0.17725923  1
  S  S18  1  0.92466421  0.98275037  0.77146653  1
  S  S19  1  0.08042862  0.00511466  0.21162646  1
  S  S20  1  0.41523756  0.98232695  0.98321486  1
  S  S21  1  0.58664847  0.96815992  0.01960970  1
  S  S22  1  0.16814972  0.95188000  0.89422841  1
  S  S23  1  0.83332867  0.01161080  0.10420467  1
  S  S24  1  0.09135301  0.48189962  0.64926268  1
  S  S25  1  0.89500023  0.47209972  0.34014396  1
  S  S26  1  0.73492604  0.95825750  0.30446554  1
  S  S27  1  0.27011042  0.94964588  0.70333198  1
  S  S28  1  0.15600205  0.37791919  0.44150600  1
  S  S29  1  0.83111691  0.50704107  0.53845939  1
  S  S30  1  0.44676315  0.48990795  0.81803943  1
  S  S31  1  0.56860705  0.50558165  0.19640492  1
  S  S32  1  0.91487868  0.48860798  0.97903366  1
  S  S33  1  0.07740633  0.47789513  0.99838041  1
  S  S34  1  0.67430632  0.41835405  0.90175635  1
  S  S35  1  0.34652371  0.49488682  0.11275488  1
  S  S36  1  0.59704786  0.98392785  0.66768428  1
  S  S37  1  0.42733885  0.00481865  0.36800466  1
  S  S38  1  0.25373950  0.46101333  0.29710815  1
  S  S39  1  0.76196430  0.48317594  0.67559564  1
  S  S40  1  0.66194089  0.99967962  0.43540562  1
  S  S41  1  0.32843418  0.04632592  0.52914516  1
