# generated using pymatgen
data_Pr2Mn3(SbS3)4
_symmetry_space_group_name_H-M   'P 1'
_cell_length_a   20.02960800
_cell_length_b   3.90410600
_cell_length_c   14.95364829
_cell_angle_alpha   90.00000000
_cell_angle_beta   126.33350609
_cell_angle_gamma   90.00000000
_symmetry_Int_Tables_number   1
_chemical_formula_structural   Pr2Mn3(SbS3)4
_chemical_formula_sum   'Pr4 Mn6 Sb8 S24'
_cell_volume   942.00006694
_cell_formula_units_Z   2
loop_
 _symmetry_equiv_pos_site_id
 _symmetry_equiv_pos_as_xyz
  1  'x, y, z'
loop_
 _atom_site_type_symbol
 _atom_site_label
 _atom_site_symmetry_multiplicity
 _atom_site_fract_x
 _atom_site_fract_y
 _atom_site_fract_z
 _atom_site_occupancy
  Pr  Pr0  1  0.26111460  0.49461235  0.86563008  1
  Pr  Pr1  1  0.72725447  0.51560717  0.12731598  1
  Pr  Pr2  1  0.77209924  0.97239350  0.88088797  1
  Pr  Pr3  1  0.24694243  0.96346423  0.15229037  1
  Mn  Mn4  1  0.28664346  0.59187087  0.58842653  1
  Mn  Mn5  1  0.70335644  0.46604077  0.39233734  1
  Mn  Mn6  1  0.99099444  0.95839386  0.98419512  1
  Mn  Mn7  1  0.78368099  0.03847226  0.58042882  1
  Mn  Mn8  1  0.18873538  0.90410521  0.40596098  1
  Mn  Mn9  1  0.51146289  0.50757114  0.01392299  1
  Sb  Sb10  1  0.89384102  0.98461460  0.45372900  1
  Sb  Sb11  1  0.10691650  0.01610569  0.55115949  1
  Sb  Sb12  1  0.02167679  0.52235020  0.79878469  1
  Sb  Sb13  1  0.97179028  0.49915578  0.18236326  1
  Sb  Sb14  1  0.40694958  0.47376256  0.46443909  1
  Sb  Sb15  1  0.60322930  0.46376260  0.56658176  1
  Sb  Sb16  1  0.52996306  0.97096785  0.81975095  1
  Sb  Sb17  1  0.45977191  0.97439901  0.17741857  1
  S  S18  1  0.92478021  0.98201794  0.77171376  1
  S  S19  1  0.08048049  0.00529569  0.21157647  1
  S  S20  1  0.41499728  0.98288174  0.98276454  1
  S  S21  1  0.58689642  0.96772072  0.01957737  1
  S  S22  1  0.16842652  0.95226637  0.89437381  1
  S  S23  1  0.83311102  0.01191996  0.10402027  1
  S  S24  1  0.09123643  0.48166473  0.64917447  1
  S  S25  1  0.89496522  0.47268417  0.33967192  1
  S  S26  1  0.73514303  0.95790503  0.30513388  1
  S  S27  1  0.26981824  0.94913188  0.70295902  1
  S  S28  1  0.15595617  0.37777220  0.44144603  1
  S  S29  1  0.83081981  0.50835794  0.53854124  1
  S  S30  1  0.44661262  0.48946765  0.81748837  1
  S  S31  1  0.56831492  0.50532262  0.19625278  1
  S  S32  1  0.91485647  0.48754716  0.97918522  1
  S  S33  1  0.07733439  0.47633577  0.99833959  1
  S  S34  1  0.67458336  0.41926500  0.90156339  1
  S  S35  1  0.34662965  0.49623306  0.11282008  1
  S  S36  1  0.59696032  0.98490303  0.66775436  1
  S  S37  1  0.42765765  0.00346524  0.36828414  1
  S  S38  1  0.25407464  0.46076579  0.29763564  1
  S  S39  1  0.76147278  0.48256085  0.67515354  1
  S  S40  1  0.66205388  0.99854722  0.43564839  1
  S  S41  1  0.32816792  0.04532271  0.52890917  1
