# generated using pymatgen
data_Pr2Mn3(SbS3)4
_symmetry_space_group_name_H-M   'P 1'
_cell_length_a   20.02960800
_cell_length_b   3.90410600
_cell_length_c   14.95364829
_cell_angle_alpha   90.00000000
_cell_angle_beta   126.33350609
_cell_angle_gamma   90.00000000
_symmetry_Int_Tables_number   1
_chemical_formula_structural   Pr2Mn3(SbS3)4
_chemical_formula_sum   'Pr4 Mn6 Sb8 S24'
_cell_volume   942.00006694
_cell_formula_units_Z   2
loop_
 _symmetry_equiv_pos_site_id
 _symmetry_equiv_pos_as_xyz
  1  'x, y, z'
loop_
 _atom_site_type_symbol
 _atom_site_label
 _atom_site_symmetry_multiplicity
 _atom_site_fract_x
 _atom_site_fract_y
 _atom_site_fract_z
 _atom_site_occupancy
  Pr  Pr0  1  0.26115969  0.49489189  0.86563712  1
  Pr  Pr1  1  0.72721274  0.51535406  0.12733383  1
  Pr  Pr2  1  0.77225458  0.97222467  0.88093448  1
  Pr  Pr3  1  0.24694400  0.96292905  0.15232685  1
  Mn  Mn4  1  0.28659364  0.59170138  0.58830029  1
  Mn  Mn5  1  0.70323256  0.46697488  0.39211055  1
  Mn  Mn6  1  0.99097724  0.95902078  0.98406235  1
  Mn  Mn7  1  0.78355101  0.03901631  0.58063462  1
  Mn  Mn8  1  0.18873792  0.90511182  0.40583474  1
  Mn  Mn9  1  0.51148421  0.50601729  0.01373465  1
  Sb  Sb10  1  0.89392669  0.98531072  0.45387352  1
  Sb  Sb11  1  0.10674848  0.01599078  0.55096969  1
  Sb  Sb12  1  0.02172920  0.52261280  0.79871450  1
  Sb  Sb13  1  0.97173851  0.49905424  0.18246244  1
  Sb  Sb14  1  0.40704487  0.47392076  0.46431655  1
  Sb  Sb15  1  0.60315387  0.46335340  0.56640968  1
  Sb  Sb16  1  0.52984878  0.97081107  0.81983803  1
  Sb  Sb17  1  0.45987454  0.97380548  0.17762354  1
  S  S18  1  0.92469057  0.98099120  0.77184121  1
  S  S19  1  0.08059064  0.00543662  0.21162303  1
  S  S20  1  0.41475517  0.98333418  0.98236079  1
  S  S21  1  0.58703635  0.96843807  0.01955858  1
  S  S22  1  0.16870819  0.95277657  0.89468877  1
  S  S23  1  0.83268261  0.01209479  0.10379208  1
  S  S24  1  0.09117129  0.48177099  0.64926517  1
  S  S25  1  0.89499308  0.47302561  0.33926289  1
  S  S26  1  0.73534674  0.95798182  0.30573366  1
  S  S27  1  0.26960562  0.94821875  0.70267279  1
  S  S28  1  0.15593981  0.37835572  0.44156209  1
  S  S29  1  0.83055974  0.50990177  0.53861696  1
  S  S30  1  0.44642227  0.48972717  0.81717534  1
  S  S31  1  0.56822757  0.50456129  0.19627860  1
  S  S32  1  0.91499793  0.48652903  0.97949820  1
  S  S33  1  0.07736593  0.47494718  0.99820663  1
  S  S34  1  0.67486561  0.42038348  0.90132428  1
  S  S35  1  0.34684547  0.49769852  0.11304852  1
  S  S36  1  0.59677097  0.98436886  0.66762082  1
  S  S37  1  0.42793417  0.00120575  0.36867949  1
  S  S38  1  0.25437111  0.46093369  0.29807958  1
  S  S39  1  0.76095695  0.48161241  0.67473333  1
  S  S40  1  0.66191155  0.99770668  0.43546558  1
  S  S41  1  0.32786759  0.04394615  0.52876204  1
