# generated using pymatgen
data_Pr2Mn3(SbS3)4
_symmetry_space_group_name_H-M   'P 1'
_cell_length_a   20.02960800
_cell_length_b   3.90410600
_cell_length_c   14.95364829
_cell_angle_alpha   90.00000000
_cell_angle_beta   126.33350609
_cell_angle_gamma   90.00000000
_symmetry_Int_Tables_number   1
_chemical_formula_structural   Pr2Mn3(SbS3)4
_chemical_formula_sum   'Pr4 Mn6 Sb8 S24'
_cell_volume   942.00006694
_cell_formula_units_Z   2
loop_
 _symmetry_equiv_pos_site_id
 _symmetry_equiv_pos_as_xyz
  1  'x, y, z'
loop_
 _atom_site_type_symbol
 _atom_site_label
 _atom_site_symmetry_multiplicity
 _atom_site_fract_x
 _atom_site_fract_y
 _atom_site_fract_z
 _atom_site_occupancy
  Pr  Pr0  1  0.26124566  0.49472137  0.86568731  1
  Pr  Pr1  1  0.72718765  0.51537025  0.12732683  1
  Pr  Pr2  1  0.77239188  0.97232425  0.88104668  1
  Pr  Pr3  1  0.24694841  0.96260388  0.15240692  1
  Mn  Mn4  1  0.28653018  0.59127637  0.58815681  1
  Mn  Mn5  1  0.70323542  0.46859359  0.39206788  1
  Mn  Mn6  1  0.99100289  0.95958911  0.98414006  1
  Mn  Mn7  1  0.78358451  0.03905433  0.58095192  1
  Mn  Mn8  1  0.18872899  0.90642594  0.40569578  1
  Mn  Mn9  1  0.51158176  0.50508410  0.01369248  1
  Sb  Sb10  1  0.89410609  0.98588502  0.45403686  1
  Sb  Sb11  1  0.10662532  0.01594190  0.55086209  1
  Sb  Sb12  1  0.02184462  0.52271094  0.79871689  1
  Sb  Sb13  1  0.97167529  0.49884354  0.18256965  1
  Sb  Sb14  1  0.40713804  0.47416338  0.46425186  1
  Sb  Sb15  1  0.60313526  0.46318271  0.56628789  1
  Sb  Sb16  1  0.52983503  0.97065310  0.81991638  1
  Sb  Sb17  1  0.46000172  0.97318149  0.17782034  1
  S  S18  1  0.92474154  0.98034215  0.77212539  1
  S  S19  1  0.08064218  0.00550580  0.21175171  1
  S  S20  1  0.41440123  0.98364419  0.98180224  1
  S  S21  1  0.58717384  0.96962257  0.01958044  1
  S  S22  1  0.16911389  0.95380723  0.89511749  1
  S  S23  1  0.83225251  0.01177832  0.10344979  1
  S  S24  1  0.09135678  0.48127563  0.64966393  1
  S  S25  1  0.89484265  0.47356419  0.33877114  1
  S  S26  1  0.73557877  0.95786083  0.30652088  1
  S  S27  1  0.26941884  0.94787906  0.70229448  1
  S  S28  1  0.15598291  0.37928266  0.44193997  1
  S  S29  1  0.83017452  0.51116474  0.53855706  1
  S  S30  1  0.44624929  0.49029531  0.81705286  1
  S  S31  1  0.56823656  0.50364533  0.19629988  1
  S  S32  1  0.91520369  0.48544970  0.97974629  1
  S  S33  1  0.07755635  0.47462418  0.99828814  1
  S  S34  1  0.67504372  0.42132688  0.90093261  1
  S  S35  1  0.34692433  0.49908885  0.11324966  1
  S  S36  1  0.59656301  0.98370688  0.66734548  1
  S  S37  1  0.42818850  0.99904953  0.36903880  1
  S  S38  1  0.25446564  0.46135674  0.29846417  1
  S  S39  1  0.76041995  0.47992199  0.67436621  1
  S  S40  1  0.66182296  0.99633089  0.43539917  1
  S  S41  1  0.32768081  0.04232378  0.52873917  1
