# generated using pymatgen
data_Pr2Mn3(SbS3)4
_symmetry_space_group_name_H-M   'P 1'
_cell_length_a   20.02960800
_cell_length_b   3.90410600
_cell_length_c   14.95364829
_cell_angle_alpha   90.00000000
_cell_angle_beta   126.33350609
_cell_angle_gamma   90.00000000
_symmetry_Int_Tables_number   1
_chemical_formula_structural   Pr2Mn3(SbS3)4
_chemical_formula_sum   'Pr4 Mn6 Sb8 S24'
_cell_volume   942.00006694
_cell_formula_units_Z   2
loop_
 _symmetry_equiv_pos_site_id
 _symmetry_equiv_pos_as_xyz
  1  'x, y, z'
loop_
 _atom_site_type_symbol
 _atom_site_label
 _atom_site_symmetry_multiplicity
 _atom_site_fract_x
 _atom_site_fract_y
 _atom_site_fract_z
 _atom_site_occupancy
  Pr  Pr0  1  0.26937603  0.49766213  0.86701237  1
  Pr  Pr1  1  0.73385446  0.51469797  0.13295165  1
  Pr  Pr2  1  0.76538361  0.02388070  0.86460219  1
  Pr  Pr3  1  0.23305905  0.99250987  0.13279207  1
  Mn  Mn4  1  0.29820597  0.46937456  0.60163542  1
  Mn  Mn5  1  0.68485144  0.45971427  0.36090669  1
  Mn  Mn6  1  0.00416030  0.99033685  0.01027930  1
  Mn  Mn7  1  0.79670016  0.01216452  0.61844346  1
  Mn  Mn8  1  0.19493301  0.98102197  0.36690066  1
  Mn  Mn9  1  0.48578408  0.46907393  0.98389462  1
  Sb  Sb10  1  0.88955624  0.98754003  0.45034850  1
  Sb  Sb11  1  0.10990554  0.98158506  0.54536575  1
  Sb  Sb12  1  0.03625483  0.52890926  0.82184025  1
  Sb  Sb13  1  0.96714570  0.50078567  0.18980452  1
  Sb  Sb14  1  0.39233956  0.50219629  0.44826239  1
  Sb  Sb15  1  0.60679036  0.47657011  0.54589431  1
  Sb  Sb16  1  0.53396058  0.97889850  0.80786738  1
  Sb  Sb17  1  0.46621553  0.01917236  0.18997600  1
  S  S18  1  0.93514221  0.01206110  0.80697964  1
  S  S19  1  0.06506113  0.00800762  0.19742956  1
  S  S20  1  0.41723108  0.96339059  0.98914143  1
  S  S21  1  0.58604049  0.03241629  0.01706805  1
  S  S22  1  0.17107985  0.05382431  0.90121369  1
  S  S23  1  0.82697748  0.03678846  0.10193445  1
  S  S24  1  0.09016001  0.49420849  0.64452210  1
  S  S25  1  0.91405990  0.48631152  0.35453244  1
  S  S26  1  0.74036122  0.99403228  0.30372910  1
  S  S27  1  0.25935390  0.01000432  0.70844085  1
  S  S28  1  0.16657398  0.52320036  0.43278447  1
  S  S29  1  0.81269505  0.49928170  0.54199526  1
  S  S30  1  0.43011223  0.46816713  0.79494314  1
  S  S31  1  0.55424614  0.52008365  0.18247393  1
  S  S32  1  0.92110039  0.50387224  0.99209562  1
  S  S33  1  0.09085814  0.49454417  0.02813755  1
  S  S34  1  0.66486112  0.55374259  0.89596573  1
  S  S35  1  0.32760369  0.47905198  0.09190485  1
  S  S36  1  0.58961464  0.98830424  0.65032929  1
  S  S37  1  0.39839042  0.98045469  0.34218275  1
  S  S38  1  0.24398896  0.47235486  0.31737222  1
  S  S39  1  0.75889550  0.52544717  0.68690850  1
  S  S40  1  0.66370776  0.99284000  0.44632137  1
  S  S41  1  0.33137686  0.98379751  0.55573891  1
