# generated using pymatgen
data_Pr2Mn3(SbS3)4
_symmetry_space_group_name_H-M   'P 1'
_cell_length_a   20.02960800
_cell_length_b   3.90410600
_cell_length_c   14.95364829
_cell_angle_alpha   90.00000000
_cell_angle_beta   126.33350609
_cell_angle_gamma   90.00000000
_symmetry_Int_Tables_number   1
_chemical_formula_structural   Pr2Mn3(SbS3)4
_chemical_formula_sum   'Pr4 Mn6 Sb8 S24'
_cell_volume   942.00006694
_cell_formula_units_Z   2
loop_
 _symmetry_equiv_pos_site_id
 _symmetry_equiv_pos_as_xyz
  1  'x, y, z'
loop_
 _atom_site_type_symbol
 _atom_site_label
 _atom_site_symmetry_multiplicity
 _atom_site_fract_x
 _atom_site_fract_y
 _atom_site_fract_z
 _atom_site_occupancy
  Pr  Pr0  1  0.26133155  0.49455227  0.86573671  1
  Pr  Pr1  1  0.72725167  0.51530649  0.12742384  1
  Pr  Pr2  1  0.77251803  0.97243264  0.88106686  1
  Pr  Pr3  1  0.24695498  0.96210340  0.15249073  1
  Mn  Mn4  1  0.28646173  0.59066647  0.58801598  1
  Mn  Mn5  1  0.70317076  0.47015041  0.39191132  1
  Mn  Mn6  1  0.99105500  0.95991172  0.98418405  1
  Mn  Mn7  1  0.78354653  0.03907048  0.58118105  1
  Mn  Mn8  1  0.18872089  0.90722440  0.40546506  1
  Mn  Mn9  1  0.51160940  0.50415672  0.01345566  1
  Sb  Sb10  1  0.89422275  0.98667855  0.45425500  1
  Sb  Sb11  1  0.10656257  0.01633686  0.55073001  1
  Sb  Sb12  1  0.02194395  0.52251522  0.79874418  1
  Sb  Sb13  1  0.97163426  0.49841514  0.18267531  1
  Sb  Sb14  1  0.40721985  0.47441928  0.46419047  1
  Sb  Sb15  1  0.60314037  0.46300061  0.56614285  1
  Sb  Sb16  1  0.52980952  0.97049763  0.81998072  1
  Sb  Sb17  1  0.46009878  0.97239755  0.17795225  1
  S  S18  1  0.92488027  0.97963666  0.77231673  1
  S  S19  1  0.08074693  0.00490730  0.21184763  1
  S  S20  1  0.41420106  0.98425126  0.98136473  1
  S  S21  1  0.58733535  0.97105110  0.01955642  1
  S  S22  1  0.16937574  0.95478613  0.89536071  1
  S  S23  1  0.83195042  0.01166878  0.10311269  1
  S  S24  1  0.09148469  0.48050638  0.65003377  1
  S  S25  1  0.89484401  0.47473976  0.33843121  1
  S  S26  1  0.73575290  0.95782347  0.30713229  1
  S  S27  1  0.26917236  0.94693907  0.70176105  1
  S  S28  1  0.15608306  0.38033066  0.44232213  1
  S  S29  1  0.82993789  0.51209314  0.53868050  1
  S  S30  1  0.44613855  0.49028584  0.81697399  1
  S  S31  1  0.56818769  0.50289360  0.19620896  1
  S  S32  1  0.91545516  0.48395488  0.97994839  1
  S  S33  1  0.07785447  0.47425355  0.99856842  1
  S  S34  1  0.67510838  0.42162402  0.90043259  1
  S  S35  1  0.34700073  0.50027102  0.11355085  1
  S  S36  1  0.59654063  0.98323574  0.66725130  1
  S  S37  1  0.42850833  0.99661736  0.36912601  1
  S  S38  1  0.25442606  0.46210484  0.29880948  1
  S  S39  1  0.75992434  0.47835648  0.67406924  1
  S  S40  1  0.66176874  0.99574706  0.43533651  1
  S  S41  1  0.32734294  0.04098401  0.52862576  1
