# generated using pymatgen
data_Pr2Mn3(SbS3)4
_symmetry_space_group_name_H-M   'P 1'
_cell_length_a   20.02960800
_cell_length_b   3.90410600
_cell_length_c   14.95364829
_cell_angle_alpha   90.00000000
_cell_angle_beta   126.33350609
_cell_angle_gamma   90.00000000
_symmetry_Int_Tables_number   1
_chemical_formula_structural   Pr2Mn3(SbS3)4
_chemical_formula_sum   'Pr4 Mn6 Sb8 S24'
_cell_volume   942.00006694
_cell_formula_units_Z   2
loop_
 _symmetry_equiv_pos_site_id
 _symmetry_equiv_pos_as_xyz
  1  'x, y, z'
loop_
 _atom_site_type_symbol
 _atom_site_label
 _atom_site_symmetry_multiplicity
 _atom_site_fract_x
 _atom_site_fract_y
 _atom_site_fract_z
 _atom_site_occupancy
  Pr  Pr0  1  0.26138374  0.49454120  0.86574338  1
  Pr  Pr1  1  0.72734012  0.51533939  0.12761027  1
  Pr  Pr2  1  0.77262297  0.97275415  0.88107162  1
  Pr  Pr3  1  0.24692077  0.96149425  0.15251761  1
  Mn  Mn4  1  0.28645986  0.58960651  0.58796616  1
  Mn  Mn5  1  0.70310960  0.47221029  0.39190208  1
  Mn  Mn6  1  0.99108308  0.96081003  0.98417031  1
  Mn  Mn7  1  0.78349708  0.03956588  0.58143598  1
  Mn  Mn8  1  0.18865956  0.90825081  0.40509204  1
  Mn  Mn9  1  0.51166105  0.50269006  0.01341976  1
  Sb  Sb10  1  0.89431464  0.98735711  0.45435622  1
  Sb  Sb11  1  0.10658062  0.01667563  0.55065985  1
  Sb  Sb12  1  0.02212958  0.52241466  0.79884566  1
  Sb  Sb13  1  0.97147894  0.49798471  0.18260814  1
  Sb  Sb14  1  0.40730841  0.47494342  0.46410479  1
  Sb  Sb15  1  0.60315572  0.46300618  0.56608227  1
  Sb  Sb16  1  0.52979341  0.97030958  0.82004217  1
  Sb  Sb17  1  0.46018957  0.97170668  0.17805087  1
  S  S18  1  0.92486959  0.97938253  0.77244204  1
  S  S19  1  0.08080752  0.00451859  0.21184769  1
  S  S20  1  0.41402037  0.98389917  0.98106927  1
  S  S21  1  0.58752677  0.97174179  0.01938324  1
  S  S22  1  0.16960619  0.95568635  0.89557238  1
  S  S23  1  0.83173839  0.01150521  0.10286027  1
  S  S24  1  0.09164430  0.48002776  0.65032309  1
  S  S25  1  0.89502553  0.47564166  0.33826321  1
  S  S26  1  0.73573817  0.95762159  0.30751136  1
  S  S27  1  0.26874307  0.94563869  0.70101801  1
  S  S28  1  0.15591128  0.38137434  0.44240115  1
  S  S29  1  0.82980392  0.51257027  0.53894645  1
  S  S30  1  0.44595011  0.49021441  0.81691805  1
  S  S31  1  0.56816768  0.50204295  0.19624141  1
  S  S32  1  0.91570702  0.48294866  0.98021153  1
  S  S33  1  0.07811794  0.47414240  0.99870899  1
  S  S34  1  0.67503804  0.42194227  0.89984885  1
  S  S35  1  0.34689647  0.50152696  0.11364498  1
  S  S36  1  0.59649132  0.98279776  0.66697849  1
  S  S37  1  0.42880993  0.99409137  0.36932853  1
  S  S38  1  0.25423002  0.46301354  0.29894889  1
  S  S39  1  0.75947037  0.47669394  0.67366427  1
  S  S40  1  0.66172504  0.99577514  0.43536989  1
  S  S41  1  0.32694309  0.03980909  0.52843532  1
