# generated using pymatgen
data_Pr2Mn3(SbS3)4
_symmetry_space_group_name_H-M   'P 1'
_cell_length_a   20.02960800
_cell_length_b   3.90410600
_cell_length_c   14.95364829
_cell_angle_alpha   90.00000000
_cell_angle_beta   126.33350609
_cell_angle_gamma   90.00000000
_symmetry_Int_Tables_number   1
_chemical_formula_structural   Pr2Mn3(SbS3)4
_chemical_formula_sum   'Pr4 Mn6 Sb8 S24'
_cell_volume   942.00006694
_cell_formula_units_Z   2
loop_
 _symmetry_equiv_pos_site_id
 _symmetry_equiv_pos_as_xyz
  1  'x, y, z'
loop_
 _atom_site_type_symbol
 _atom_site_label
 _atom_site_symmetry_multiplicity
 _atom_site_fract_x
 _atom_site_fract_y
 _atom_site_fract_z
 _atom_site_occupancy
  Pr  Pr0  1  0.26146566  0.49424905  0.86578131  1
  Pr  Pr1  1  0.72743594  0.51539585  0.12770890  1
  Pr  Pr2  1  0.77269898  0.97336255  0.88104963  1
  Pr  Pr3  1  0.24690374  0.96090537  0.15256541  1
  Mn  Mn4  1  0.28640169  0.58876632  0.58785400  1
  Mn  Mn5  1  0.70309071  0.47470821  0.39191327  1
  Mn  Mn6  1  0.99113290  0.96210643  0.98412099  1
  Mn  Mn7  1  0.78346631  0.03983504  0.58166314  1
  Mn  Mn8  1  0.18863719  0.90912723  0.40480809  1
  Mn  Mn9  1  0.51176248  0.50107416  0.01332263  1
  Sb  Sb10  1  0.89451796  0.98778143  0.45453563  1
  Sb  Sb11  1  0.10661907  0.01735296  0.55055479  1
  Sb  Sb12  1  0.02224902  0.52231773  0.79887257  1
  Sb  Sb13  1  0.97131697  0.49728027  0.18244788  1
  Sb  Sb14  1  0.40750735  0.47527270  0.46422895  1
  Sb  Sb15  1  0.60318716  0.46265648  0.56601629  1
  Sb  Sb16  1  0.52973905  0.97022211  0.82007149  1
  Sb  Sb17  1  0.46034120  0.97113303  0.17818522  1
  S  S18  1  0.92480874  0.97933495  0.77246616  1
  S  S19  1  0.08094643  0.00402845  0.21177956  1
  S  S20  1  0.41393178  0.98300315  0.98078513  1
  S  S21  1  0.58775091  0.97244917  0.01918080  1
  S  S22  1  0.17005032  0.95617267  0.89598721  1
  S  S23  1  0.83146279  0.01155539  0.10242133  1
  S  S24  1  0.09178039  0.47981186  0.65055094  1
  S  S25  1  0.89510579  0.47705248  0.33789814  1
  S  S26  1  0.73568994  0.95670370  0.30777392  1
  S  S27  1  0.26837285  0.94455809  0.70034392  1
  S  S28  1  0.15561552  0.38271643  0.44234861  1
  S  S29  1  0.82989673  0.51290487  0.53949208  1
  S  S30  1  0.44581144  0.48974249  0.81670077  1
  S  S31  1  0.56800546  0.50126750  0.19616880  1
  S  S32  1  0.91594664  0.48209578  0.98054620  1
  S  S33  1  0.07850366  0.47403824  0.99899382  1
  S  S34  1  0.67505223  0.42206965  0.89955681  1
  S  S35  1  0.34682855  0.50292849  0.11358584  1
  S  S36  1  0.59647708  0.98315865  0.66669882  1
  S  S37  1  0.42903126  0.99210006  0.36965841  1
  S  S38  1  0.25414777  0.46282823  0.29912495  1
  S  S39  1  0.75899677  0.47600512  0.67299524  1
  S  S40  1  0.66163826  0.99573423  0.43534012  1
  S  S41  1  0.32650192  0.03895709  0.52828065  1
