# generated using pymatgen
data_Pr2Mn3(SbS3)4
_symmetry_space_group_name_H-M   'P 1'
_cell_length_a   20.02960800
_cell_length_b   3.90410600
_cell_length_c   14.95364829
_cell_angle_alpha   90.00000000
_cell_angle_beta   126.33350609
_cell_angle_gamma   90.00000000
_symmetry_Int_Tables_number   1
_chemical_formula_structural   Pr2Mn3(SbS3)4
_chemical_formula_sum   'Pr4 Mn6 Sb8 S24'
_cell_volume   942.00006694
_cell_formula_units_Z   2
loop_
 _symmetry_equiv_pos_site_id
 _symmetry_equiv_pos_as_xyz
  1  'x, y, z'
loop_
 _atom_site_type_symbol
 _atom_site_label
 _atom_site_symmetry_multiplicity
 _atom_site_fract_x
 _atom_site_fract_y
 _atom_site_fract_z
 _atom_site_occupancy
  Pr  Pr0  1  0.26160396  0.49400632  0.86586473  1
  Pr  Pr1  1  0.72752960  0.51529300  0.12778123  1
  Pr  Pr2  1  0.77280286  0.97391715  0.88095801  1
  Pr  Pr3  1  0.24686498  0.96029278  0.15259636  1
  Mn  Mn4  1  0.28625685  0.58825595  0.58784004  1
  Mn  Mn5  1  0.70309913  0.47727538  0.39187746  1
  Mn  Mn6  1  0.99106064  0.96428254  0.98397925  1
  Mn  Mn7  1  0.78350185  0.03982031  0.58198241  1
  Mn  Mn8  1  0.18875266  0.90949829  0.40457979  1
  Mn  Mn9  1  0.51189519  0.49937095  0.01322309  1
  Sb  Sb10  1  0.89468389  0.98777570  0.45479981  1
  Sb  Sb11  1  0.10668302  0.01810836  0.55047147  1
  Sb  Sb12  1  0.02234060  0.52200512  0.79886506  1
  Sb  Sb13  1  0.97118391  0.49642121  0.18235777  1
  Sb  Sb14  1  0.40771161  0.47580421  0.46432216  1
  Sb  Sb15  1  0.60321099  0.46195296  0.56593196  1
  Sb  Sb16  1  0.52967874  0.97031054  0.82002488  1
  Sb  Sb17  1  0.46046776  0.97081446  0.17837320  1
  S  S18  1  0.92483300  0.97930594  0.77266712  1
  S  S19  1  0.08109622  0.00381693  0.21171417  1
  S  S20  1  0.41383025  0.98222741  0.98034807  1
  S  S21  1  0.58775310  0.97298526  0.01882783  1
  S  S22  1  0.17054719  0.95709573  0.89653051  1
  S  S23  1  0.83106703  0.01239587  0.10177769  1
  S  S24  1  0.09194447  0.47980062  0.65067783  1
  S  S25  1  0.89514797  0.47887189  0.33765078  1
  S  S26  1  0.73552263  0.95634956  0.30779771  1
  S  S27  1  0.26805949  0.94301366  0.69990396  1
  S  S28  1  0.15547302  0.38382077  0.44245613  1
  S  S29  1  0.82998130  0.51350005  0.53989578  1
  S  S30  1  0.44566726  0.48878625  0.81669415  1
  S  S31  1  0.56779827  0.50042864  0.19606492  1
  S  S32  1  0.91629749  0.48146477  0.98104457  1
  S  S33  1  0.07892340  0.47326744  0.99928365  1
  S  S34  1  0.67506034  0.42232343  0.89912143  1
  S  S35  1  0.34687781  0.50492261  0.11363077  1
  S  S36  1  0.59631676  0.98360961  0.66622411  1
  S  S37  1  0.42906017  0.98993265  0.36971606  1
  S  S38  1  0.25395387  0.46273643  0.29907509  1
  S  S39  1  0.75858530  0.47494066  0.67226812  1
  S  S40  1  0.66150373  0.99554192  0.43539986  1
  S  S41  1  0.32622039  0.03855848  0.52837097  1
