# generated using pymatgen
data_Pr2Mn3(SbS3)4
_symmetry_space_group_name_H-M   'P 1'
_cell_length_a   20.02960800
_cell_length_b   3.90410600
_cell_length_c   14.95364829
_cell_angle_alpha   90.00000000
_cell_angle_beta   126.33350609
_cell_angle_gamma   90.00000000
_symmetry_Int_Tables_number   1
_chemical_formula_structural   Pr2Mn3(SbS3)4
_chemical_formula_sum   'Pr4 Mn6 Sb8 S24'
_cell_volume   942.00006694
_cell_formula_units_Z   2
loop_
 _symmetry_equiv_pos_site_id
 _symmetry_equiv_pos_as_xyz
  1  'x, y, z'
loop_
 _atom_site_type_symbol
 _atom_site_label
 _atom_site_symmetry_multiplicity
 _atom_site_fract_x
 _atom_site_fract_y
 _atom_site_fract_z
 _atom_site_occupancy
  Pr  Pr0  1  0.26170311  0.49384089  0.86584287  1
  Pr  Pr1  1  0.72764298  0.51534074  0.12790504  1
  Pr  Pr2  1  0.77286100  0.97428427  0.88090723  1
  Pr  Pr3  1  0.24682625  0.95997149  0.15259235  1
  Mn  Mn4  1  0.28603246  0.58775135  0.58765091  1
  Mn  Mn5  1  0.70307212  0.47959622  0.39177676  1
  Mn  Mn6  1  0.99090703  0.96657620  0.98372009  1
  Mn  Mn7  1  0.78351196  0.04018745  0.58231366  1
  Mn  Mn8  1  0.18888820  0.90995070  0.40442490  1
  Mn  Mn9  1  0.51203547  0.49797238  0.01316732  1
  Sb  Sb10  1  0.89477712  0.98763278  0.45508820  1
  Sb  Sb11  1  0.10677713  0.01889400  0.55047953  1
  Sb  Sb12  1  0.02240578  0.52194387  0.79891674  1
  Sb  Sb13  1  0.97110121  0.49570395  0.18239392  1
  Sb  Sb14  1  0.40793099  0.47656859  0.46442588  1
  Sb  Sb15  1  0.60322771  0.46154877  0.56581642  1
  Sb  Sb16  1  0.52960974  0.97005461  0.82001513  1
  Sb  Sb17  1  0.46059136  0.97039140  0.17858293  1
  S  S18  1  0.92485364  0.97907231  0.77289694  1
  S  S19  1  0.08116662  0.00323367  0.21172506  1
  S  S20  1  0.41362830  0.98165396  0.97978375  1
  S  S21  1  0.58786296  0.97371595  0.01858549  1
  S  S22  1  0.17095825  0.95759599  0.89712017  1
  S  S23  1  0.83066993  0.01374076  0.10122472  1
  S  S24  1  0.09214119  0.47924298  0.65073026  1
  S  S25  1  0.89527647  0.47975988  0.33755659  1
  S  S26  1  0.73539700  0.95604504  0.30793727  1
  S  S27  1  0.26771464  0.94082120  0.69956394  1
  S  S28  1  0.15535752  0.38585712  0.44260130  1
  S  S29  1  0.82999546  0.51386780  0.54025492  1
  S  S30  1  0.44552153  0.48705483  0.81652045  1
  S  S31  1  0.56752648  0.49963721  0.19605360  1
  S  S32  1  0.91663206  0.48096060  0.98159469  1
  S  S33  1  0.07941072  0.47309892  0.99972057  1
  S  S34  1  0.67522721  0.42303660  0.89877188  1
  S  S35  1  0.34691265  0.50721214  0.11369654  1
  S  S36  1  0.59620169  0.98380233  0.66587187  1
  S  S37  1  0.42943013  0.98838970  0.37000432  1
  S  S38  1  0.25385206  0.46210911  0.29917926  1
  S  S39  1  0.75831924  0.47338008  0.67163471  1
  S  S40  1  0.66120907  0.99505202  0.43518385  1
  S  S41  1  0.32590976  0.03869673  0.52845763  1
