# generated using pymatgen
data_Pr2Mn3(SbS3)4
_symmetry_space_group_name_H-M   'P 1'
_cell_length_a   20.02960800
_cell_length_b   3.90410600
_cell_length_c   14.95364829
_cell_angle_alpha   90.00000000
_cell_angle_beta   126.33350609
_cell_angle_gamma   90.00000000
_symmetry_Int_Tables_number   1
_chemical_formula_structural   Pr2Mn3(SbS3)4
_chemical_formula_sum   'Pr4 Mn6 Sb8 S24'
_cell_volume   942.00006694
_cell_formula_units_Z   2
loop_
 _symmetry_equiv_pos_site_id
 _symmetry_equiv_pos_as_xyz
  1  'x, y, z'
loop_
 _atom_site_type_symbol
 _atom_site_label
 _atom_site_symmetry_multiplicity
 _atom_site_fract_x
 _atom_site_fract_y
 _atom_site_fract_z
 _atom_site_occupancy
  Pr  Pr0  1  0.26175031  0.49377346  0.86580176  1
  Pr  Pr1  1  0.72778219  0.51545483  0.12804401  1
  Pr  Pr2  1  0.77289309  0.97465483  0.88093203  1
  Pr  Pr3  1  0.24677971  0.95945091  0.15264345  1
  Mn  Mn4  1  0.28587513  0.58688812  0.58764621  1
  Mn  Mn5  1  0.70297444  0.48189363  0.39160612  1
  Mn  Mn6  1  0.99073413  0.96861046  0.98356125  1
  Mn  Mn7  1  0.78356131  0.04083180  0.58261869  1
  Mn  Mn8  1  0.18892401  0.90987347  0.40414527  1
  Mn  Mn9  1  0.51206644  0.49661546  0.01306240  1
  Sb  Sb10  1  0.89483289  0.98779702  0.45536667  1
  Sb  Sb11  1  0.10691566  0.01958087  0.55057896  1
  Sb  Sb12  1  0.02250952  0.52183792  0.79899211  1
  Sb  Sb13  1  0.97094188  0.49507524  0.18234422  1
  Sb  Sb14  1  0.40821490  0.47720302  0.46457065  1
  Sb  Sb15  1  0.60315561  0.46117816  0.56560882  1
  Sb  Sb16  1  0.52951280  0.96996851  0.81991186  1
  Sb  Sb17  1  0.46074917  0.96985190  0.17900167  1
  S  S18  1  0.92475029  0.97849991  0.77292484  1
  S  S19  1  0.08111467  0.00313374  0.21191059  1
  S  S20  1  0.41343073  0.98097295  0.97914456  1
  S  S21  1  0.58784912  0.97429360  0.01814251  1
  S  S22  1  0.17120533  0.95845193  0.89737681  1
  S  S23  1  0.83042208  0.01509912  0.10059536  1
  S  S24  1  0.09233096  0.47828412  0.65078411  1
  S  S25  1  0.89532364  0.48059844  0.33760728  1
  S  S26  1  0.73533852  0.95613061  0.30820708  1
  S  S27  1  0.26751199  0.93914156  0.69949469  1
  S  S28  1  0.15536209  0.38774203  0.44283981  1
  S  S29  1  0.83004671  0.51491494  0.54070132  1
  S  S30  1  0.44532456  0.48561610  0.81634543  1
  S  S31  1  0.56727802  0.49899991  0.19622535  1
  S  S32  1  0.91696325  0.48053695  0.98211453  1
  S  S33  1  0.07971433  0.47340956  0.00002595  1
  S  S34  1  0.67538882  0.42440774  0.89841727  1
  S  S35  1  0.34690600  0.50896282  0.11383424  1
  S  S36  1  0.59611086  0.98387438  0.66547113  1
  S  S37  1  0.42964197  0.98718348  0.37020166  1
  S  S38  1  0.25382131  0.46195211  0.29909753  1
  S  S39  1  0.75811871  0.47234104  0.67098516  1
  S  S40  1  0.66085946  0.99471225  0.43502002  1
  S  S41  1  0.32540512  0.03843567  0.52847780  1
