# generated using pymatgen
data_Pr2Mn3(SbS3)4
_symmetry_space_group_name_H-M   'P 1'
_cell_length_a   20.02960800
_cell_length_b   3.90410600
_cell_length_c   14.95364829
_cell_angle_alpha   90.00000000
_cell_angle_beta   126.33350609
_cell_angle_gamma   90.00000000
_symmetry_Int_Tables_number   1
_chemical_formula_structural   Pr2Mn3(SbS3)4
_chemical_formula_sum   'Pr4 Mn6 Sb8 S24'
_cell_volume   942.00006694
_cell_formula_units_Z   2
loop_
 _symmetry_equiv_pos_site_id
 _symmetry_equiv_pos_as_xyz
  1  'x, y, z'
loop_
 _atom_site_type_symbol
 _atom_site_label
 _atom_site_symmetry_multiplicity
 _atom_site_fract_x
 _atom_site_fract_y
 _atom_site_fract_z
 _atom_site_occupancy
  Pr  Pr0  1  0.26182840  0.49330871  0.86582859  1
  Pr  Pr1  1  0.72792748  0.51536939  0.12817054  1
  Pr  Pr2  1  0.77286586  0.97507789  0.88093702  1
  Pr  Pr3  1  0.24677703  0.95925163  0.15264763  1
  Mn  Mn4  1  0.28568970  0.58618304  0.58749250  1
  Mn  Mn5  1  0.70281875  0.48427841  0.39124202  1
  Mn  Mn6  1  0.99053540  0.97032328  0.98338348  1
  Mn  Mn7  1  0.78365212  0.04175748  0.58286286  1
  Mn  Mn8  1  0.18892487  0.91010347  0.40389781  1
  Mn  Mn9  1  0.51210222  0.49523530  0.01297011  1
  Sb  Sb10  1  0.89484680  0.98797091  0.45572058  1
  Sb  Sb11  1  0.10706390  0.01995465  0.55059724  1
  Sb  Sb12  1  0.02256747  0.52172417  0.79902268  1
  Sb  Sb13  1  0.97085235  0.49471258  0.18233693  1
  Sb  Sb14  1  0.40843063  0.47814717  0.46464094  1
  Sb  Sb15  1  0.60310962  0.46087016  0.56552053  1
  Sb  Sb16  1  0.52938019  0.97003389  0.81972157  1
  Sb  Sb17  1  0.46093615  0.96920827  0.17934585  1
  S  S18  1  0.92470366  0.97864806  0.77299540  1
  S  S19  1  0.08110549  0.00324084  0.21210006  1
  S  S20  1  0.41316711  0.98013788  0.97857882  1
  S  S21  1  0.58770431  0.97479264  0.01742101  1
  S  S22  1  0.17157800  0.95958756  0.89769827  1
  S  S23  1  0.83023317  0.01637949  0.10020863  1
  S  S24  1  0.09250292  0.47763750  0.65081709  1
  S  S25  1  0.89538966  0.48158758  0.33750388  1
  S  S26  1  0.73532204  0.95660729  0.30861902  1
  S  S27  1  0.26720878  0.93770103  0.69930360  1
  S  S28  1  0.15532855  0.38920122  0.44300662  1
  S  S29  1  0.83032943  0.51580711  0.54127724  1
  S  S30  1  0.44528788  0.48448006  0.81637462  1
  S  S31  1  0.56712914  0.49862307  0.19642022  1
  S  S32  1  0.91727016  0.47992168  0.98257364  1
  S  S33  1  0.07996884  0.47370339  0.00031522  1
  S  S34  1  0.67570609  0.42658933  0.89823437  1
  S  S35  1  0.34667678  0.51088917  0.11363678  1
  S  S36  1  0.59589539  0.98359538  0.66530095  1
  S  S37  1  0.42989353  0.98536938  0.37043987  1
  S  S38  1  0.25375084  0.46148949  0.29894694  1
  S  S39  1  0.75794092  0.47146662  0.67036793  1
  S  S40  1  0.66040812  0.99450223  0.43455680  1
  S  S41  1  0.32496269  0.03873753  0.52865197  1
