# generated using pymatgen
data_Pr2Mn3(SbS3)4
_symmetry_space_group_name_H-M   'P 1'
_cell_length_a   20.02960800
_cell_length_b   3.90410600
_cell_length_c   14.95364829
_cell_angle_alpha   90.00000000
_cell_angle_beta   126.33350609
_cell_angle_gamma   90.00000000
_symmetry_Int_Tables_number   1
_chemical_formula_structural   Pr2Mn3(SbS3)4
_chemical_formula_sum   'Pr4 Mn6 Sb8 S24'
_cell_volume   942.00006694
_cell_formula_units_Z   2
loop_
 _symmetry_equiv_pos_site_id
 _symmetry_equiv_pos_as_xyz
  1  'x, y, z'
loop_
 _atom_site_type_symbol
 _atom_site_label
 _atom_site_symmetry_multiplicity
 _atom_site_fract_x
 _atom_site_fract_y
 _atom_site_fract_z
 _atom_site_occupancy
  Pr  Pr0  1  0.26184381  0.49305982  0.86574598  1
  Pr  Pr1  1  0.72805710  0.51538655  0.12820501  1
  Pr  Pr2  1  0.77278948  0.97548777  0.88084679  1
  Pr  Pr3  1  0.24680613  0.95871198  0.15271984  1
  Mn  Mn4  1  0.28555332  0.58549092  0.58734289  1
  Mn  Mn5  1  0.70267053  0.48635553  0.39094132  1
  Mn  Mn6  1  0.99033139  0.97177496  0.98327990  1
  Mn  Mn7  1  0.78379473  0.04296325  0.58310843  1
  Mn  Mn8  1  0.18905482  0.91023578  0.40359122  1
  Mn  Mn9  1  0.51225863  0.49351158  0.01302972  1
  Sb  Sb10  1  0.89484122  0.98799277  0.45604636  1
  Sb  Sb11  1  0.10722754  0.02023582  0.55062916  1
  Sb  Sb12  1  0.02258911  0.52144805  0.79909398  1
  Sb  Sb13  1  0.97079489  0.49396848  0.18217891  1
  Sb  Sb14  1  0.40854252  0.47931220  0.46452551  1
  Sb  Sb15  1  0.60310051  0.46083333  0.56554530  1
  Sb  Sb16  1  0.52923761  0.97003634  0.81948819  1
  Sb  Sb17  1  0.46114681  0.96861587  0.17971191  1
  S  S18  1  0.92488647  0.97878713  0.77340997  1
  S  S19  1  0.08094481  0.00316722  0.21212520  1
  S  S20  1  0.41291934  0.97935913  0.97790585  1
  S  S21  1  0.58760277  0.97582812  0.01685220  1
  S  S22  1  0.17194549  0.96092023  0.89800107  1
  S  S23  1  0.82996509  0.01822876  0.09994040  1
  S  S24  1  0.09279496  0.47659389  0.65109964  1
  S  S25  1  0.89546847  0.48251870  0.33746072  1
  S  S26  1  0.73527037  0.95732647  0.30899908  1
  S  S27  1  0.26675241  0.93650474  0.69886785  1
  S  S28  1  0.15527602  0.39082539  0.44304770  1
  S  S29  1  0.83066256  0.51719708  0.54187338  1
  S  S30  1  0.44522412  0.48345832  0.81656572  1
  S  S31  1  0.56702490  0.49795348  0.19663185  1
  S  S32  1  0.91762865  0.47942846  0.98305570  1
  S  S33  1  0.08006542  0.47465617  0.00060188  1
  S  S34  1  0.67605861  0.42885210  0.89822157  1
  S  S35  1  0.34625723  0.51179745  0.11323586  1
  S  S36  1  0.59567055  0.98322723  0.66501544  1
  S  S37  1  0.42998775  0.98412453  0.37076296  1
  S  S38  1  0.25360263  0.46101585  0.29868255  1
  S  S39  1  0.75772009  0.46977799  0.66990983  1
  S  S40  1  0.66012636  0.99454802  0.43430901  1
  S  S41  1  0.32467476  0.03885425  0.52897678  1
