# generated using pymatgen
data_Pr2Mn3(SbS3)4
_symmetry_space_group_name_H-M   'P 1'
_cell_length_a   20.02960800
_cell_length_b   3.90410600
_cell_length_c   14.95364829
_cell_angle_alpha   90.00000000
_cell_angle_beta   126.33350609
_cell_angle_gamma   90.00000000
_symmetry_Int_Tables_number   1
_chemical_formula_structural   Pr2Mn3(SbS3)4
_chemical_formula_sum   'Pr4 Mn6 Sb8 S24'
_cell_volume   942.00006694
_cell_formula_units_Z   2
loop_
 _symmetry_equiv_pos_site_id
 _symmetry_equiv_pos_as_xyz
  1  'x, y, z'
loop_
 _atom_site_type_symbol
 _atom_site_label
 _atom_site_symmetry_multiplicity
 _atom_site_fract_x
 _atom_site_fract_y
 _atom_site_fract_z
 _atom_site_occupancy
  Pr  Pr0  1  0.26180093  0.49278907  0.86559961  1
  Pr  Pr1  1  0.72820206  0.51550963  0.12833617  1
  Pr  Pr2  1  0.77275227  0.97589966  0.88081462  1
  Pr  Pr3  1  0.24687563  0.95837122  0.15273112  1
  Mn  Mn4  1  0.28539208  0.58552462  0.58720923  1
  Mn  Mn5  1  0.70262523  0.48842587  0.39059639  1
  Mn  Mn6  1  0.99018588  0.97372820  0.98323007  1
  Mn  Mn7  1  0.78382295  0.04373439  0.58331343  1
  Mn  Mn8  1  0.18915354  0.91079764  0.40334156  1
  Mn  Mn9  1  0.51238696  0.49163521  0.01303297  1
  Sb  Sb10  1  0.89483443  0.98775825  0.45636882  1
  Sb  Sb11  1  0.10741719  0.02063492  0.55071105  1
  Sb  Sb12  1  0.02264394  0.52088848  0.79925596  1
  Sb  Sb13  1  0.97065712  0.49327411  0.18203887  1
  Sb  Sb14  1  0.40864285  0.48032949  0.46438303  1
  Sb  Sb15  1  0.60305537  0.46105299  0.56553581  1
  Sb  Sb16  1  0.52920983  0.97015976  0.81932359  1
  Sb  Sb17  1  0.46132206  0.96850637  0.18011219  1
  S  S18  1  0.92508623  0.97896115  0.77381792  1
  S  S19  1  0.08066907  0.00370460  0.21206135  1
  S  S20  1  0.41264939  0.97878551  0.97736789  1
  S  S21  1  0.58765268  0.97731649  0.01658006  1
  S  S22  1  0.17229899  0.96204280  0.89846165  1
  S  S23  1  0.82970928  0.01994420  0.10006307  1
  S  S24  1  0.09314483  0.47578140  0.65157881  1
  S  S25  1  0.89541185  0.48324833  0.33740606  1
  S  S26  1  0.73521260  0.95867611  0.30926006  1
  S  S27  1  0.26632181  0.93617416  0.69840543  1
  S  S28  1  0.15539698  0.39277487  0.44332108  1
  S  S29  1  0.83085891  0.51926004  0.54228783  1
  S  S30  1  0.44518388  0.48315666  0.81672786  1
  S  S31  1  0.56686407  0.49758984  0.19689840  1
  S  S32  1  0.91782860  0.47913000  0.98340393  1
  S  S33  1  0.08025409  0.47502708  0.00098152  1
  S  S34  1  0.67626638  0.43099993  0.89794271  1
  S  S35  1  0.34590849  0.51239031  0.11272674  1
  S  S36  1  0.59553421  0.98290602  0.66480975  1
  S  S37  1  0.43001146  0.98334415  0.37104263  1
  S  S38  1  0.25334868  0.46056557  0.29822279  1
  S  S39  1  0.75756408  0.46881209  0.66958085  1
  S  S40  1  0.65976435  0.99512929  0.43399351  1
  S  S41  1  0.32445675  0.03869451  0.52927558  1
