# generated using pymatgen
data_Pr2Mn3(SbS3)4
_symmetry_space_group_name_H-M   'P 1'
_cell_length_a   20.02960800
_cell_length_b   3.90410600
_cell_length_c   14.95364829
_cell_angle_alpha   90.00000000
_cell_angle_beta   126.33350609
_cell_angle_gamma   90.00000000
_symmetry_Int_Tables_number   1
_chemical_formula_structural   Pr2Mn3(SbS3)4
_chemical_formula_sum   'Pr4 Mn6 Sb8 S24'
_cell_volume   942.00006694
_cell_formula_units_Z   2
loop_
 _symmetry_equiv_pos_site_id
 _symmetry_equiv_pos_as_xyz
  1  'x, y, z'
loop_
 _atom_site_type_symbol
 _atom_site_label
 _atom_site_symmetry_multiplicity
 _atom_site_fract_x
 _atom_site_fract_y
 _atom_site_fract_z
 _atom_site_occupancy
  Pr  Pr0  1  0.26172289  0.49229120  0.86541429  1
  Pr  Pr1  1  0.72829766  0.51565186  0.12842966  1
  Pr  Pr2  1  0.77275548  0.97645516  0.88076916  1
  Pr  Pr3  1  0.24693687  0.95825696  0.15268169  1
  Mn  Mn4  1  0.28523306  0.58532504  0.58707329  1
  Mn  Mn5  1  0.70253679  0.49048152  0.39030220  1
  Mn  Mn6  1  0.99005504  0.97506854  0.98315853  1
  Mn  Mn7  1  0.78382938  0.04403747  0.58361728  1
  Mn  Mn8  1  0.18928867  0.91143455  0.40314703  1
  Mn  Mn9  1  0.51250801  0.48986452  0.01310847  1
  Sb  Sb10  1  0.89477862  0.98731394  0.45659441  1
  Sb  Sb11  1  0.10757027  0.02119596  0.55079327  1
  Sb  Sb12  1  0.02275639  0.52023694  0.79947418  1
  Sb  Sb13  1  0.97041581  0.49276066  0.18188249  1
  Sb  Sb14  1  0.40876873  0.48120782  0.46421809  1
  Sb  Sb15  1  0.60297322  0.46089163  0.56556203  1
  Sb  Sb16  1  0.52918232  0.97057254  0.81927585  1
  Sb  Sb17  1  0.46159413  0.96833363  0.18055628  1
  S  S18  1  0.92529125  0.97881005  0.77413576  1
  S  S19  1  0.08055416  0.00385600  0.21221946  1
  S  S20  1  0.41235581  0.97828762  0.97686514  1
  S  S21  1  0.58758892  0.97836279  0.01620722  1
  S  S22  1  0.17255596  0.96316956  0.89876700  1
  S  S23  1  0.82952767  0.02157243  0.10022368  1
  S  S24  1  0.09342766  0.47466608  0.65196281  1
  S  S25  1  0.89538456  0.48384771  0.33758451  1
  S  S26  1  0.73517795  0.95958617  0.30919680  1
  S  S27  1  0.26598415  0.93599885  0.69784103  1
  S  S28  1  0.15545347  0.39445897  0.44361742  1
  S  S29  1  0.83102320  0.52078175  0.54257820  1
  S  S30  1  0.44523506  0.48312355  0.81674434  1
  S  S31  1  0.56670159  0.49753102  0.19704448  1
  S  S32  1  0.91804669  0.47878952  0.98376580  1
  S  S33  1  0.08048716  0.47520020  0.00132114  1
  S  S34  1  0.67630973  0.43274070  0.89764096  1
  S  S35  1  0.34553325  0.51280474  0.11228227  1
  S  S36  1  0.59540943  0.98295759  0.66457774  1
  S  S37  1  0.43003337  0.98264892  0.37130353  1
  S  S38  1  0.25306206  0.46066042  0.29776727  1
  S  S39  1  0.75748527  0.46795353  0.66918229  1
  S  S40  1  0.65934693  0.99644997  0.43357367  1
  S  S41  1  0.32427329  0.03814222  0.52971905  1
