# generated using pymatgen
data_Pr2Mn3(SbS3)4
_symmetry_space_group_name_H-M   'P 1'
_cell_length_a   20.02960800
_cell_length_b   3.90410600
_cell_length_c   14.95364829
_cell_angle_alpha   90.00000000
_cell_angle_beta   126.33350609
_cell_angle_gamma   90.00000000
_symmetry_Int_Tables_number   1
_chemical_formula_structural   Pr2Mn3(SbS3)4
_chemical_formula_sum   'Pr4 Mn6 Sb8 S24'
_cell_volume   942.00006694
_cell_formula_units_Z   2
loop_
 _symmetry_equiv_pos_site_id
 _symmetry_equiv_pos_as_xyz
  1  'x, y, z'
loop_
 _atom_site_type_symbol
 _atom_site_label
 _atom_site_symmetry_multiplicity
 _atom_site_fract_x
 _atom_site_fract_y
 _atom_site_fract_z
 _atom_site_occupancy
  Pr  Pr0  1  0.26945300  0.49806760  0.86710090  1
  Pr  Pr1  1  0.73378033  0.51456757  0.13296302  1
  Pr  Pr2  1  0.76544631  0.02401073  0.86472567  1
  Pr  Pr3  1  0.23300652  0.99204329  0.13273243  1
  Mn  Mn4  1  0.29840756  0.46880201  0.60200306  1
  Mn  Mn5  1  0.68480656  0.45999581  0.36073772  1
  Mn  Mn6  1  0.00406857  0.99055440  0.01030473  1
  Mn  Mn7  1  0.79656517  0.01243706  0.61832169  1
  Mn  Mn8  1  0.19471577  0.98072046  0.36681999  1
  Mn  Mn9  1  0.48569831  0.46945101  0.98395828  1
  Sb  Sb10  1  0.88964946  0.98727424  0.45024420  1
  Sb  Sb11  1  0.10997236  0.98198788  0.54544595  1
  Sb  Sb12  1  0.03619099  0.52933164  0.82173260  1
  Sb  Sb13  1  0.96714920  0.50094160  0.18973706  1
  Sb  Sb14  1  0.39245131  0.50222297  0.44846954  1
  Sb  Sb15  1  0.60704603  0.47675098  0.54600842  1
  Sb  Sb16  1  0.53388292  0.97872953  0.80775252  1
  Sb  Sb17  1  0.46615681  0.01960104  0.18984075  1
  S  S18  1  0.93517210  0.01162906  0.80713012  1
  S  S19  1  0.06512642  0.00855392  0.19761334  1
  S  S20  1  0.41681668  0.96504458  0.98886691  1
  S  S21  1  0.58614606  0.03375712  0.01714001  1
  S  S22  1  0.17099033  0.05334545  0.90128874  1
  S  S23  1  0.82700621  0.03653763  0.10226090  1
  S  S24  1  0.09013209  0.49363386  0.64452809  1
  S  S25  1  0.91392481  0.48696435  0.35426373  1
  S  S26  1  0.74040367  0.99545272  0.30361844  1
  S  S27  1  0.25901446  0.00952860  0.70785210  1
  S  S28  1  0.16685273  0.52348327  0.43288558  1
  S  S29  1  0.81233839  0.49947083  0.54138365  1
  S  S30  1  0.43013191  0.46793332  0.79501046  1
  S  S31  1  0.55421142  0.52022805  0.18253656  1
  S  S32  1  0.92122069  0.50295024  0.99249243  1
  S  S33  1  0.09056729  0.49474720  0.02800061  1
  S  S34  1  0.66510591  0.55346941  0.89602654  1
  S  S35  1  0.32759028  0.47936290  0.09209719  1
  S  S36  1  0.58944098  0.98809154  0.65029433  1
  S  S37  1  0.39828465  0.98050867  0.34212932  1
  S  S38  1  0.24412878  0.47361034  0.31762517  1
  S  S39  1  0.75877386  0.52673123  0.68679832  1
  S  S40  1  0.66375387  0.99207767  0.44638424  1
  S  S41  1  0.33129176  0.98482176  0.55595234  1
