# generated using pymatgen
data_Pr2Mn3(SbS3)4
_symmetry_space_group_name_H-M   'P 1'
_cell_length_a   20.02960800
_cell_length_b   3.90410600
_cell_length_c   14.95364829
_cell_angle_alpha   90.00000000
_cell_angle_beta   126.33350609
_cell_angle_gamma   90.00000000
_symmetry_Int_Tables_number   1
_chemical_formula_structural   Pr2Mn3(SbS3)4
_chemical_formula_sum   'Pr4 Mn6 Sb8 S24'
_cell_volume   942.00006694
_cell_formula_units_Z   2
loop_
 _symmetry_equiv_pos_site_id
 _symmetry_equiv_pos_as_xyz
  1  'x, y, z'
loop_
 _atom_site_type_symbol
 _atom_site_label
 _atom_site_symmetry_multiplicity
 _atom_site_fract_x
 _atom_site_fract_y
 _atom_site_fract_z
 _atom_site_occupancy
  Pr  Pr0  1  0.26175728  0.49208757  0.86530345  1
  Pr  Pr1  1  0.72842294  0.51583339  0.12852564  1
  Pr  Pr2  1  0.77276010  0.97681522  0.88076769  1
  Pr  Pr3  1  0.24696892  0.95817719  0.15271271  1
  Mn  Mn4  1  0.28497703  0.58525224  0.58695844  1
  Mn  Mn5  1  0.70254273  0.49256131  0.39020674  1
  Mn  Mn6  1  0.98992125  0.97626669  0.98300147  1
  Mn  Mn7  1  0.78392196  0.04455287  0.58392134  1
  Mn  Mn8  1  0.18946394  0.91206667  0.40295541  1
  Mn  Mn9  1  0.51253359  0.48802576  0.01308122  1
  Sb  Sb10  1  0.89468781  0.98706485  0.45676226  1
  Sb  Sb11  1  0.10772608  0.02150364  0.55089301  1
  Sb  Sb12  1  0.02288902  0.51971459  0.79961097  1
  Sb  Sb13  1  0.97025744  0.49223874  0.18190262  1
  Sb  Sb14  1  0.40890563  0.48220996  0.46410648  1
  Sb  Sb15  1  0.60290900  0.46072035  0.56555772  1
  Sb  Sb16  1  0.52914257  0.97086032  0.81921604  1
  Sb  Sb17  1  0.46187637  0.96826977  0.18099963  1
  S  S18  1  0.92549803  0.97871997  0.77451709  1
  S  S19  1  0.08040131  0.00473150  0.21223272  1
  S  S20  1  0.41221415  0.97784435  0.97663358  1
  S  S21  1  0.58751448  0.97935047  0.01578196  1
  S  S22  1  0.17278555  0.96414585  0.89914341  1
  S  S23  1  0.82938483  0.02203973  0.10058046  1
  S  S24  1  0.09373934  0.47422251  0.65226899  1
  S  S25  1  0.89543309  0.48402452  0.33775764  1
  S  S26  1  0.73514756  0.96095938  0.30910948  1
  S  S27  1  0.26560865  0.93625190  0.69741993  1
  S  S28  1  0.15547927  0.39638424  0.44383304  1
  S  S29  1  0.83119579  0.52181143  0.54290983  1
  S  S30  1  0.44518226  0.48345529  0.81657638  1
  S  S31  1  0.56665233  0.49715148  0.19722469  1
  S  S32  1  0.91828062  0.47865908  0.98403099  1
  S  S33  1  0.08070784  0.47556705  0.00164875  1
  S  S34  1  0.67617857  0.43381904  0.89707453  1
  S  S35  1  0.34515850  0.51320990  0.11191388  1
  S  S36  1  0.59529888  0.98326503  0.66438738  1
  S  S37  1  0.43009897  0.98148813  0.37145465  1
  S  S38  1  0.25279184  0.46094736  0.29747101  1
  S  S39  1  0.75748301  0.46728027  0.66896072  1
  S  S40  1  0.65904861  0.99795100  0.43321647  1
  S  S41  1  0.32409113  0.03753303  0.53000560  1
