# generated using pymatgen
data_Pr2Mn3(SbS3)4
_symmetry_space_group_name_H-M   'P 1'
_cell_length_a   20.02960800
_cell_length_b   3.90410600
_cell_length_c   14.95364829
_cell_angle_alpha   90.00000000
_cell_angle_beta   126.33350609
_cell_angle_gamma   90.00000000
_symmetry_Int_Tables_number   1
_chemical_formula_structural   Pr2Mn3(SbS3)4
_chemical_formula_sum   'Pr4 Mn6 Sb8 S24'
_cell_volume   942.00006694
_cell_formula_units_Z   2
loop_
 _symmetry_equiv_pos_site_id
 _symmetry_equiv_pos_as_xyz
  1  'x, y, z'
loop_
 _atom_site_type_symbol
 _atom_site_label
 _atom_site_symmetry_multiplicity
 _atom_site_fract_x
 _atom_site_fract_y
 _atom_site_fract_z
 _atom_site_occupancy
  Pr  Pr0  1  0.26176475  0.49192699  0.86517599  1
  Pr  Pr1  1  0.72856132  0.51605143  0.12867986  1
  Pr  Pr2  1  0.77276751  0.97703346  0.88076462  1
  Pr  Pr3  1  0.24702356  0.95802213  0.15273437  1
  Mn  Mn4  1  0.28482822  0.58483010  0.58692666  1
  Mn  Mn5  1  0.70259636  0.49442555  0.39013749  1
  Mn  Mn6  1  0.98975220  0.97728025  0.98281924  1
  Mn  Mn7  1  0.78413678  0.04523920  0.58434303  1
  Mn  Mn8  1  0.18963407  0.91225164  0.40273120  1
  Mn  Mn9  1  0.51257435  0.48698690  0.01306699  1
  Sb  Sb10  1  0.89459149  0.98692206  0.45695823  1
  Sb  Sb11  1  0.10781471  0.02188308  0.55094481  1
  Sb  Sb12  1  0.02312186  0.51933754  0.79979564  1
  Sb  Sb13  1  0.97003411  0.49189710  0.18185809  1
  Sb  Sb14  1  0.40904945  0.48332509  0.46407205  1
  Sb  Sb15  1  0.60289079  0.46048327  0.56566904  1
  Sb  Sb16  1  0.52907787  0.97137057  0.81925410  1
  Sb  Sb17  1  0.46214089  0.96836325  0.18136204  1
  S  S18  1  0.92560393  0.97859761  0.77473367  1
  S  S19  1  0.08044052  0.00557879  0.21222617  1
  S  S20  1  0.41192148  0.97767409  0.97648983  1
  S  S21  1  0.58724709  0.98073827  0.01526687  1
  S  S22  1  0.17305451  0.96499404  0.89960006  1
  S  S23  1  0.82931777  0.02266660  0.10095321  1
  S  S24  1  0.09413265  0.47395284  0.65256621  1
  S  S25  1  0.89553236  0.48440503  0.33804139  1
  S  S26  1  0.73507880  0.96204578  0.30902539  1
  S  S27  1  0.26537126  0.93639056  0.69713632  1
  S  S28  1  0.15548584  0.39902621  0.44377901  1
  S  S29  1  0.83127859  0.52298173  0.54297495  1
  S  S30  1  0.44510383  0.48317484  0.81638472  1
  S  S31  1  0.56655763  0.49661078  0.19738433  1
  S  S32  1  0.91858129  0.47828471  0.98413918  1
  S  S33  1  0.08095830  0.47616361  0.00199130  1
  S  S34  1  0.67618476  0.43493118  0.89654987  1
  S  S35  1  0.34471328  0.51357293  0.11147411  1
  S  S36  1  0.59536295  0.98298919  0.66417795  1
  S  S37  1  0.43018479  0.98016189  0.37148937  1
  S  S38  1  0.25250581  0.46133526  0.29717857  1
  S  S39  1  0.75750948  0.46626764  0.66885980  1
  S  S40  1  0.65862877  0.99837798  0.43277163  1
  S  S41  1  0.32393481  0.03751056  0.53041929  1
