# generated using pymatgen
data_Pr2Mn3(SbS3)4
_symmetry_space_group_name_H-M   'P 1'
_cell_length_a   20.02960800
_cell_length_b   3.90410600
_cell_length_c   14.95364829
_cell_angle_alpha   90.00000000
_cell_angle_beta   126.33350609
_cell_angle_gamma   90.00000000
_symmetry_Int_Tables_number   1
_chemical_formula_structural   Pr2Mn3(SbS3)4
_chemical_formula_sum   'Pr4 Mn6 Sb8 S24'
_cell_volume   942.00006694
_cell_formula_units_Z   2
loop_
 _symmetry_equiv_pos_site_id
 _symmetry_equiv_pos_as_xyz
  1  'x, y, z'
loop_
 _atom_site_type_symbol
 _atom_site_label
 _atom_site_symmetry_multiplicity
 _atom_site_fract_x
 _atom_site_fract_y
 _atom_site_fract_z
 _atom_site_occupancy
  Pr  Pr0  1  0.26177712  0.49173614  0.86501335  1
  Pr  Pr1  1  0.72874082  0.51653447  0.12887673  1
  Pr  Pr2  1  0.77277939  0.97754081  0.88073668  1
  Pr  Pr3  1  0.24706060  0.95806922  0.15263984  1
  Mn  Mn4  1  0.28476125  0.58489802  0.58689101  1
  Mn  Mn5  1  0.70274787  0.49579586  0.39016082  1
  Mn  Mn6  1  0.98965790  0.97787088  0.98270750  1
  Mn  Mn7  1  0.78434259  0.04610308  0.58477909  1
  Mn  Mn8  1  0.18985627  0.91266404  0.40262835  1
  Mn  Mn9  1  0.51262578  0.48607520  0.01313051  1
  Sb  Sb10  1  0.89445574  0.98690198  0.45694917  1
  Sb  Sb11  1  0.10783454  0.02245522  0.55092701  1
  Sb  Sb12  1  0.02326703  0.51889695  0.79996342  1
  Sb  Sb13  1  0.96989392  0.49173335  0.18185100  1
  Sb  Sb14  1  0.40920732  0.48487301  0.46408923  1
  Sb  Sb15  1  0.60276599  0.46048838  0.56566098  1
  Sb  Sb16  1  0.52909785  0.97218403  0.81936678  1
  Sb  Sb17  1  0.46241213  0.96815495  0.18182906  1
  S  S18  1  0.92565345  0.97895439  0.77490758  1
  S  S19  1  0.08045193  0.00610641  0.21228503  1
  S  S20  1  0.41175301  0.97730992  0.97647368  1
  S  S21  1  0.58704494  0.98177113  0.01471478  1
  S  S22  1  0.17328210  0.96553653  0.90001094  1
  S  S23  1  0.82923435  0.02254291  0.10109404  1
  S  S24  1  0.09456461  0.47318182  0.65301913  1
  S  S25  1  0.89556380  0.48459204  0.33841531  1
  S  S26  1  0.73493702  0.96264377  0.30901971  1
  S  S27  1  0.26504598  0.93687365  0.69681116  1
  S  S28  1  0.15544736  0.40156607  0.44366735  1
  S  S29  1  0.83143275  0.52333915  0.54305387  1
  S  S30  1  0.44512231  0.48327154  0.81628093  1
  S  S31  1  0.56658604  0.49612055  0.19763305  1
  S  S32  1  0.91882728  0.47797815  0.98426718  1
  S  S33  1  0.08121847  0.47647203  0.00236712  1
  S  S34  1  0.67623463  0.43620226  0.89597531  1
  S  S35  1  0.34441410  0.51375509  0.11113908  1
  S  S36  1  0.59538240  0.98214199  0.66389304  1
  S  S37  1  0.43031233  0.97897639  0.37146538  1
  S  S38  1  0.25232083  0.46138650  0.29679793  1
  S  S39  1  0.75770822  0.46539151  0.66888986  1
  S  S40  1  0.65831406  0.99912223  0.43253664  1
  S  S41  1  0.32379716  0.03746433  0.53089970  1
