# generated using pymatgen
data_Pr2Mn3(SbS3)4
_symmetry_space_group_name_H-M   'P 1'
_cell_length_a   20.02960800
_cell_length_b   3.90410600
_cell_length_c   14.95364829
_cell_angle_alpha   90.00000000
_cell_angle_beta   126.33350609
_cell_angle_gamma   90.00000000
_symmetry_Int_Tables_number   1
_chemical_formula_structural   Pr2Mn3(SbS3)4
_chemical_formula_sum   'Pr4 Mn6 Sb8 S24'
_cell_volume   942.00006694
_cell_formula_units_Z   2
loop_
 _symmetry_equiv_pos_site_id
 _symmetry_equiv_pos_as_xyz
  1  'x, y, z'
loop_
 _atom_site_type_symbol
 _atom_site_label
 _atom_site_symmetry_multiplicity
 _atom_site_fract_x
 _atom_site_fract_y
 _atom_site_fract_z
 _atom_site_occupancy
  Pr  Pr0  1  0.26185251  0.49197348  0.86490452  1
  Pr  Pr1  1  0.72897628  0.51680187  0.12912546  1
  Pr  Pr2  1  0.77285303  0.97760527  0.88071575  1
  Pr  Pr3  1  0.24709382  0.95814647  0.15253769  1
  Mn  Mn4  1  0.28469912  0.58483894  0.58683359  1
  Mn  Mn5  1  0.70291593  0.49745751  0.39017886  1
  Mn  Mn6  1  0.98958107  0.97833666  0.98261254  1
  Mn  Mn7  1  0.78448749  0.04693037  0.58499474  1
  Mn  Mn8  1  0.19009233  0.91311966  0.40247120  1
  Mn  Mn9  1  0.51267080  0.48514606  0.01308172  1
  Sb  Sb10  1  0.89430289  0.98679326  0.45689722  1
  Sb  Sb11  1  0.10781110  0.02276764  0.55085377  1
  Sb  Sb12  1  0.02347488  0.51843410  0.80012146  1
  Sb  Sb13  1  0.96979204  0.49174434  0.18191408  1
  Sb  Sb14  1  0.40930206  0.48622329  0.46409082  1
  Sb  Sb15  1  0.60266568  0.46067466  0.56562281  1
  Sb  Sb16  1  0.52908008  0.97311599  0.81938027  1
  Sb  Sb17  1  0.46264008  0.96811335  0.18222817  1
  S  S18  1  0.92569119  0.97928899  0.77501490  1
  S  S19  1  0.08035744  0.00623656  0.21218581  1
  S  S20  1  0.41144769  0.97697713  0.97629092  1
  S  S21  1  0.58699917  0.98268558  0.01452678  1
  S  S22  1  0.17350761  0.96578930  0.90055908  1
  S  S23  1  0.82924799  0.02239705  0.10140420  1
  S  S24  1  0.09475042  0.47269650  0.65345164  1
  S  S25  1  0.89566000  0.48450309  0.33879411  1
  S  S26  1  0.73488497  0.96313163  0.30897802  1
  S  S27  1  0.26465579  0.93712710  0.69655063  1
  S  S28  1  0.15523885  0.40420511  0.44344964  1
  S  S29  1  0.83162534  0.52322630  0.54313143  1
  S  S30  1  0.44507554  0.48404107  0.81611624  1
  S  S31  1  0.56653965  0.49621137  0.19789080  1
  S  S32  1  0.91906287  0.47841867  0.98438860  1
  S  S33  1  0.08144962  0.47700721  0.00279444  1
  S  S34  1  0.67632022  0.43780442  0.89553969  1
  S  S35  1  0.34425466  0.51354967  0.11096328  1
  S  S36  1  0.59544412  0.98165475  0.66360787  1
  S  S37  1  0.43055766  0.97775833  0.37142387  1
  S  S38  1  0.25213264  0.46115160  0.29643963  1
  S  S39  1  0.75792651  0.46388231  0.66888141  1
  S  S40  1  0.65813541  0.00001165  0.43257399  1
  S  S41  1  0.32380827  0.03720118  0.53159057  1
