# generated using pymatgen
data_Pr2Mn3(SbS3)4
_symmetry_space_group_name_H-M   'P 1'
_cell_length_a   20.02960800
_cell_length_b   3.90410600
_cell_length_c   14.95364829
_cell_angle_alpha   90.00000000
_cell_angle_beta   126.33350609
_cell_angle_gamma   90.00000000
_symmetry_Int_Tables_number   1
_chemical_formula_structural   Pr2Mn3(SbS3)4
_chemical_formula_sum   'Pr4 Mn6 Sb8 S24'
_cell_volume   942.00006694
_cell_formula_units_Z   2
loop_
 _symmetry_equiv_pos_site_id
 _symmetry_equiv_pos_as_xyz
  1  'x, y, z'
loop_
 _atom_site_type_symbol
 _atom_site_label
 _atom_site_symmetry_multiplicity
 _atom_site_fract_x
 _atom_site_fract_y
 _atom_site_fract_z
 _atom_site_occupancy
  Pr  Pr0  1  0.26190750  0.49253170  0.86478733  1
  Pr  Pr1  1  0.72922430  0.51675274  0.12935500  1
  Pr  Pr2  1  0.77296453  0.97762935  0.88081201  1
  Pr  Pr3  1  0.24710579  0.95853465  0.15244619  1
  Mn  Mn4  1  0.28466565  0.58513289  0.58677587  1
  Mn  Mn5  1  0.70310340  0.49906599  0.39018451  1
  Mn  Mn6  1  0.98950843  0.97864773  0.98243680  1
  Mn  Mn7  1  0.78464754  0.04801468  0.58519971  1
  Mn  Mn8  1  0.19025171  0.91358834  0.40225169  1
  Mn  Mn9  1  0.51279290  0.48470444  0.01310631  1
  Sb  Sb10  1  0.89409005  0.98674092  0.45686411  1
  Sb  Sb11  1  0.10780191  0.02289400  0.55075589  1
  Sb  Sb12  1  0.02365706  0.51797667  0.80023879  1
  Sb  Sb13  1  0.96976375  0.49164854  0.18198893  1
  Sb  Sb14  1  0.40932353  0.48738238  0.46399610  1
  Sb  Sb15  1  0.60253623  0.46098364  0.56551323  1
  Sb  Sb16  1  0.52901137  0.97417175  0.81933776  1
  Sb  Sb17  1  0.46278928  0.96803710  0.18247276  1
  S  S18  1  0.92569501  0.97973133  0.77512217  1
  S  S19  1  0.08014161  0.00701590  0.21196511  1
  S  S20  1  0.41117919  0.97706477  0.97595961  1
  S  S21  1  0.58711149  0.98273654  0.01429693  1
  S  S22  1  0.17368857  0.96635749  0.90090333  1
  S  S23  1  0.82929305  0.02229115  0.10197625  1
  S  S24  1  0.09486661  0.47231137  0.65389767  1
  S  S25  1  0.89576300  0.48419097  0.33921591  1
  S  S26  1  0.73490513  0.96331479  0.30895963  1
  S  S27  1  0.26421108  0.93741111  0.69629361  1
  S  S28  1  0.15505821  0.40692173  0.44332789  1
  S  S29  1  0.83185695  0.52333966  0.54321893  1
  S  S30  1  0.44498742  0.48467400  0.81589967  1
  S  S31  1  0.56671389  0.49645412  0.19828349  1
  S  S32  1  0.91933040  0.47821841  0.98448954  1
  S  S33  1  0.08163467  0.47735946  0.00319344  1
  S  S34  1  0.67650873  0.43925471  0.89533165  1
  S  S35  1  0.34408630  0.51292708  0.11076709  1
  S  S36  1  0.59556071  0.98119326  0.66350044  1
  S  S37  1  0.43085637  0.97656892  0.37132521  1
  S  S38  1  0.25197820  0.46151540  0.29626878  1
  S  S39  1  0.75824778  0.46273301  0.66898908  1
  S  S40  1  0.65788954  0.00078863  0.43238816  1
  S  S41  1  0.32364312  0.03691319  0.53208510  1
