# generated using pymatgen
data_Pr2Mn3(SbS3)4
_symmetry_space_group_name_H-M   'P 1'
_cell_length_a   20.02960800
_cell_length_b   3.90410600
_cell_length_c   14.95364829
_cell_angle_alpha   90.00000000
_cell_angle_beta   126.33350609
_cell_angle_gamma   90.00000000
_symmetry_Int_Tables_number   1
_chemical_formula_structural   Pr2Mn3(SbS3)4
_chemical_formula_sum   'Pr4 Mn6 Sb8 S24'
_cell_volume   942.00006694
_cell_formula_units_Z   2
loop_
 _symmetry_equiv_pos_site_id
 _symmetry_equiv_pos_as_xyz
  1  'x, y, z'
loop_
 _atom_site_type_symbol
 _atom_site_label
 _atom_site_symmetry_multiplicity
 _atom_site_fract_x
 _atom_site_fract_y
 _atom_site_fract_z
 _atom_site_occupancy
  Pr  Pr0  1  0.26197560  0.49317880  0.86469695  1
  Pr  Pr1  1  0.72944972  0.51630036  0.12954621  1
  Pr  Pr2  1  0.77311617  0.97765602  0.88088658  1
  Pr  Pr3  1  0.24711842  0.95911210  0.15228119  1
  Mn  Mn4  1  0.28459538  0.58563434  0.58669444  1
  Mn  Mn5  1  0.70326766  0.50077178  0.39010425  1
  Mn  Mn6  1  0.98950269  0.97933303  0.98223392  1
  Mn  Mn7  1  0.78474223  0.04880896  0.58546930  1
  Mn  Mn8  1  0.19037843  0.91386790  0.40208207  1
  Mn  Mn9  1  0.51301962  0.48419259  0.01327256  1
  Sb  Sb10  1  0.89391397  0.98718728  0.45686241  1
  Sb  Sb11  1  0.10781869  0.02293712  0.55069933  1
  Sb  Sb12  1  0.02382535  0.51755442  0.80027897  1
  Sb  Sb13  1  0.96974849  0.49165652  0.18204854  1
  Sb  Sb14  1  0.40927409  0.48836004  0.46392670  1
  Sb  Sb15  1  0.60253656  0.46139135  0.56551627  1
  Sb  Sb16  1  0.52903402  0.97515430  0.81935665  1
  Sb  Sb17  1  0.46294523  0.96828702  0.18263914  1
  S  S18  1  0.92572694  0.98037682  0.77523397  1
  S  S19  1  0.07995934  0.00733745  0.21172513  1
  S  S20  1  0.41092217  0.97803848  0.97566554  1
  S  S21  1  0.58733874  0.98249452  0.01404791  1
  S  S22  1  0.17397195  0.96701219  0.90143321  1
  S  S23  1  0.82924986  0.02198288  0.10259550  1
  S  S24  1  0.09490893  0.47185237  0.65431950  1
  S  S25  1  0.89585328  0.48387918  0.33958728  1
  S  S26  1  0.73494576  0.96355249  0.30882345  1
  S  S27  1  0.26376236  0.93798691  0.69601690  1
  S  S28  1  0.15499781  0.40973925  0.44329929  1
  S  S29  1  0.83213599  0.52348634  0.54343593  1
  S  S30  1  0.44490573  0.48536897  0.81573478  1
  S  S31  1  0.56679361  0.49672795  0.19864416  1
  S  S32  1  0.91944743  0.47791545  0.98449228  1
  S  S33  1  0.08172426  0.47743487  0.00329416  1
  S  S34  1  0.67667701  0.44058136  0.89507703  1
  S  S35  1  0.34389273  0.51176502  0.11052062  1
  S  S36  1  0.59584225  0.98082902  0.66362003  1
  S  S37  1  0.43112365  0.97564009  0.37144770  1
  S  S38  1  0.25184329  0.46203983  0.29612626  1
  S  S39  1  0.75832213  0.46172859  0.66875430  1
  S  S40  1  0.65751759  0.00168003  0.43220813  1
  S  S41  1  0.32351793  0.03687877  0.53254207  1
