# generated using pymatgen
data_Pr2Mn3(SbS3)4
_symmetry_space_group_name_H-M   'P 1'
_cell_length_a   20.02960800
_cell_length_b   3.90410600
_cell_length_c   14.95364829
_cell_angle_alpha   90.00000000
_cell_angle_beta   126.33350609
_cell_angle_gamma   90.00000000
_symmetry_Int_Tables_number   1
_chemical_formula_structural   Pr2Mn3(SbS3)4
_chemical_formula_sum   'Pr4 Mn6 Sb8 S24'
_cell_volume   942.00006694
_cell_formula_units_Z   2
loop_
 _symmetry_equiv_pos_site_id
 _symmetry_equiv_pos_as_xyz
  1  'x, y, z'
loop_
 _atom_site_type_symbol
 _atom_site_label
 _atom_site_symmetry_multiplicity
 _atom_site_fract_x
 _atom_site_fract_y
 _atom_site_fract_z
 _atom_site_occupancy
  Pr  Pr0  1  0.26207777  0.49385143  0.86461613  1
  Pr  Pr1  1  0.72969084  0.51597507  0.12981333  1
  Pr  Pr2  1  0.77324903  0.97794154  0.88097209  1
  Pr  Pr3  1  0.24706680  0.95966696  0.15215817  1
  Mn  Mn4  1  0.28439917  0.58585234  0.58663848  1
  Mn  Mn5  1  0.70345762  0.50266452  0.39007239  1
  Mn  Mn6  1  0.98948498  0.98003747  0.98203112  1
  Mn  Mn7  1  0.78487867  0.04977856  0.58577974  1
  Mn  Mn8  1  0.19042037  0.91409262  0.40184300  1
  Mn  Mn9  1  0.51321491  0.48416329  0.01346222  1
  Sb  Sb10  1  0.89378354  0.98778616  0.45694719  1
  Sb  Sb11  1  0.10789100  0.02292125  0.55068285  1
  Sb  Sb12  1  0.02396400  0.51713062  0.80031707  1
  Sb  Sb13  1  0.96970309  0.49180610  0.18212505  1
  Sb  Sb14  1  0.40923307  0.48919920  0.46389105  1
  Sb  Sb15  1  0.60256451  0.46155557  0.56563635  1
  Sb  Sb16  1  0.52901897  0.97603561  0.81935730  1
  Sb  Sb17  1  0.46302260  0.96848522  0.18282153  1
  S  S18  1  0.92587922  0.98074898  0.77541962  1
  S  S19  1  0.07978439  0.00689228  0.21147560  1
  S  S20  1  0.41070188  0.97894352  0.97556838  1
  S  S21  1  0.58754803  0.98222406  0.01390617  1
  S  S22  1  0.17418514  0.96751363  0.90200341  1
  S  S23  1  0.82945783  0.02226636  0.10335619  1
  S  S24  1  0.09504000  0.47192299  0.65469787  1
  S  S25  1  0.89582392  0.48340203  0.33992646  1
  S  S26  1  0.73503909  0.96411348  0.30884140  1
  S  S27  1  0.26325116  0.93871715  0.69571796  1
  S  S28  1  0.15512356  0.41211918  0.44361256  1
  S  S29  1  0.83253690  0.52313435  0.54377386  1
  S  S30  1  0.44497028  0.48645147  0.81550064  1
  S  S31  1  0.56702608  0.49695139  0.19905957  1
  S  S32  1  0.91962727  0.47743126  0.98470160  1
  S  S33  1  0.08168035  0.47721600  0.00333921  1
  S  S34  1  0.67672109  0.44185328  0.89481874  1
  S  S35  1  0.34372704  0.51101017  0.11038271  1
  S  S36  1  0.59615405  0.98078040  0.66383374  1
  S  S37  1  0.43131759  0.97542938  0.37159923  1
  S  S38  1  0.25174693  0.46227280  0.29590533  1
  S  S39  1  0.75851439  0.46105064  0.66850118  1
  S  S40  1  0.65734079  0.00304199  0.43206056  1
  S  S41  1  0.32326512  0.03692933  0.53297892  1
