# generated using pymatgen
data_Pr2Mn3(SbS3)4
_symmetry_space_group_name_H-M   'P 1'
_cell_length_a   20.02960800
_cell_length_b   3.90410600
_cell_length_c   14.95364829
_cell_angle_alpha   90.00000000
_cell_angle_beta   126.33350609
_cell_angle_gamma   90.00000000
_symmetry_Int_Tables_number   1
_chemical_formula_structural   Pr2Mn3(SbS3)4
_chemical_formula_sum   'Pr4 Mn6 Sb8 S24'
_cell_volume   942.00006694
_cell_formula_units_Z   2
loop_
 _symmetry_equiv_pos_site_id
 _symmetry_equiv_pos_as_xyz
  1  'x, y, z'
loop_
 _atom_site_type_symbol
 _atom_site_label
 _atom_site_symmetry_multiplicity
 _atom_site_fract_x
 _atom_site_fract_y
 _atom_site_fract_z
 _atom_site_occupancy
  Pr  Pr0  1  0.26220605  0.49474658  0.86457489  1
  Pr  Pr1  1  0.72989647  0.51573817  0.12998365  1
  Pr  Pr2  1  0.77340066  0.97806379  0.88106303  1
  Pr  Pr3  1  0.24706510  0.96000992  0.15215794  1
  Mn  Mn4  1  0.28415595  0.58552550  0.58650632  1
  Mn  Mn5  1  0.70368374  0.50427272  0.39013401  1
  Mn  Mn6  1  0.98951051  0.98010313  0.98178432  1
  Mn  Mn7  1  0.78502770  0.05124351  0.58613656  1
  Mn  Mn8  1  0.19047957  0.91434542  0.40167123  1
  Mn  Mn9  1  0.51337776  0.48418891  0.01344123  1
  Sb  Sb10  1  0.89361421  0.98789144  0.45701691  1
  Sb  Sb11  1  0.10800190  0.02261788  0.55069297  1
  Sb  Sb12  1  0.02412155  0.51666276  0.80036854  1
  Sb  Sb13  1  0.96970144  0.49200928  0.18229403  1
  Sb  Sb14  1  0.40924957  0.48973140  0.46398794  1
  Sb  Sb15  1  0.60260007  0.46187305  0.56570863  1
  Sb  Sb16  1  0.52904372  0.97691449  0.81940648  1
  Sb  Sb17  1  0.46308383  0.96871268  0.18298950  1
  S  S18  1  0.92611107  0.98087402  0.77571137  1
  S  S19  1  0.07957839  0.00635156  0.21146045  1
  S  S20  1  0.41049057  0.98029349  0.97532640  1
  S  S21  1  0.58757116  0.98143254  0.01364524  1
  S  S22  1  0.17433645  0.96828846  0.90268981  1
  S  S23  1  0.82953866  0.02201240  0.10403902  1
  S  S24  1  0.09525480  0.47194841  0.65512713  1
  S  S25  1  0.89596576  0.48292437  0.34062040  1
  S  S26  1  0.73518180  0.96434963  0.30882386  1
  S  S27  1  0.26271096  0.93927368  0.69531129  1
  S  S28  1  0.15536055  0.41379410  0.44418550  1
  S  S29  1  0.83294731  0.52254019  0.54420552  1
  S  S30  1  0.44485094  0.48725820  0.81524407  1
  S  S31  1  0.56723743  0.49719705  0.19956909  1
  S  S32  1  0.91976877  0.47715835  0.98494603  1
  S  S33  1  0.08178607  0.47708297  0.00340044  1
  S  S34  1  0.67671284  0.44324413  0.89455762  1
  S  S35  1  0.34373940  0.51019260  0.11043274  1
  S  S36  1  0.59650114  0.98079620  0.66417051  1
  S  S37  1  0.43145915  0.97533031  0.37167419  1
  S  S38  1  0.25176603  0.46337129  0.29569210  1
  S  S39  1  0.75849619  0.46088654  0.66801444  1
  S  S40  1  0.65713435  0.00417129  0.43186131  1
  S  S41  1  0.32288432  0.03678146  0.53333938  1
