# generated using pymatgen
data_Pr2Mn3(SbS3)4
_symmetry_space_group_name_H-M   'P 1'
_cell_length_a   20.02960800
_cell_length_b   3.90410600
_cell_length_c   14.95364829
_cell_angle_alpha   90.00000000
_cell_angle_beta   126.33350609
_cell_angle_gamma   90.00000000
_symmetry_Int_Tables_number   1
_chemical_formula_structural   Pr2Mn3(SbS3)4
_chemical_formula_sum   'Pr4 Mn6 Sb8 S24'
_cell_volume   942.00006694
_cell_formula_units_Z   2
loop_
 _symmetry_equiv_pos_site_id
 _symmetry_equiv_pos_as_xyz
  1  'x, y, z'
loop_
 _atom_site_type_symbol
 _atom_site_label
 _atom_site_symmetry_multiplicity
 _atom_site_fract_x
 _atom_site_fract_y
 _atom_site_fract_z
 _atom_site_occupancy
  Pr  Pr0  1  0.26236020  0.49551557  0.86459937  1
  Pr  Pr1  1  0.73006951  0.51538715  0.13011961  1
  Pr  Pr2  1  0.77356126  0.97802994  0.88112124  1
  Pr  Pr3  1  0.24710427  0.96055123  0.15222203  1
  Mn  Mn4  1  0.28399141  0.58551414  0.58642655  1
  Mn  Mn5  1  0.70392112  0.50554401  0.39025668  1
  Mn  Mn6  1  0.98960536  0.97997237  0.98152891  1
  Mn  Mn7  1  0.78526746  0.05275726  0.58665483  1
  Mn  Mn8  1  0.19052955  0.91445205  0.40143562  1
  Mn  Mn9  1  0.51354515  0.48441491  0.01347918  1
  Sb  Sb10  1  0.89351844  0.98816355  0.45714768  1
  Sb  Sb11  1  0.10801321  0.02203657  0.55061671  1
  Sb  Sb12  1  0.02433802  0.51632933  0.80052045  1
  Sb  Sb13  1  0.96978924  0.49220408  0.18257454  1
  Sb  Sb14  1  0.40924335  0.49020700  0.46405635  1
  Sb  Sb15  1  0.60260105  0.46233129  0.56569658  1
  Sb  Sb16  1  0.52904991  0.97809678  0.81941462  1
  Sb  Sb17  1  0.46310612  0.96901037  0.18310999  1
  S  S18  1  0.92617634  0.98128065  0.77583346  1
  S  S19  1  0.07944939  0.00566856  0.21154729  1
  S  S20  1  0.41021054  0.98134261  0.97492842  1
  S  S21  1  0.58770126  0.98039855  0.01362262  1
  S  S22  1  0.17455568  0.96866460  0.90328353  1
  S  S23  1  0.82968997  0.02197272  0.10469455  1
  S  S24  1  0.09556750  0.47162870  0.65556691  1
  S  S25  1  0.89597562  0.48230063  0.34100452  1
  S  S26  1  0.73529516  0.96471149  0.30894196  1
  S  S27  1  0.26234856  0.93996352  0.69509940  1
  S  S28  1  0.15547090  0.41544758  0.44462172  1
  S  S29  1  0.83316530  0.52216270  0.54436943  1
  S  S30  1  0.44466623  0.48883211  0.81514479  1
  S  S31  1  0.56743444  0.49775929  0.19997801  1
  S  S32  1  0.91980245  0.47693007  0.98510791  1
  S  S33  1  0.08173405  0.47668154  0.00337937  1
  S  S34  1  0.67687764  0.44445129  0.89426083  1
  S  S35  1  0.34379487  0.50957048  0.11057831  1
  S  S36  1  0.59671988  0.98117325  0.66445021  1
  S  S37  1  0.43159035  0.97574786  0.37167900  1
  S  S38  1  0.25199750  0.46427840  0.29563856  1
  S  S39  1  0.75843299  0.46008402  0.66764474  1
  S  S40  1  0.65688839  0.00557935  0.43164449  1
  S  S41  1  0.32253459  0.03641144  0.53374992  1
