# generated using pymatgen
data_Pr2Mn3(SbS3)4
_symmetry_space_group_name_H-M   'P 1'
_cell_length_a   20.02960800
_cell_length_b   3.90410600
_cell_length_c   14.95364829
_cell_angle_alpha   90.00000000
_cell_angle_beta   126.33350609
_cell_angle_gamma   90.00000000
_symmetry_Int_Tables_number   1
_chemical_formula_structural   Pr2Mn3(SbS3)4
_chemical_formula_sum   'Pr4 Mn6 Sb8 S24'
_cell_volume   942.00006694
_cell_formula_units_Z   2
loop_
 _symmetry_equiv_pos_site_id
 _symmetry_equiv_pos_as_xyz
  1  'x, y, z'
loop_
 _atom_site_type_symbol
 _atom_site_label
 _atom_site_symmetry_multiplicity
 _atom_site_fract_x
 _atom_site_fract_y
 _atom_site_fract_z
 _atom_site_occupancy
  Pr  Pr0  1  0.26249809  0.49626601  0.86460186  1
  Pr  Pr1  1  0.73025267  0.51477105  0.13029326  1
  Pr  Pr2  1  0.77372048  0.97808851  0.88124206  1
  Pr  Pr3  1  0.24715299  0.96088952  0.15223041  1
  Mn  Mn4  1  0.28368413  0.58576446  0.58620850  1
  Mn  Mn5  1  0.70418661  0.50665388  0.39042231  1
  Mn  Mn6  1  0.98963970  0.97975940  0.98118819  1
  Mn  Mn7  1  0.78549893  0.05408995  0.58699239  1
  Mn  Mn8  1  0.19064999  0.91429951  0.40134655  1
  Mn  Mn9  1  0.51369337  0.48456162  0.01354770  1
  Sb  Sb10  1  0.89341169  0.98798768  0.45726276  1
  Sb  Sb11  1  0.10806057  0.02108638  0.55052050  1
  Sb  Sb12  1  0.02454665  0.51626664  0.80062264  1
  Sb  Sb13  1  0.96973792  0.49218401  0.18286201  1
  Sb  Sb14  1  0.40922547  0.49040519  0.46414546  1
  Sb  Sb15  1  0.60255436  0.46283211  0.56564051  1
  Sb  Sb16  1  0.52920221  0.97919247  0.81953990  1
  Sb  Sb17  1  0.46308778  0.96944637  0.18317708  1
  S  S18  1  0.92633441  0.98143571  0.77605780  1
  S  S19  1  0.07935177  0.00492822  0.21161017  1
  S  S20  1  0.40992596  0.98197834  0.97451572  1
  S  S21  1  0.58788891  0.97923931  0.01380282  1
  S  S22  1  0.17488823  0.96923517  0.90385900  1
  S  S23  1  0.82991694  0.02206408  0.10540335  1
  S  S24  1  0.09591690  0.47080747  0.65613693  1
  S  S25  1  0.89601668  0.48204553  0.34144558  1
  S  S26  1  0.73545233  0.96444190  0.30925316  1
  S  S27  1  0.26188704  0.94008856  0.69481390  1
  S  S28  1  0.15554783  0.41652947  0.44484457  1
  S  S29  1  0.83322266  0.52159855  0.54433054  1
  S  S30  1  0.44453832  0.49045137  0.81508524  1
  S  S31  1  0.56751179  0.49840833  0.20031664  1
  S  S32  1  0.91988614  0.47746725  0.98519529  1
  S  S33  1  0.08156863  0.47617711  0.00332963  1
  S  S34  1  0.67679998  0.44599274  0.89391603  1
  S  S35  1  0.34375348  0.50940784  0.11068288  1
  S  S36  1  0.59696625  0.98090186  0.66474173  1
  S  S37  1  0.43158481  0.97615496  0.37146944  1
  S  S38  1  0.25238752  0.46555043  0.29570920  1
  S  S39  1  0.75847072  0.45895999  0.66723002  1
  S  S40  1  0.65662947  0.00706109  0.43143585  1
  S  S41  1  0.32220811  0.03613701  0.53388402  1
