# generated using pymatgen
data_Pr2Mn3(SbS3)4
_symmetry_space_group_name_H-M   'P 1'
_cell_length_a   20.02960800
_cell_length_b   3.90410600
_cell_length_c   14.95364829
_cell_angle_alpha   90.00000000
_cell_angle_beta   126.33350609
_cell_angle_gamma   90.00000000
_symmetry_Int_Tables_number   1
_chemical_formula_structural   Pr2Mn3(SbS3)4
_chemical_formula_sum   'Pr4 Mn6 Sb8 S24'
_cell_volume   942.00006694
_cell_formula_units_Z   2
loop_
 _symmetry_equiv_pos_site_id
 _symmetry_equiv_pos_as_xyz
  1  'x, y, z'
loop_
 _atom_site_type_symbol
 _atom_site_label
 _atom_site_symmetry_multiplicity
 _atom_site_fract_x
 _atom_site_fract_y
 _atom_site_fract_z
 _atom_site_occupancy
  Pr  Pr0  1  0.26952358  0.49851702  0.86713640  1
  Pr  Pr1  1  0.73364143  0.51431963  0.13285542  1
  Pr  Pr2  1  0.76549611  0.02417856  0.86485417  1
  Pr  Pr3  1  0.23301214  0.99175960  0.13273878  1
  Mn  Mn4  1  0.29858041  0.46866713  0.60231605  1
  Mn  Mn5  1  0.68468504  0.45988308  0.36056457  1
  Mn  Mn6  1  0.00397010  0.99026159  0.01030685  1
  Mn  Mn7  1  0.79647731  0.01263709  0.61818247  1
  Mn  Mn8  1  0.19457742  0.98052960  0.36668847  1
  Mn  Mn9  1  0.48559709  0.46966065  0.98411723  1
  Sb  Sb10  1  0.88980221  0.98702112  0.45019064  1
  Sb  Sb11  1  0.11003824  0.98237877  0.54555430  1
  Sb  Sb12  1  0.03614502  0.52998325  0.82159423  1
  Sb  Sb13  1  0.96714375  0.50093081  0.18957394  1
  Sb  Sb14  1  0.39251666  0.50229679  0.44861745  1
  Sb  Sb15  1  0.60724067  0.47685936  0.54599980  1
  Sb  Sb16  1  0.53375236  0.97855519  0.80766624  1
  Sb  Sb17  1  0.46604977  0.02012234  0.18968442  1
  S  S18  1  0.93524889  0.01155683  0.80732746  1
  S  S19  1  0.06520027  0.00943693  0.19802499  1
  S  S20  1  0.41660372  0.96623421  0.98878177  1
  S  S21  1  0.58625609  0.03471122  0.01734086  1
  S  S22  1  0.17087581  0.05298692  0.90139559  1
  S  S23  1  0.82696380  0.03588781  0.10257057  1
  S  S24  1  0.09012780  0.49325727  0.64458226  1
  S  S25  1  0.91383702  0.48736750  0.35407851  1
  S  S26  1  0.74046607  0.99665916  0.30350272  1
  S  S27  1  0.25861003  0.00925479  0.70720606  1
  S  S28  1  0.16721121  0.52355560  0.43314270  1
  S  S29  1  0.81201843  0.50000046  0.54082812  1
  S  S30  1  0.43015763  0.46777012  0.79507662  1
  S  S31  1  0.55407313  0.52005742  0.18244491  1
  S  S32  1  0.92142896  0.50216342  0.99291584  1
  S  S33  1  0.09026668  0.49463336  0.02782158  1
  S  S34  1  0.66529577  0.55335729  0.89597141  1
  S  S35  1  0.32774055  0.47945134  0.09245254  1
  S  S36  1  0.58933508  0.98813737  0.65022176  1
  S  S37  1  0.39819086  0.98015602  0.34211422  1
  S  S38  1  0.24437334  0.47450501  0.31790677  1
  S  S39  1  0.75859410  0.52802052  0.68651994  1
  S  S40  1  0.66387360  0.99129690  0.44659915  1
  S  S41  1  0.33118712  0.98542595  0.55616618  1
