# generated using pymatgen
data_Pr2Mn3(SbS3)4
_symmetry_space_group_name_H-M   'P 1'
_cell_length_a   20.02960800
_cell_length_b   3.90410600
_cell_length_c   14.95364829
_cell_angle_alpha   90.00000000
_cell_angle_beta   126.33350609
_cell_angle_gamma   90.00000000
_symmetry_Int_Tables_number   1
_chemical_formula_structural   Pr2Mn3(SbS3)4
_chemical_formula_sum   'Pr4 Mn6 Sb8 S24'
_cell_volume   942.00006694
_cell_formula_units_Z   2
loop_
 _symmetry_equiv_pos_site_id
 _symmetry_equiv_pos_as_xyz
  1  'x, y, z'
loop_
 _atom_site_type_symbol
 _atom_site_label
 _atom_site_symmetry_multiplicity
 _atom_site_fract_x
 _atom_site_fract_y
 _atom_site_fract_z
 _atom_site_occupancy
  Pr  Pr0  1  0.26259155  0.49727142  0.86460502  1
  Pr  Pr1  1  0.73047450  0.51433610  0.13053875  1
  Pr  Pr2  1  0.77378578  0.97774405  0.88129152  1
  Pr  Pr3  1  0.24718440  0.96118762  0.15212710  1
  Mn  Mn4  1  0.28339630  0.58548261  0.58600098  1
  Mn  Mn5  1  0.70445226  0.50750276  0.39057563  1
  Mn  Mn6  1  0.98967115  0.97951824  0.98087928  1
  Mn  Mn7  1  0.78565491  0.05539733  0.58715285  1
  Mn  Mn8  1  0.19069426  0.91421558  0.40116448  1
  Mn  Mn9  1  0.51364522  0.48484484  0.01351467  1
  Sb  Sb10  1  0.89329309  0.98791160  0.45727181  1
  Sb  Sb11  1  0.10807182  0.02036664  0.55049549  1
  Sb  Sb12  1  0.02471406  0.51645883  0.80073481  1
  Sb  Sb13  1  0.96964448  0.49203235  0.18305140  1
  Sb  Sb14  1  0.40924267  0.49100784  0.46421863  1
  Sb  Sb15  1  0.60255838  0.46370439  0.56564274  1
  Sb  Sb16  1  0.52933958  0.98015503  0.81964786  1
  Sb  Sb17  1  0.46309880  0.96956674  0.18323669  1
  S  S18  1  0.92637347  0.98088149  0.77614565  1
  S  S19  1  0.07908469  0.00434683  0.21155347  1
  S  S20  1  0.40965586  0.98223189  0.97406724  1
  S  S21  1  0.58802448  0.97793315  0.01402172  1
  S  S22  1  0.17526863  0.97037202  0.90437671  1
  S  S23  1  0.83012440  0.02213607  0.10612249  1
  S  S24  1  0.09643414  0.47015393  0.65681927  1
  S  S25  1  0.89602843  0.48092452  0.34182208  1
  S  S26  1  0.73547011  0.96377840  0.30922742  1
  S  S27  1  0.26142535  0.93987102  0.69448026  1
  S  S28  1  0.15576049  0.41736409  0.44508418  1
  S  S29  1  0.83334345  0.52081696  0.54439140  1
  S  S30  1  0.44443832  0.49140861  0.81503989  1
  S  S31  1  0.56754285  0.49896037  0.20050559  1
  S  S32  1  0.92006728  0.47786578  0.98520465  1
  S  S33  1  0.08168360  0.47614524  0.00359072  1
  S  S34  1  0.67651909  0.44776199  0.89330578  1
  S  S35  1  0.34382564  0.50943889  0.11078945  1
  S  S36  1  0.59730653  0.98031544  0.66508399  1
  S  S37  1  0.43158053  0.97687559  0.37134608  1
  S  S38  1  0.25272204  0.46682229  0.29572689  1
  S  S39  1  0.75851984  0.45734888  0.66684621  1
  S  S40  1  0.65647924  0.00877741  0.43116339  1
  S  S41  1  0.32216544  0.03545663  0.53416661  1
