# generated using pymatgen
data_Pr2Mn3(SbS3)4
_symmetry_space_group_name_H-M   'P 1'
_cell_length_a   20.02960800
_cell_length_b   3.90410600
_cell_length_c   14.95364829
_cell_angle_alpha   90.00000000
_cell_angle_beta   126.33350609
_cell_angle_gamma   90.00000000
_symmetry_Int_Tables_number   1
_chemical_formula_structural   Pr2Mn3(SbS3)4
_chemical_formula_sum   'Pr4 Mn6 Sb8 S24'
_cell_volume   942.00006694
_cell_formula_units_Z   2
loop_
 _symmetry_equiv_pos_site_id
 _symmetry_equiv_pos_as_xyz
  1  'x, y, z'
loop_
 _atom_site_type_symbol
 _atom_site_label
 _atom_site_symmetry_multiplicity
 _atom_site_fract_x
 _atom_site_fract_y
 _atom_site_fract_z
 _atom_site_occupancy
  Pr  Pr0  1  0.26268849  0.49807785  0.86469510  1
  Pr  Pr1  1  0.73072354  0.51428349  0.13070449  1
  Pr  Pr2  1  0.77386578  0.97739735  0.88135351  1
  Pr  Pr3  1  0.24716835  0.96164232  0.15188301  1
  Mn  Mn4  1  0.28312201  0.58472729  0.58576688  1
  Mn  Mn5  1  0.70467181  0.50828590  0.39060807  1
  Mn  Mn6  1  0.98974842  0.97918271  0.98071597  1
  Mn  Mn7  1  0.78575156  0.05647112  0.58727981  1
  Mn  Mn8  1  0.19064539  0.91419469  0.40088713  1
  Mn  Mn9  1  0.51365371  0.48510438  0.01351317  1
  Sb  Sb10  1  0.89310409  0.98827726  0.45718620  1
  Sb  Sb11  1  0.10804097  0.01981962  0.55038733  1
  Sb  Sb12  1  0.02495135  0.51662831  0.80089823  1
  Sb  Sb13  1  0.96956375  0.49207571  0.18335341  1
  Sb  Sb14  1  0.40937232  0.49169968  0.46437484  1
  Sb  Sb15  1  0.60251627  0.46470947  0.56558697  1
  Sb  Sb16  1  0.52953127  0.98111632  0.81984172  1
  Sb  Sb17  1  0.46311859  0.96967123  0.18327425  1
  S  S18  1  0.92627938  0.98045942  0.77617025  1
  S  S19  1  0.07869778  0.00345261  0.21137240  1
  S  S20  1  0.40939129  0.98263253  0.97365503  1
  S  S21  1  0.58823772  0.97662028  0.01451648  1
  S  S22  1  0.17570853  0.97160432  0.90481070  1
  S  S23  1  0.83039806  0.02202028  0.10678490  1
  S  S24  1  0.09701391  0.46892283  0.65731537  1
  S  S25  1  0.89617761  0.47975947  0.34226749  1
  S  S26  1  0.73542107  0.96322470  0.30922252  1
  S  S27  1  0.26100568  0.93871510  0.69428863  1
  S  S28  1  0.15592972  0.41880682  0.44543974  1
  S  S29  1  0.83360114  0.51960006  0.54468949  1
  S  S30  1  0.44438376  0.49247600  0.81508125  1
  S  S31  1  0.56762353  0.49971660  0.20079601  1
  S  S32  1  0.92005256  0.47836215  0.98505637  1
  S  S33  1  0.08177035  0.47633219  0.00377181  1
  S  S34  1  0.67613453  0.44884591  0.89258803  1
  S  S35  1  0.34403200  0.50945409  0.11104702  1
  S  S36  1  0.59772291  0.98026767  0.66545545  1
  S  S37  1  0.43146257  0.97749263  0.37113865  1
  S  S38  1  0.25298040  0.46836839  0.29576091  1
  S  S39  1  0.75854938  0.45609741  0.66635479  1
  S  S40  1  0.65632974  0.01056497  0.43088651  1
  S  S41  1  0.32200405  0.03396911  0.53421508  1
