# generated using pymatgen
data_Pr2Mn3(SbS3)4
_symmetry_space_group_name_H-M   'P 1'
_cell_length_a   20.02960800
_cell_length_b   3.90410600
_cell_length_c   14.95364829
_cell_angle_alpha   90.00000000
_cell_angle_beta   126.33350609
_cell_angle_gamma   90.00000000
_symmetry_Int_Tables_number   1
_chemical_formula_structural   Pr2Mn3(SbS3)4
_chemical_formula_sum   'Pr4 Mn6 Sb8 S24'
_cell_volume   942.00006694
_cell_formula_units_Z   2
loop_
 _symmetry_equiv_pos_site_id
 _symmetry_equiv_pos_as_xyz
  1  'x, y, z'
loop_
 _atom_site_type_symbol
 _atom_site_label
 _atom_site_symmetry_multiplicity
 _atom_site_fract_x
 _atom_site_fract_y
 _atom_site_fract_z
 _atom_site_occupancy
  Pr  Pr0  1  0.26277419  0.49903187  0.86473436  1
  Pr  Pr1  1  0.73096202  0.51430546  0.13081459  1
  Pr  Pr2  1  0.77402130  0.97692660  0.88150706  1
  Pr  Pr3  1  0.24718415  0.96243961  0.15165296  1
  Mn  Mn4  1  0.28279225  0.58427513  0.58564923  1
  Mn  Mn5  1  0.70486101  0.50869548  0.39057397  1
  Mn  Mn6  1  0.98977032  0.97883325  0.98058379  1
  Mn  Mn7  1  0.78584568  0.05712016  0.58735614  1
  Mn  Mn8  1  0.19065651  0.91373608  0.40069468  1
  Mn  Mn9  1  0.51365916  0.48510069  0.01351602  1
  Sb  Sb10  1  0.89289030  0.98822680  0.45722678  1
  Sb  Sb11  1  0.10804333  0.01921021  0.55029761  1
  Sb  Sb12  1  0.02520918  0.51692850  0.80107406  1
  Sb  Sb13  1  0.96938461  0.49194427  0.18346715  1
  Sb  Sb14  1  0.40946252  0.49249739  0.46455023  1
  Sb  Sb15  1  0.60246264  0.46576954  0.56554335  1
  Sb  Sb16  1  0.52971639  0.98210484  0.82002736  1
  Sb  Sb17  1  0.46313283  0.96987237  0.18334524  1
  S  S18  1  0.92601871  0.98017069  0.77610244  1
  S  S19  1  0.07835571  0.00256861  0.21097631  1
  S  S20  1  0.40912334  0.98344338  0.97315616  1
  S  S21  1  0.58833883  0.97556883  0.01488889  1
  S  S22  1  0.17620835  0.97253313  0.90519478  1
  S  S23  1  0.83058773  0.02239133  0.10737432  1
  S  S24  1  0.09759283  0.46804540  0.65791163  1
  S  S25  1  0.89641754  0.47798673  0.34264607  1
  S  S26  1  0.73542392  0.96271000  0.30909361  1
  S  S27  1  0.26057090  0.93807571  0.69404479  1
  S  S28  1  0.15616788  0.41926962  0.44595601  1
  S  S29  1  0.83389601  0.51915296  0.54487357  1
  S  S30  1  0.44445229  0.49418147  0.81528914  1
  S  S31  1  0.56768415  0.50034225  0.20104401  1
  S  S32  1  0.92022849  0.47872469  0.98521876  1
  S  S33  1  0.08182402  0.47620305  0.00391626  1
  S  S34  1  0.67566859  0.44981740  0.89175200  1
  S  S35  1  0.34431271  0.50956536  0.11124223  1
  S  S36  1  0.59831379  0.98058888  0.66615340  1
  S  S37  1  0.43134695  0.97784555  0.37092170  1
  S  S38  1  0.25317533  0.46924045  0.29586260  1
  S  S39  1  0.75869797  0.45528657  0.66595783  1
  S  S40  1  0.65622311  0.01193196  0.43068451  1
  S  S41  1  0.32184560  0.03269350  0.53422013  1
