# generated using pymatgen
data_Pr2Mn3(SbS3)4
_symmetry_space_group_name_H-M   'P 1'
_cell_length_a   20.02960800
_cell_length_b   3.90410600
_cell_length_c   14.95364829
_cell_angle_alpha   90.00000000
_cell_angle_beta   126.33350609
_cell_angle_gamma   90.00000000
_symmetry_Int_Tables_number   1
_chemical_formula_structural   Pr2Mn3(SbS3)4
_chemical_formula_sum   'Pr4 Mn6 Sb8 S24'
_cell_volume   942.00006694
_cell_formula_units_Z   2
loop_
 _symmetry_equiv_pos_site_id
 _symmetry_equiv_pos_as_xyz
  1  'x, y, z'
loop_
 _atom_site_type_symbol
 _atom_site_label
 _atom_site_symmetry_multiplicity
 _atom_site_fract_x
 _atom_site_fract_y
 _atom_site_fract_z
 _atom_site_occupancy
  Pr  Pr0  1  0.26290854  0.49959441  0.86486070  1
  Pr  Pr1  1  0.73110062  0.51435734  0.13090344  1
  Pr  Pr2  1  0.77410892  0.97659922  0.88164215  1
  Pr  Pr3  1  0.24714208  0.96324631  0.15146650  1
  Mn  Mn4  1  0.28234685  0.58373770  0.58542574  1
  Mn  Mn5  1  0.70500777  0.50940946  0.39062484  1
  Mn  Mn6  1  0.98979862  0.97839101  0.98039415  1
  Mn  Mn7  1  0.78592297  0.05788692  0.58736395  1
  Mn  Mn8  1  0.19067582  0.91317819  0.40050210  1
  Mn  Mn9  1  0.51354736  0.48522642  0.01337053  1
  Sb  Sb10  1  0.89267445  0.98817342  0.45732869  1
  Sb  Sb11  1  0.10794492  0.01865677  0.55014044  1
  Sb  Sb12  1  0.02540992  0.51733185  0.80121149  1
  Sb  Sb13  1  0.96928151  0.49179950  0.18360157  1
  Sb  Sb14  1  0.40954475  0.49284318  0.46474421  1
  Sb  Sb15  1  0.60243332  0.46685203  0.56554907  1
  Sb  Sb16  1  0.52987446  0.98334599  0.82022625  1
  Sb  Sb17  1  0.46317077  0.96972315  0.18338027  1
  S  S18  1  0.92585131  0.97971036  0.77614134  1
  S  S19  1  0.07811958  0.00163749  0.21050518  1
  S  S20  1  0.40882424  0.98510517  0.97268387  1
  S  S21  1  0.58859094  0.97419776  0.01551424  1
  S  S22  1  0.17685903  0.97349429  0.90562404  1
  S  S23  1  0.83079114  0.02289234  0.10777751  1
  S  S24  1  0.09793588  0.46683130  0.65826185  1
  S  S25  1  0.89645899  0.47662033  0.34287497  1
  S  S26  1  0.73530454  0.96194673  0.30878190  1
  S  S27  1  0.26012199  0.93783914  0.69359543  1
  S  S28  1  0.15630062  0.42021864  0.44651272  1
  S  S29  1  0.83436191  0.51875279  0.54511032  1
  S  S30  1  0.44456487  0.49623011  0.81550653  1
  S  S31  1  0.56779996  0.50034902  0.20136221  1
  S  S32  1  0.92033415  0.47843858  0.98546426  1
  S  S33  1  0.08191438  0.47562895  0.00406350  1
  S  S34  1  0.67520526  0.45052706  0.89095631  1
  S  S35  1  0.34471580  0.50913193  0.11137068  1
  S  S36  1  0.59886042  0.98073214  0.66677715  1
  S  S37  1  0.43126443  0.97840361  0.37081401  1
  S  S38  1  0.25336139  0.46974375  0.29605546  1
  S  S39  1  0.75876255  0.45531927  0.66562911  1
  S  S40  1  0.65617868  0.01345409  0.43052784  1
  S  S41  1  0.32165206  0.03138497  0.53401895  1
