# generated using pymatgen
data_Pr2Mn3(SbS3)4
_symmetry_space_group_name_H-M   'P 1'
_cell_length_a   20.02960800
_cell_length_b   3.90410600
_cell_length_c   14.95364829
_cell_angle_alpha   90.00000000
_cell_angle_beta   126.33350609
_cell_angle_gamma   90.00000000
_symmetry_Int_Tables_number   1
_chemical_formula_structural   Pr2Mn3(SbS3)4
_chemical_formula_sum   'Pr4 Mn6 Sb8 S24'
_cell_volume   942.00006694
_cell_formula_units_Z   2
loop_
 _symmetry_equiv_pos_site_id
 _symmetry_equiv_pos_as_xyz
  1  'x, y, z'
loop_
 _atom_site_type_symbol
 _atom_site_label
 _atom_site_symmetry_multiplicity
 _atom_site_fract_x
 _atom_site_fract_y
 _atom_site_fract_z
 _atom_site_occupancy
  Pr  Pr0  1  0.26302643  0.49985385  0.86501092  1
  Pr  Pr1  1  0.73120009  0.51463285  0.13103530  1
  Pr  Pr2  1  0.77425510  0.97645435  0.88181241  1
  Pr  Pr3  1  0.24707784  0.96390836  0.15130535  1
  Mn  Mn4  1  0.28198520  0.58344483  0.58523438  1
  Mn  Mn5  1  0.70512685  0.51007624  0.39072008  1
  Mn  Mn6  1  0.98971031  0.97806227  0.98017016  1
  Mn  Mn7  1  0.78598345  0.05874755  0.58729120  1
  Mn  Mn8  1  0.19078099  0.91256145  0.40030377  1
  Mn  Mn9  1  0.51357123  0.48537920  0.01323027  1
  Sb  Sb10  1  0.89245799  0.98789050  0.45744562  1
  Sb  Sb11  1  0.10785110  0.01802911  0.54996030  1
  Sb  Sb12  1  0.02560931  0.51778029  0.80139570  1
  Sb  Sb13  1  0.96927172  0.49155954  0.18383636  1
  Sb  Sb14  1  0.40959514  0.49292777  0.46492194  1
  Sb  Sb15  1  0.60242503  0.46800722  0.56554372  1
  Sb  Sb16  1  0.53002268  0.98443848  0.82031794  1
  Sb  Sb17  1  0.46314510  0.96954011  0.18339045  1
  S  S18  1  0.92588784  0.97938127  0.77632784  1
  S  S19  1  0.07786309  0.00049566  0.20977527  1
  S  S20  1  0.40872331  0.98697228  0.97232881  1
  S  S21  1  0.58879950  0.97289609  0.01587644  1
  S  S22  1  0.17735484  0.97416087  0.90593307  1
  S  S23  1  0.83109624  0.02370266  0.10832235  1
  S  S24  1  0.09823003  0.46567143  0.65835649  1
  S  S25  1  0.89631650  0.47510659  0.34275970  1
  S  S26  1  0.73531109  0.96138336  0.30854625  1
  S  S27  1  0.25983865  0.93747981  0.69332095  1
  S  S28  1  0.15656405  0.42077081  0.44709919  1
  S  S29  1  0.83503802  0.51841578  0.54561689  1
  S  S30  1  0.44457376  0.49766356  0.81556551  1
  S  S31  1  0.56777008  0.50092703  0.20147613  1
  S  S32  1  0.92032817  0.47835943  0.98570021  1
  S  S33  1  0.08217270  0.47495266  0.00437368  1
  S  S34  1  0.67485976  0.45097243  0.89035882  1
  S  S35  1  0.34496496  0.50839476  0.11141775  1
  S  S36  1  0.59935112  0.98110877  0.66730006  1
  S  S37  1  0.43117973  0.97887568  0.37073191  1
  S  S38  1  0.25345694  0.47064799  0.29628878  1
  S  S39  1  0.75900160  0.45513040  0.66551090  1
  S  S40  1  0.65634575  0.01473741  0.43059665  1
  S  S41  1  0.32152389  0.03084741  0.53370946  1
