# generated using pymatgen
data_Pr2Mn3(SbS3)4
_symmetry_space_group_name_H-M   'P 1'
_cell_length_a   20.02960800
_cell_length_b   3.90410600
_cell_length_c   14.95364829
_cell_angle_alpha   90.00000000
_cell_angle_beta   126.33350609
_cell_angle_gamma   90.00000000
_symmetry_Int_Tables_number   1
_chemical_formula_structural   Pr2Mn3(SbS3)4
_chemical_formula_sum   'Pr4 Mn6 Sb8 S24'
_cell_volume   942.00006694
_cell_formula_units_Z   2
loop_
 _symmetry_equiv_pos_site_id
 _symmetry_equiv_pos_as_xyz
  1  'x, y, z'
loop_
 _atom_site_type_symbol
 _atom_site_label
 _atom_site_symmetry_multiplicity
 _atom_site_fract_x
 _atom_site_fract_y
 _atom_site_fract_z
 _atom_site_occupancy
  Pr  Pr0  1  0.26312630  0.50011956  0.86512546  1
  Pr  Pr1  1  0.73123360  0.51467160  0.13102238  1
  Pr  Pr2  1  0.77443935  0.97618928  0.88198820  1
  Pr  Pr3  1  0.24699399  0.96424996  0.15116912  1
  Mn  Mn4  1  0.28155104  0.58329316  0.58489669  1
  Mn  Mn5  1  0.70509683  0.51083043  0.39071384  1
  Mn  Mn6  1  0.98961639  0.97781122  0.97989975  1
  Mn  Mn7  1  0.78605913  0.05911905  0.58718415  1
  Mn  Mn8  1  0.19097921  0.91221494  0.40030829  1
  Mn  Mn9  1  0.51371590  0.48516092  0.01323182  1
  Sb  Sb10  1  0.89224680  0.98748314  0.45748877  1
  Sb  Sb11  1  0.10774372  0.01758952  0.54976853  1
  Sb  Sb12  1  0.02571168  0.51847213  0.80150712  1
  Sb  Sb13  1  0.96928528  0.49143041  0.18416669  1
  Sb  Sb14  1  0.40966028  0.49306045  0.46499912  1
  Sb  Sb15  1  0.60251952  0.46911801  0.56558228  1
  Sb  Sb16  1  0.53013522  0.98572600  0.82036028  1
  Sb  Sb17  1  0.46318702  0.96920022  0.18335880  1
  S  S18  1  0.92594068  0.97998858  0.77647723  1
  S  S19  1  0.07771760  0.99926022  0.20924398  1
  S  S20  1  0.40851205  0.98922785  0.97166767  1
  S  S21  1  0.58895650  0.97128730  0.01632583  1
  S  S22  1  0.17778236  0.97441549  0.90612087  1
  S  S23  1  0.83130254  0.02423762  0.10875872  1
  S  S24  1  0.09846886  0.46556916  0.65831852  1
  S  S25  1  0.89624722  0.47355115  0.34269997  1
  S  S26  1  0.73532910  0.96088592  0.30839439  1
  S  S27  1  0.25971635  0.93733714  0.69318701  1
  S  S28  1  0.15658307  0.42108889  0.44752272  1
  S  S29  1  0.83551069  0.51819350  0.54593821  1
  S  S30  1  0.44477708  0.49841238  0.81596001  1
  S  S31  1  0.56772958  0.50159507  0.20153129  1
  S  S32  1  0.92027048  0.47844749  0.98581046  1
  S  S33  1  0.08225764  0.47450215  0.00467408  1
  S  S34  1  0.67464506  0.45152377  0.88983946  1
  S  S35  1  0.34517500  0.50721400  0.11131093  1
  S  S36  1  0.59966004  0.98149770  0.66760025  1
  S  S37  1  0.43127873  0.97929805  0.37090621  1
  S  S38  1  0.25362328  0.47110418  0.29643235  1
  S  S39  1  0.75912452  0.45555655  0.66534932  1
  S  S40  1  0.65636129  0.01505899  0.43072767  1
  S  S41  1  0.32128781  0.03099837  0.53330081  1
