# generated using pymatgen
data_Pr2Mn3(SbS3)4
_symmetry_space_group_name_H-M   'P 1'
_cell_length_a   20.02960800
_cell_length_b   3.90410600
_cell_length_c   14.95364829
_cell_angle_alpha   90.00000000
_cell_angle_beta   126.33350609
_cell_angle_gamma   90.00000000
_symmetry_Int_Tables_number   1
_chemical_formula_structural   Pr2Mn3(SbS3)4
_chemical_formula_sum   'Pr4 Mn6 Sb8 S24'
_cell_volume   942.00006694
_cell_formula_units_Z   2
loop_
 _symmetry_equiv_pos_site_id
 _symmetry_equiv_pos_as_xyz
  1  'x, y, z'
loop_
 _atom_site_type_symbol
 _atom_site_label
 _atom_site_symmetry_multiplicity
 _atom_site_fract_x
 _atom_site_fract_y
 _atom_site_fract_z
 _atom_site_occupancy
  Pr  Pr0  1  0.26321929  0.50044597  0.86525010  1
  Pr  Pr1  1  0.73121073  0.51456233  0.13091725  1
  Pr  Pr2  1  0.77454537  0.97602260  0.88211683  1
  Pr  Pr3  1  0.24690472  0.96439666  0.15090116  1
  Mn  Mn4  1  0.28106714  0.58374324  0.58459543  1
  Mn  Mn5  1  0.70503606  0.51184061  0.39071908  1
  Mn  Mn6  1  0.98964907  0.97731978  0.97983022  1
  Mn  Mn7  1  0.78615473  0.05960390  0.58722286  1
  Mn  Mn8  1  0.19110650  0.91161676  0.40035855  1
  Mn  Mn9  1  0.51380047  0.48524380  0.01310763  1
  Sb  Sb10  1  0.89203636  0.98695248  0.45767356  1
  Sb  Sb11  1  0.10765187  0.01695440  0.54961914  1
  Sb  Sb12  1  0.02578297  0.51913349  0.80169226  1
  Sb  Sb13  1  0.96931642  0.49110470  0.18454056  1
  Sb  Sb14  1  0.40968677  0.49299492  0.46515389  1
  Sb  Sb15  1  0.60264122  0.47026087  0.56566341  1
  Sb  Sb16  1  0.53013304  0.98690850  0.82024634  1
  Sb  Sb17  1  0.46312365  0.96835395  0.18323444  1
  S  S18  1  0.92621276  0.98077546  0.77698935  1
  S  S19  1  0.07767128  0.99842810  0.20883094  1
  S  S20  1  0.40832556  0.99103405  0.97112452  1
  S  S21  1  0.58911781  0.96934903  0.01674053  1
  S  S22  1  0.17802738  0.97459652  0.90614025  1
  S  S23  1  0.83156789  0.02451055  0.10914519  1
  S  S24  1  0.09876602  0.46456263  0.65830577  1
  S  S25  1  0.89628859  0.47152027  0.34281340  1
  S  S26  1  0.73546614  0.96044884  0.30856514  1
  S  S27  1  0.25969695  0.93770652  0.69315004  1
  S  S28  1  0.15671510  0.42150197  0.44802665  1
  S  S29  1  0.83588612  0.51801097  0.54616291  1
  S  S30  1  0.44510388  0.49895603  0.81637022  1
  S  S31  1  0.56773345  0.50205301  0.20139259  1
  S  S32  1  0.92034002  0.47824169  0.98593427  1
  S  S33  1  0.08226130  0.47376345  0.00503997  1
  S  S34  1  0.67456687  0.45083806  0.88942961  1
  S  S35  1  0.34532471  0.50675579  0.11131459  1
  S  S36  1  0.59995958  0.98201124  0.66793891  1
  S  S37  1  0.43137537  0.97902344  0.37104876  1
  S  S38  1  0.25387808  0.47119912  0.29661095  1
  S  S39  1  0.75920239  0.45643763  0.66502622  1
  S  S40  1  0.65642454  0.01429386  0.43090629  1
  S  S41  1  0.32100741  0.03129531  0.53280367  1
