# generated using pymatgen
data_Pr2Mn3(SbS3)4
_symmetry_space_group_name_H-M   'P 1'
_cell_length_a   20.02960800
_cell_length_b   3.90410600
_cell_length_c   14.95364829
_cell_angle_alpha   90.00000000
_cell_angle_beta   126.33350609
_cell_angle_gamma   90.00000000
_symmetry_Int_Tables_number   1
_chemical_formula_structural   Pr2Mn3(SbS3)4
_chemical_formula_sum   'Pr4 Mn6 Sb8 S24'
_cell_volume   942.00006694
_cell_formula_units_Z   2
loop_
 _symmetry_equiv_pos_site_id
 _symmetry_equiv_pos_as_xyz
  1  'x, y, z'
loop_
 _atom_site_type_symbol
 _atom_site_label
 _atom_site_symmetry_multiplicity
 _atom_site_fract_x
 _atom_site_fract_y
 _atom_site_fract_z
 _atom_site_occupancy
  Pr  Pr0  1  0.26320169  0.50069829  0.86530810  1
  Pr  Pr1  1  0.73120243  0.51451083  0.13089595  1
  Pr  Pr2  1  0.77465378  0.97570811  0.88231431  1
  Pr  Pr3  1  0.24682363  0.96447351  0.15072143  1
  Mn  Mn4  1  0.28072377  0.58461923  0.58421612  1
  Mn  Mn5  1  0.70493505  0.51241898  0.39070836  1
  Mn  Mn6  1  0.98968043  0.97640741  0.97981345  1
  Mn  Mn7  1  0.78625623  0.05966126  0.58722343  1
  Mn  Mn8  1  0.19117571  0.91114274  0.40038159  1
  Mn  Mn9  1  0.51404790  0.48562195  0.01316762  1
  Sb  Sb10  1  0.89195949  0.98649921  0.45796020  1
  Sb  Sb11  1  0.10761970  0.01597307  0.54959945  1
  Sb  Sb12  1  0.02589252  0.51909017  0.80197587  1
  Sb  Sb13  1  0.96930864  0.49126617  0.18481136  1
  Sb  Sb14  1  0.40964397  0.49326134  0.46525207  1
  Sb  Sb15  1  0.60264959  0.47136221  0.56561648  1
  Sb  Sb16  1  0.53018766  0.98804051  0.82024262  1
  Sb  Sb17  1  0.46310763  0.96788821  0.18313191  1
  S  S18  1  0.92648954  0.98185608  0.77754300  1
  S  S19  1  0.07761565  0.99738229  0.20834322  1
  S  S20  1  0.40818497  0.99268184  0.97077078  1
  S  S21  1  0.58912826  0.96796110  0.01703737  1
  S  S22  1  0.17838328  0.97449716  0.90640241  1
  S  S23  1  0.83173929  0.02496841  0.10943633  1
  S  S24  1  0.09913223  0.46436720  0.65847514  1
  S  S25  1  0.89636821  0.46975985  0.34307783  1
  S  S26  1  0.73564952  0.95981768  0.30878700  1
  S  S27  1  0.25956699  0.93794637  0.69295685  1
  S  S28  1  0.15677252  0.42186578  0.44838932  1
  S  S29  1  0.83613779  0.51820890  0.54622337  1
  S  S30  1  0.44547154  0.49928480  0.81676554  1
  S  S31  1  0.56765851  0.50263730  0.20102408  1
  S  S32  1  0.92051004  0.47767160  0.98611441  1
  S  S33  1  0.08227387  0.47340912  0.00531261  1
  S  S34  1  0.67445123  0.45000104  0.88887898  1
  S  S35  1  0.34547995  0.50612693  0.11136038  1
  S  S36  1  0.60022153  0.98298329  0.66823388  1
  S  S37  1  0.43147113  0.97894373  0.37131928  1
  S  S38  1  0.25414719  0.47078615  0.29670683  1
  S  S39  1  0.75925831  0.45728409  0.66480526  1
  S  S40  1  0.65665115  0.01338897  0.43127050  1
  S  S41  1  0.32082430  0.03113642  0.53245192  1
