# generated using pymatgen
data_Pr2Mn3(SbS3)4
_symmetry_space_group_name_H-M   'P 1'
_cell_length_a   20.02960800
_cell_length_b   3.90410600
_cell_length_c   14.95364829
_cell_angle_alpha   90.00000000
_cell_angle_beta   126.33350609
_cell_angle_gamma   90.00000000
_symmetry_Int_Tables_number   1
_chemical_formula_structural   Pr2Mn3(SbS3)4
_chemical_formula_sum   'Pr4 Mn6 Sb8 S24'
_cell_volume   942.00006694
_cell_formula_units_Z   2
loop_
 _symmetry_equiv_pos_site_id
 _symmetry_equiv_pos_as_xyz
  1  'x, y, z'
loop_
 _atom_site_type_symbol
 _atom_site_label
 _atom_site_symmetry_multiplicity
 _atom_site_fract_x
 _atom_site_fract_y
 _atom_site_fract_z
 _atom_site_occupancy
  Pr  Pr0  1  0.26314605  0.50104806  0.86538029  1
  Pr  Pr1  1  0.73127912  0.51459321  0.13101276  1
  Pr  Pr2  1  0.77474478  0.97521775  0.88245104  1
  Pr  Pr3  1  0.24667688  0.96452107  0.15043878  1
  Mn  Mn4  1  0.28032616  0.58580286  0.58380717  1
  Mn  Mn5  1  0.70480744  0.51260935  0.39072385  1
  Mn  Mn6  1  0.98978671  0.97556623  0.97985578  1
  Mn  Mn7  1  0.78631139  0.05948664  0.58720756  1
  Mn  Mn8  1  0.19111828  0.91057107  0.40034537  1
  Mn  Mn9  1  0.51430193  0.48608656  0.01323952  1
  Sb  Sb10  1  0.89194569  0.98603855  0.45820077  1
  Sb  Sb11  1  0.10756726  0.01496758  0.54958454  1
  Sb  Sb12  1  0.02597347  0.51899839  0.80219861  1
  Sb  Sb13  1  0.96926270  0.49122951  0.18512267  1
  Sb  Sb14  1  0.40958166  0.49359108  0.46526932  1
  Sb  Sb15  1  0.60263884  0.47241519  0.56557664  1
  Sb  Sb16  1  0.53022648  0.98916129  0.82021131  1
  Sb  Sb17  1  0.46313471  0.96728958  0.18318770  1
  S  S18  1  0.92709278  0.98271070  0.77858429  1
  S  S19  1  0.07742280  0.99607809  0.20784209  1
  S  S20  1  0.40811308  0.99411711  0.97064409  1
  S  S21  1  0.58928328  0.96699557  0.01761575  1
  S  S22  1  0.17863262  0.97420453  0.90645440  1
  S  S23  1  0.83177941  0.02581494  0.10979143  1
  S  S24  1  0.09934117  0.46425162  0.65842304  1
  S  S25  1  0.89633648  0.46808105  0.34337316  1
  S  S26  1  0.73589993  0.95948769  0.30909738  1
  S  S27  1  0.25957501  0.93768234  0.69282037  1
  S  S28  1  0.15709008  0.42211552  0.44884797  1
  S  S29  1  0.83629630  0.51807420  0.54625060  1
  S  S30  1  0.44584107  0.49963699  0.81718843  1
  S  S31  1  0.56761838  0.50351201  0.20067972  1
  S  S32  1  0.92057023  0.47753222  0.98618189  1
  S  S33  1  0.08221600  0.47347837  0.00547286  1
  S  S34  1  0.67444994  0.44973081  0.88854636  1
  S  S35  1  0.34551232  0.50586142  0.11131493  1
  S  S36  1  0.60048740  0.98359206  0.66866569  1
  S  S37  1  0.43163679  0.97884160  0.37160945  1
  S  S38  1  0.25432963  0.47040526  0.29670110  1
  S  S39  1  0.75933009  0.45880532  0.66445754  1
  S  S40  1  0.65712517  0.01307450  0.43191848  1
  S  S41  1  0.32064271  0.03043022  0.53219063  1
