# generated using pymatgen
data_Pr2Mn3(SbS3)4
_symmetry_space_group_name_H-M   'P 1'
_cell_length_a   20.02960800
_cell_length_b   3.90410600
_cell_length_c   14.95364829
_cell_angle_alpha   90.00000000
_cell_angle_beta   126.33350609
_cell_angle_gamma   90.00000000
_symmetry_Int_Tables_number   1
_chemical_formula_structural   Pr2Mn3(SbS3)4
_chemical_formula_sum   'Pr4 Mn6 Sb8 S24'
_cell_volume   942.00006694
_cell_formula_units_Z   2
loop_
 _symmetry_equiv_pos_site_id
 _symmetry_equiv_pos_as_xyz
  1  'x, y, z'
loop_
 _atom_site_type_symbol
 _atom_site_label
 _atom_site_symmetry_multiplicity
 _atom_site_fract_x
 _atom_site_fract_y
 _atom_site_fract_z
 _atom_site_occupancy
  Pr  Pr0  1  0.26309016  0.50114432  0.86540135  1
  Pr  Pr1  1  0.73133228  0.51480975  0.13113458  1
  Pr  Pr2  1  0.77480279  0.97482365  0.88245727  1
  Pr  Pr3  1  0.24656000  0.96493873  0.15018280  1
  Mn  Mn4  1  0.27997733  0.58690868  0.58351084  1
  Mn  Mn5  1  0.70469802  0.51262778  0.39074943  1
  Mn  Mn6  1  0.98996872  0.97464235  0.97986916  1
  Mn  Mn7  1  0.78637885  0.05953064  0.58714720  1
  Mn  Mn8  1  0.19113733  0.91027317  0.40024189  1
  Mn  Mn9  1  0.51459283  0.48666213  0.01338629  1
  Sb  Sb10  1  0.89199049  0.98578082  0.45841593  1
  Sb  Sb11  1  0.10754021  0.01408168  0.54954586  1
  Sb  Sb12  1  0.02595913  0.51901605  0.80224201  1
  Sb  Sb13  1  0.96924827  0.49103952  0.18545232  1
  Sb  Sb14  1  0.40955680  0.49371687  0.46532210  1
  Sb  Sb15  1  0.60263446  0.47340616  0.56552312  1
  Sb  Sb16  1  0.53025011  0.99029707  0.82014137  1
  Sb  Sb17  1  0.46320617  0.96660216  0.18325472  1
  S  S18  1  0.92788294  0.98352733  0.77976243  1
  S  S19  1  0.07722580  0.99515588  0.20727323  1
  S  S20  1  0.40792915  0.99511740  0.97037127  1
  S  S21  1  0.58948784  0.96612087  0.01836748  1
  S  S22  1  0.17910437  0.97414441  0.90668323  1
  S  S23  1  0.83171415  0.02628121  0.11010221  1
  S  S24  1  0.09948374  0.46408476  0.65837476  1
  S  S25  1  0.89642871  0.46700523  0.34374208  1
  S  S26  1  0.73609825  0.95943663  0.30945643  1
  S  S27  1  0.25951263  0.93721186  0.69281458  1
  S  S28  1  0.15741465  0.42217030  0.44940430  1
  S  S29  1  0.83640541  0.51842473  0.54623412  1
  S  S30  1  0.44593095  0.50052024  0.81747262  1
  S  S31  1  0.56735120  0.50470798  0.20024613  1
  S  S32  1  0.92060610  0.47705231  0.98643104  1
  S  S33  1  0.08205741  0.47337921  0.00547002  1
  S  S34  1  0.67453941  0.44995369  0.88834000  1
  S  S35  1  0.34551902  0.50553239  0.11126754  1
  S  S36  1  0.60080182  0.98446955  0.66920469  1
  S  S37  1  0.43176745  0.97878954  0.37190465  1
  S  S38  1  0.25441857  0.46981364  0.29662225  1
  S  S39  1  0.75932527  0.45968942  0.66420599  1
  S  S40  1  0.65767411  0.01297615  0.43255578  1
  S  S41  1  0.32055194  0.02939314  0.53202872  1
