# generated using pymatgen
data_Pr2Mn3(SbS3)4
_symmetry_space_group_name_H-M   'P 1'
_cell_length_a   20.02960800
_cell_length_b   3.90410600
_cell_length_c   14.95364829
_cell_angle_alpha   90.00000000
_cell_angle_beta   126.33350609
_cell_angle_gamma   90.00000000
_symmetry_Int_Tables_number   1
_chemical_formula_structural   Pr2Mn3(SbS3)4
_chemical_formula_sum   'Pr4 Mn6 Sb8 S24'
_cell_volume   942.00006694
_cell_formula_units_Z   2
loop_
 _symmetry_equiv_pos_site_id
 _symmetry_equiv_pos_as_xyz
  1  'x, y, z'
loop_
 _atom_site_type_symbol
 _atom_site_label
 _atom_site_symmetry_multiplicity
 _atom_site_fract_x
 _atom_site_fract_y
 _atom_site_fract_z
 _atom_site_occupancy
  Pr  Pr0  1  0.26958024  0.49895178  0.86715784  1
  Pr  Pr1  1  0.73356677  0.51399768  0.13286372  1
  Pr  Pr2  1  0.76550323  0.02437099  0.86494717  1
  Pr  Pr3  1  0.23299596  0.99148321  0.13268074  1
  Mn  Mn4  1  0.29873408  0.46860974  0.60255729  1
  Mn  Mn5  1  0.68457015  0.45956383  0.36046562  1
  Mn  Mn6  1  0.00377782  0.99024504  0.01030856  1
  Mn  Mn7  1  0.79637441  0.01281899  0.61803305  1
  Mn  Mn8  1  0.19444104  0.98079726  0.36661487  1
  Mn  Mn9  1  0.48544896  0.46974706  0.98426048  1
  Sb  Sb10  1  0.88985799  0.98672100  0.45007845  1
  Sb  Sb11  1  0.11007806  0.98273809  0.54565265  1
  Sb  Sb12  1  0.03606396  0.53075063  0.82146516  1
  Sb  Sb13  1  0.96705705  0.50097910  0.18935313  1
  Sb  Sb14  1  0.39259989  0.50224278  0.44878968  1
  Sb  Sb15  1  0.60750332  0.47719838  0.54611034  1
  Sb  Sb16  1  0.53369131  0.97840795  0.80758346  1
  Sb  Sb17  1  0.46591960  0.02052414  0.18952249  1
  S  S18  1  0.93529702  0.01198584  0.80764240  1
  S  S19  1  0.06540062  0.01035260  0.19871829  1
  S  S20  1  0.41650693  0.96716632  0.98864775  1
  S  S21  1  0.58628616  0.03555006  0.01737453  1
  S  S22  1  0.17078204  0.05258190  0.90144407  1
  S  S23  1  0.82690705  0.03532570  0.10286750  1
  S  S24  1  0.08998342  0.49333095  0.64440056  1
  S  S25  1  0.91395492  0.48773809  0.35403267  1
  S  S26  1  0.74051753  0.99717386  0.30334759  1
  S  S27  1  0.25840911  0.00932118  0.70670198  1
  S  S28  1  0.16754027  0.52345771  0.43350040  1
  S  S29  1  0.81175636  0.50019668  0.54028902  1
  S  S30  1  0.43014620  0.46721071  0.79519911  1
  S  S31  1  0.55387494  0.51980088  0.18225029  1
  S  S32  1  0.92153874  0.50185002  0.99320231  1
  S  S33  1  0.09007179  0.49483973  0.02770216  1
  S  S34  1  0.66541548  0.55325533  0.89591568  1
  S  S35  1  0.32805047  0.47914325  0.09280771  1
  S  S36  1  0.58918490  0.98838276  0.65011299  1
  S  S37  1  0.39797807  0.97994276  0.34191396  1
  S  S38  1  0.24460632  0.47473082  0.31802245  1
  S  S39  1  0.75854043  0.52880839  0.68634197  1
  S  S40  1  0.66399748  0.99117418  0.44669402  1
  S  S41  1  0.33115769  0.98609399  0.55638808  1
