# generated using pymatgen
data_Pr2Mn3(SbS3)4
_symmetry_space_group_name_H-M   'P 1'
_cell_length_a   20.02960800
_cell_length_b   3.90410600
_cell_length_c   14.95364829
_cell_angle_alpha   90.00000000
_cell_angle_beta   126.33350609
_cell_angle_gamma   90.00000000
_symmetry_Int_Tables_number   1
_chemical_formula_structural   Pr2Mn3(SbS3)4
_chemical_formula_sum   'Pr4 Mn6 Sb8 S24'
_cell_volume   942.00006694
_cell_formula_units_Z   2
loop_
 _symmetry_equiv_pos_site_id
 _symmetry_equiv_pos_as_xyz
  1  'x, y, z'
loop_
 _atom_site_type_symbol
 _atom_site_label
 _atom_site_symmetry_multiplicity
 _atom_site_fract_x
 _atom_site_fract_y
 _atom_site_fract_z
 _atom_site_occupancy
  Pr  Pr0  1  0.26306520  0.50080214  0.86535339  1
  Pr  Pr1  1  0.73135387  0.51522582  0.13122382  1
  Pr  Pr2  1  0.77485857  0.97433170  0.88249755  1
  Pr  Pr3  1  0.24637838  0.96545744  0.14983352  1
  Mn  Mn4  1  0.27967629  0.58829471  0.58324389  1
  Mn  Mn5  1  0.70462866  0.51224577  0.39079408  1
  Mn  Mn6  1  0.98998603  0.97360190  0.97977116  1
  Mn  Mn7  1  0.78643518  0.05924706  0.58701436  1
  Mn  Mn8  1  0.19103501  0.90962672  0.40004566  1
  Mn  Mn9  1  0.51478778  0.48720913  0.01349378  1
  Sb  Sb10  1  0.89198292  0.98546726  0.45864352  1
  Sb  Sb11  1  0.10757720  0.01336325  0.54953127  1
  Sb  Sb12  1  0.02599318  0.51917733  0.80220962  1
  Sb  Sb13  1  0.96926536  0.49118661  0.18575383  1
  Sb  Sb14  1  0.40957844  0.49391094  0.46536464  1
  Sb  Sb15  1  0.60260055  0.47440409  0.56538966  1
  Sb  Sb16  1  0.53029428  0.99134339  0.82013090  1
  Sb  Sb17  1  0.46326794  0.96600242  0.18337521  1
  S  S18  1  0.92871816  0.98456551  0.78089397  1
  S  S19  1  0.07709873  0.99421490  0.20688307  1
  S  S20  1  0.40786628  0.99530791  0.97022009  1
  S  S21  1  0.58952355  0.96616818  0.01880937  1
  S  S22  1  0.17948011  0.97464151  0.90678902  1
  S  S23  1  0.83165973  0.02712966  0.11058828  1
  S  S24  1  0.09959154  0.46401223  0.65815674  1
  S  S25  1  0.89650067  0.46566739  0.34423723  1
  S  S26  1  0.73620541  0.95943358  0.30964889  1
  S  S27  1  0.25949808  0.93736896  0.69285838  1
  S  S28  1  0.15764177  0.42214969  0.44974961  1
  S  S29  1  0.83654515  0.51896277  0.54618894  1
  S  S30  1  0.44609901  0.50145648  0.81783568  1
  S  S31  1  0.56717751  0.50563327  0.19988421  1
  S  S32  1  0.92075813  0.47765478  0.98680531  1
  S  S33  1  0.08190316  0.47283976  0.00559221  1
  S  S34  1  0.67461618  0.44936595  0.88808593  1
  S  S35  1  0.34548472  0.50526682  0.11139087  1
  S  S36  1  0.60121859  0.98552946  0.66967567  1
  S  S37  1  0.43190747  0.97814263  0.37228965  1
  S  S38  1  0.25449250  0.46896400  0.29647816  1
  S  S39  1  0.75946652  0.46069355  0.66416160  1
  S  S40  1  0.65809268  0.01273960  0.43306789  1
  S  S41  1  0.32050550  0.02879315  0.53190793  1
