# generated using pymatgen
data_Pr2Mn3(SbS3)4
_symmetry_space_group_name_H-M   'P 1'
_cell_length_a   20.02960800
_cell_length_b   3.90410600
_cell_length_c   14.95364829
_cell_angle_alpha   90.00000000
_cell_angle_beta   126.33350609
_cell_angle_gamma   90.00000000
_symmetry_Int_Tables_number   1
_chemical_formula_structural   Pr2Mn3(SbS3)4
_chemical_formula_sum   'Pr4 Mn6 Sb8 S24'
_cell_volume   942.00006694
_cell_formula_units_Z   2
loop_
 _symmetry_equiv_pos_site_id
 _symmetry_equiv_pos_as_xyz
  1  'x, y, z'
loop_
 _atom_site_type_symbol
 _atom_site_label
 _atom_site_symmetry_multiplicity
 _atom_site_fract_x
 _atom_site_fract_y
 _atom_site_fract_z
 _atom_site_occupancy
  Pr  Pr0  1  0.26311365  0.50080317  0.86529805  1
  Pr  Pr1  1  0.73137710  0.51578229  0.13126618  1
  Pr  Pr2  1  0.77489699  0.97379080  0.88259267  1
  Pr  Pr3  1  0.24617898  0.96560623  0.14951245  1
  Mn  Mn4  1  0.27944977  0.58964610  0.58305093  1
  Mn  Mn5  1  0.70469045  0.51201919  0.39099898  1
  Mn  Mn6  1  0.98989253  0.97305550  0.97963481  1
  Mn  Mn7  1  0.78652042  0.05951168  0.58694753  1
  Mn  Mn8  1  0.19099387  0.90931439  0.39982135  1
  Mn  Mn9  1  0.51498494  0.48761392  0.01362332  1
  Sb  Sb10  1  0.89203664  0.98517165  0.45886586  1
  Sb  Sb11  1  0.10764091  0.01241115  0.54955458  1
  Sb  Sb12  1  0.02601123  0.51942854  0.80219792  1
  Sb  Sb13  1  0.96931975  0.49139402  0.18614516  1
  Sb  Sb14  1  0.40956141  0.49462283  0.46540960  1
  Sb  Sb15  1  0.60253373  0.47526140  0.56524232  1
  Sb  Sb16  1  0.53025965  0.99242961  0.82009909  1
  Sb  Sb17  1  0.46329079  0.96557009  0.18351166  1
  S  S18  1  0.92937533  0.98543712  0.78178969  1
  S  S19  1  0.07696241  0.99359905  0.20650550  1
  S  S20  1  0.40784208  0.99461630  0.97015071  1
  S  S21  1  0.58952921  0.96629433  0.01911345  1
  S  S22  1  0.17992773  0.97585188  0.90699541  1
  S  S23  1  0.83145253  0.02744654  0.11071183  1
  S  S24  1  0.09979065  0.46461892  0.65819007  1
  S  S25  1  0.89661823  0.46463472  0.34481581  1
  S  S26  1  0.73620516  0.95956014  0.31002450  1
  S  S27  1  0.25941880  0.93767319  0.69272238  1
  S  S28  1  0.15783480  0.42236505  0.45012904  1
  S  S29  1  0.83674861  0.51920970  0.54620035  1
  S  S30  1  0.44632464  0.50245229  0.81839705  1
  S  S31  1  0.56706117  0.50659986  0.19959045  1
  S  S32  1  0.92094901  0.47842572  0.98723234  1
  S  S33  1  0.08171433  0.47204212  0.00563882  1
  S  S34  1  0.67455900  0.44881172  0.88786657  1
  S  S35  1  0.34541035  0.50462376  0.11138703  1
  S  S36  1  0.60157832  0.98639678  0.66996464  1
  S  S37  1  0.43212307  0.97759351  0.37265599  1
  S  S38  1  0.25462880  0.46826417  0.29642599  1
  S  S39  1  0.75952076  0.46158940  0.66394173  1
  S  S40  1  0.65858107  0.01324731  0.43355097  1
  S  S41  1  0.32042886  0.02752873  0.53173744  1
