# generated using pymatgen
data_Pr2Mn3(SbS3)4
_symmetry_space_group_name_H-M   'P 1'
_cell_length_a   20.02960800
_cell_length_b   3.90410600
_cell_length_c   14.95364829
_cell_angle_alpha   90.00000000
_cell_angle_beta   126.33350609
_cell_angle_gamma   90.00000000
_symmetry_Int_Tables_number   1
_chemical_formula_structural   Pr2Mn3(SbS3)4
_chemical_formula_sum   'Pr4 Mn6 Sb8 S24'
_cell_volume   942.00006694
_cell_formula_units_Z   2
loop_
 _symmetry_equiv_pos_site_id
 _symmetry_equiv_pos_as_xyz
  1  'x, y, z'
loop_
 _atom_site_type_symbol
 _atom_site_label
 _atom_site_symmetry_multiplicity
 _atom_site_fract_x
 _atom_site_fract_y
 _atom_site_fract_z
 _atom_site_occupancy
  Pr  Pr0  1  0.26318068  0.50049754  0.86520757  1
  Pr  Pr1  1  0.73141576  0.51618989  0.13134539  1
  Pr  Pr2  1  0.77494286  0.97331656  0.88262332  1
  Pr  Pr3  1  0.24604721  0.96563525  0.14926471  1
  Mn  Mn4  1  0.27925567  0.59095655  0.58286255  1
  Mn  Mn5  1  0.70462651  0.51182350  0.39122095  1
  Mn  Mn6  1  0.98986293  0.97252684  0.97958985  1
  Mn  Mn7  1  0.78661501  0.05972172  0.58692159  1
  Mn  Mn8  1  0.19089478  0.90924032  0.39968983  1
  Mn  Mn9  1  0.51529733  0.48785353  0.01384372  1
  Sb  Sb10  1  0.89201855  0.98451894  0.45902962  1
  Sb  Sb11  1  0.10769779  0.01146680  0.54964689  1
  Sb  Sb12  1  0.02604365  0.51969323  0.80214530  1
  Sb  Sb13  1  0.96931243  0.49190989  0.18637607  1
  Sb  Sb14  1  0.40953341  0.49531842  0.46558165  1
  Sb  Sb15  1  0.60238962  0.47601914  0.56506290  1
  Sb  Sb16  1  0.53026506  0.99362337  0.82010494  1
  Sb  Sb17  1  0.46320417  0.96509779  0.18353495  1
  S  S18  1  0.93005061  0.98595021  0.78255257  1
  S  S19  1  0.07669590  0.99267603  0.20613526  1
  S  S20  1  0.40778757  0.99433792  0.97008202  1
  S  S21  1  0.58971257  0.96639298  0.01967625  1
  S  S22  1  0.18025111  0.97755420  0.90690435  1
  S  S23  1  0.83110228  0.02766841  0.11064170  1
  S  S24  1  0.09994161  0.46480535  0.65815760  1
  S  S25  1  0.89687798  0.46308155  0.34549230  1
  S  S26  1  0.73620629  0.96002228  0.31033785  1
  S  S27  1  0.25930447  0.93781252  0.69273252  1
  S  S28  1  0.15808901  0.42252354  0.45059027  1
  S  S29  1  0.83705283  0.51900901  0.54642171  1
  S  S30  1  0.44666181  0.50327302  0.81898835  1
  S  S31  1  0.56678825  0.50776248  0.19922006  1
  S  S32  1  0.92114214  0.47937176  0.98748697  1
  S  S33  1  0.08155495  0.47105343  0.00560009  1
  S  S34  1  0.67468070  0.44837542  0.88802535  1
  S  S35  1  0.34528864  0.50426963  0.11145230  1
  S  S36  1  0.60190085  0.98723617  0.67030869  1
  S  S37  1  0.43234880  0.97617927  0.37315188  1
  S  S38  1  0.25485261  0.46722088  0.29641599  1
  S  S39  1  0.75965160  0.46289742  0.66375341  1
  S  S40  1  0.65898898  0.01399690  0.43400961  1
  S  S41  1  0.32029349  0.02592727  0.53157996  1
