# generated using pymatgen
data_Pr2Mn3(SbS3)4
_symmetry_space_group_name_H-M   'P 1'
_cell_length_a   20.02960800
_cell_length_b   3.90410600
_cell_length_c   14.95364829
_cell_angle_alpha   90.00000000
_cell_angle_beta   126.33350609
_cell_angle_gamma   90.00000000
_symmetry_Int_Tables_number   1
_chemical_formula_structural   Pr2Mn3(SbS3)4
_chemical_formula_sum   'Pr4 Mn6 Sb8 S24'
_cell_volume   942.00006694
_cell_formula_units_Z   2
loop_
 _symmetry_equiv_pos_site_id
 _symmetry_equiv_pos_as_xyz
  1  'x, y, z'
loop_
 _atom_site_type_symbol
 _atom_site_label
 _atom_site_symmetry_multiplicity
 _atom_site_fract_x
 _atom_site_fract_y
 _atom_site_fract_z
 _atom_site_occupancy
  Pr  Pr0  1  0.26326670  0.50021796  0.86513499  1
  Pr  Pr1  1  0.73142693  0.51653661  0.13133494  1
  Pr  Pr2  1  0.77501622  0.97282821  0.88266917  1
  Pr  Pr3  1  0.24585954  0.96573904  0.14894538  1
  Mn  Mn4  1  0.27917350  0.59213561  0.58281343  1
  Mn  Mn5  1  0.70465390  0.51150199  0.39152143  1
  Mn  Mn6  1  0.98988880  0.97218759  0.97954461  1
  Mn  Mn7  1  0.78654985  0.05981200  0.58684543  1
  Mn  Mn8  1  0.19075622  0.90934025  0.39956289  1
  Mn  Mn9  1  0.51573236  0.48911498  0.01416658  1
  Sb  Sb10  1  0.89204667  0.98389703  0.45918115  1
  Sb  Sb11  1  0.10778763  0.01031451  0.54980378  1
  Sb  Sb12  1  0.02600057  0.52018326  0.80205721  1
  Sb  Sb13  1  0.96929382  0.49242195  0.18660102  1
  Sb  Sb14  1  0.40949655  0.49592406  0.46577523  1
  Sb  Sb15  1  0.60232946  0.47644247  0.56489679  1
  Sb  Sb16  1  0.53019198  0.99465984  0.82001865  1
  Sb  Sb17  1  0.46316746  0.96467990  0.18366792  1
  S  S18  1  0.93062362  0.98637933  0.78336955  1
  S  S19  1  0.07637512  0.99195924  0.20588812  1
  S  S20  1  0.40777099  0.99443660  0.97028122  1
  S  S21  1  0.58976596  0.96664284  0.02009455  1
  S  S22  1  0.18053559  0.97966656  0.90690469  1
  S  S23  1  0.83074848  0.02820055  0.11038783  1
  S  S24  1  0.10010160  0.46444157  0.65800606  1
  S  S25  1  0.89710675  0.46175981  0.34619914  1
  S  S26  1  0.73620686  0.96137041  0.31064694  1
  S  S27  1  0.25901421  0.93773051  0.69264233  1
  S  S28  1  0.15843837  0.42230743  0.45092340  1
  S  S29  1  0.83737540  0.51898726  0.54670209  1
  S  S30  1  0.44695346  0.50378297  0.81955188  1
  S  S31  1  0.56662684  0.50906625  0.19903507  1
  S  S32  1  0.92127990  0.48020773  0.98764662  1
  S  S33  1  0.08134126  0.47022600  0.00561559  1
  S  S34  1  0.67479575  0.44829184  0.88813688  1
  S  S35  1  0.34500152  0.50369284  0.11143730  1
  S  S36  1  0.60225040  0.98825389  0.67050381  1
  S  S37  1  0.43260418  0.97538521  0.37365922  1
  S  S38  1  0.25518478  0.46513508  0.29641166  1
  S  S39  1  0.75989285  0.46428500  0.66361573  1
  S  S40  1  0.65920655  0.01406954  0.43432184  1
  S  S41  1  0.32027695  0.02513235  0.53136281  1
