# generated using pymatgen
data_Pr2Mn3(SbS3)4
_symmetry_space_group_name_H-M   'P 1'
_cell_length_a   20.02960800
_cell_length_b   3.90410600
_cell_length_c   14.95364829
_cell_angle_alpha   90.00000000
_cell_angle_beta   126.33350609
_cell_angle_gamma   90.00000000
_symmetry_Int_Tables_number   1
_chemical_formula_structural   Pr2Mn3(SbS3)4
_chemical_formula_sum   'Pr4 Mn6 Sb8 S24'
_cell_volume   942.00006694
_cell_formula_units_Z   2
loop_
 _symmetry_equiv_pos_site_id
 _symmetry_equiv_pos_as_xyz
  1  'x, y, z'
loop_
 _atom_site_type_symbol
 _atom_site_label
 _atom_site_symmetry_multiplicity
 _atom_site_fract_x
 _atom_site_fract_y
 _atom_site_fract_z
 _atom_site_occupancy
  Pr  Pr0  1  0.26335866  0.49985785  0.86516515  1
  Pr  Pr1  1  0.73148306  0.51691872  0.13137227  1
  Pr  Pr2  1  0.77509657  0.97249623  0.88275089  1
  Pr  Pr3  1  0.24569266  0.96549764  0.14861399  1
  Mn  Mn4  1  0.27904387  0.59318583  0.58261157  1
  Mn  Mn5  1  0.70465263  0.51128477  0.39177070  1
  Mn  Mn6  1  0.98993569  0.97198754  0.97954607  1
  Mn  Mn7  1  0.78659633  0.06044621  0.58690960  1
  Mn  Mn8  1  0.19046423  0.90968782  0.39928098  1
  Mn  Mn9  1  0.51611799  0.49035128  0.01442880  1
  Sb  Sb10  1  0.89215729  0.98351065  0.45934952  1
  Sb  Sb11  1  0.10791156  0.00930419  0.54991718  1
  Sb  Sb12  1  0.02601274  0.52066072  0.80206141  1
  Sb  Sb13  1  0.96928665  0.49242149  0.18689196  1
  Sb  Sb14  1  0.40943069  0.49612700  0.46585525  1
  Sb  Sb15  1  0.60239132  0.47729174  0.56476208  1
  Sb  Sb16  1  0.53012989  0.99563783  0.81992842  1
  Sb  Sb17  1  0.46322114  0.96466380  0.18384827  1
  S  S18  1  0.93122657  0.98694544  0.78426624  1
  S  S19  1  0.07601886  0.99218063  0.20576543  1
  S  S20  1  0.40771001  0.99508986  0.97042902  1
  S  S21  1  0.59001664  0.96657903  0.02070225  1
  S  S22  1  0.18078003  0.98152913  0.90701400  1
  S  S23  1  0.83026808  0.02909197  0.11000245  1
  S  S24  1  0.10023740  0.46419933  0.65812617  1
  S  S25  1  0.89724680  0.46073046  0.34675323  1
  S  S26  1  0.73621769  0.96276849  0.31097284  1
  S  S27  1  0.25891145  0.93814016  0.69278269  1
  S  S28  1  0.15887899  0.42251801  0.45133549  1
  S  S29  1  0.83741818  0.51931939  0.54683279  1
  S  S30  1  0.44728656  0.50452287  0.82008773  1
  S  S31  1  0.56644145  0.51085472  0.19884421  1
  S  S32  1  0.92132218  0.48105182  0.98768090  1
  S  S33  1  0.08124430  0.46919428  0.00558334  1
  S  S34  1  0.67490685  0.44827052  0.88828991  1
  S  S35  1  0.34487220  0.50314908  0.11151551  1
  S  S36  1  0.60253720  0.98898770  0.67100827  1
  S  S37  1  0.43281375  0.97468992  0.37411089  1
  S  S38  1  0.25562657  0.46352107  0.29645039  1
  S  S39  1  0.76005789  0.46486345  0.66333360  1
  S  S40  1  0.65931176  0.01372612  0.43465236  1
  S  S41  1  0.32032347  0.02420951  0.53112900  1
