# generated using pymatgen
data_Pr2Mn3(SbS3)4
_symmetry_space_group_name_H-M   'P 1'
_cell_length_a   20.02960800
_cell_length_b   3.90410600
_cell_length_c   14.95364829
_cell_angle_alpha   90.00000000
_cell_angle_beta   126.33350609
_cell_angle_gamma   90.00000000
_symmetry_Int_Tables_number   1
_chemical_formula_structural   Pr2Mn3(SbS3)4
_chemical_formula_sum   'Pr4 Mn6 Sb8 S24'
_cell_volume   942.00006694
_cell_formula_units_Z   2
loop_
 _symmetry_equiv_pos_site_id
 _symmetry_equiv_pos_as_xyz
  1  'x, y, z'
loop_
 _atom_site_type_symbol
 _atom_site_label
 _atom_site_symmetry_multiplicity
 _atom_site_fract_x
 _atom_site_fract_y
 _atom_site_fract_z
 _atom_site_occupancy
  Pr  Pr0  1  0.26350220  0.49959334  0.86523689  1
  Pr  Pr1  1  0.73153049  0.51745794  0.13149609  1
  Pr  Pr2  1  0.77524225  0.97236966  0.88296485  1
  Pr  Pr3  1  0.24546597  0.96536996  0.14832700  1
  Mn  Mn4  1  0.27900353  0.59404457  0.58241744  1
  Mn  Mn5  1  0.70469225  0.51101961  0.39185272  1
  Mn  Mn6  1  0.98998693  0.97139954  0.97954270  1
  Mn  Mn7  1  0.78678232  0.06041526  0.58719824  1
  Mn  Mn8  1  0.19032471  0.91008699  0.39897109  1
  Mn  Mn9  1  0.51647996  0.49162873  0.01467528  1
  Sb  Sb10  1  0.89225705  0.98271694  0.45945221  1
  Sb  Sb11  1  0.10795241  0.00809701  0.55001812  1
  Sb  Sb12  1  0.02609336  0.52093458  0.80209505  1
  Sb  Sb13  1  0.96932737  0.49227229  0.18721389  1
  Sb  Sb14  1  0.40937258  0.49614140  0.46594378  1
  Sb  Sb15  1  0.60239568  0.47798463  0.56457533  1
  Sb  Sb16  1  0.53004470  0.99661040  0.81988849  1
  Sb  Sb17  1  0.46335814  0.96484285  0.18419528  1
  S  S18  1  0.93172041  0.98759807  0.78505367  1
  S  S19  1  0.07557052  0.99247957  0.20569058  1
  S  S20  1  0.40758354  0.99528001  0.97034263  1
  S  S21  1  0.59027233  0.96675042  0.02143456  1
  S  S22  1  0.18093848  0.98351396  0.90712267  1
  S  S23  1  0.82966504  0.02983684  0.10940793  1
  S  S24  1  0.10028854  0.46409477  0.65823794  1
  S  S25  1  0.89731375  0.45927250  0.34736079  1
  S  S26  1  0.73623374  0.96430772  0.31137049  1
  S  S27  1  0.25869312  0.93908502  0.69281124  1
  S  S28  1  0.15931075  0.42190426  0.45182436  1
  S  S29  1  0.83749434  0.51891559  0.54716205  1
  S  S30  1  0.44759012  0.50520748  0.82052582  1
  S  S31  1  0.56624972  0.51309276  0.19861162  1
  S  S32  1  0.92132017  0.48140255  0.98756186  1
  S  S33  1  0.08101244  0.46809422  0.00561416  1
  S  S34  1  0.67495572  0.44843828  0.88822032  1
  S  S35  1  0.34479467  0.50289432  0.11160344  1
  S  S36  1  0.60265590  0.98880460  0.67129597  1
  S  S37  1  0.43278855  0.97393365  0.37451276  1
  S  S38  1  0.25592516  0.46195283  0.29658408  1
  S  S39  1  0.76012826  0.46483852  0.66296348  1
  S  S40  1  0.65934628  0.01287096  0.43483212  1
  S  S41  1  0.32044716  0.02319442  0.53072911  1
