# generated using pymatgen
data_Pr2Mn3(SbS3)4
_symmetry_space_group_name_H-M   'P 1'
_cell_length_a   20.02960800
_cell_length_b   3.90410600
_cell_length_c   14.95364829
_cell_angle_alpha   90.00000000
_cell_angle_beta   126.33350609
_cell_angle_gamma   90.00000000
_symmetry_Int_Tables_number   1
_chemical_formula_structural   Pr2Mn3(SbS3)4
_chemical_formula_sum   'Pr4 Mn6 Sb8 S24'
_cell_volume   942.00006694
_cell_formula_units_Z   2
loop_
 _symmetry_equiv_pos_site_id
 _symmetry_equiv_pos_as_xyz
  1  'x, y, z'
loop_
 _atom_site_type_symbol
 _atom_site_label
 _atom_site_symmetry_multiplicity
 _atom_site_fract_x
 _atom_site_fract_y
 _atom_site_fract_z
 _atom_site_occupancy
  Pr  Pr0  1  0.26365885  0.49915734  0.86534879  1
  Pr  Pr1  1  0.73157221  0.51794529  0.13158894  1
  Pr  Pr2  1  0.77537170  0.97229465  0.88323084  1
  Pr  Pr3  1  0.24519554  0.96519452  0.14791937  1
  Mn  Mn4  1  0.27899590  0.59476896  0.58224729  1
  Mn  Mn5  1  0.70483412  0.51085687  0.39195367  1
  Mn  Mn6  1  0.98990949  0.97094797  0.97937929  1
  Mn  Mn7  1  0.78695802  0.06015796  0.58741410  1
  Mn  Mn8  1  0.19010716  0.91093467  0.39866841  1
  Mn  Mn9  1  0.51665217  0.49289846  0.01481084  1
  Sb  Sb10  1  0.89236067  0.98169502  0.45951749  1
  Sb  Sb11  1  0.10794281  0.00685851  0.54999724  1
  Sb  Sb12  1  0.02622914  0.52117813  0.80222036  1
  Sb  Sb13  1  0.96935454  0.49259186  0.18753275  1
  Sb  Sb14  1  0.40928589  0.49624924  0.46598121  1
  Sb  Sb15  1  0.60236044  0.47873619  0.56439364  1
  Sb  Sb16  1  0.52994573  0.99762047  0.81986662  1
  Sb  Sb17  1  0.46346818  0.96487700  0.18438552  1
  S  S18  1  0.93217278  0.98862942  0.78576639  1
  S  S19  1  0.07494305  0.99261944  0.20548914  1
  S  S20  1  0.40746891  0.99513316  0.97027990  1
  S  S21  1  0.59065008  0.96695541  0.02227209  1
  S  S22  1  0.18107162  0.98539476  0.90744314  1
  S  S23  1  0.82916278  0.03034383  0.10886868  1
  S  S24  1  0.10030982  0.46361239  0.65831205  1
  S  S25  1  0.89728071  0.45756234  0.34792037  1
  S  S26  1  0.73634180  0.96538720  0.31175041  1
  S  S27  1  0.25840944  0.93990808  0.69264637  1
  S  S28  1  0.15972572  0.42176844  0.45250686  1
  S  S29  1  0.83745618  0.51828912  0.54729545  1
  S  S30  1  0.44792519  0.50542821  0.82078852  1
  S  S31  1  0.56615553  0.51510798  0.19846531  1
  S  S32  1  0.92133910  0.48257631  0.98735967  1
  S  S33  1  0.08070914  0.46726539  0.00563206  1
  S  S34  1  0.67505004  0.44836762  0.88821945  1
  S  S35  1  0.34471954  0.50280714  0.11165825  1
  S  S36  1  0.60263837  0.98851101  0.67146337  1
  S  S37  1  0.43258201  0.97395038  0.37476160  1
  S  S38  1  0.25613766  0.46017302  0.29638536  1
  S  S39  1  0.76024466  0.46443540  0.66266400  1
  S  S40  1  0.65932996  0.01245330  0.43494178  1
  S  S41  1  0.32041088  0.02201190  0.53026656  1
