# generated using pymatgen
data_Pr2Mn3(SbS3)4
_symmetry_space_group_name_H-M   'P 1'
_cell_length_a   20.02960800
_cell_length_b   3.90410600
_cell_length_c   14.95364829
_cell_angle_alpha   90.00000000
_cell_angle_beta   126.33350609
_cell_angle_gamma   90.00000000
_symmetry_Int_Tables_number   1
_chemical_formula_structural   Pr2Mn3(SbS3)4
_chemical_formula_sum   'Pr4 Mn6 Sb8 S24'
_cell_volume   942.00006694
_cell_formula_units_Z   2
loop_
 _symmetry_equiv_pos_site_id
 _symmetry_equiv_pos_as_xyz
  1  'x, y, z'
loop_
 _atom_site_type_symbol
 _atom_site_label
 _atom_site_symmetry_multiplicity
 _atom_site_fract_x
 _atom_site_fract_y
 _atom_site_fract_z
 _atom_site_occupancy
  Pr  Pr0  1  0.26377492  0.49860282  0.86546173  1
  Pr  Pr1  1  0.73156904  0.51840347  0.13160211  1
  Pr  Pr2  1  0.77543442  0.97229942  0.88342299  1
  Pr  Pr3  1  0.24501702  0.96477270  0.14762093  1
  Mn  Mn4  1  0.27896470  0.59530118  0.58196030  1
  Mn  Mn5  1  0.70505097  0.51070110  0.39200858  1
  Mn  Mn6  1  0.98997935  0.97022147  0.97931335  1
  Mn  Mn7  1  0.78711098  0.06040713  0.58748432  1
  Mn  Mn8  1  0.18980645  0.91137724  0.39830170  1
  Mn  Mn9  1  0.51678641  0.49374610  0.01484988  1
  Sb  Sb10  1  0.89247996  0.98085069  0.45951779  1
  Sb  Sb11  1  0.10800773  0.00569803  0.55014010  1
  Sb  Sb12  1  0.02636309  0.52154354  0.80236980  1
  Sb  Sb13  1  0.96939526  0.49280216  0.18776666  1
  Sb  Sb14  1  0.40919780  0.49643656  0.46594640  1
  Sb  Sb15  1  0.60228945  0.47926803  0.56419405  1
  Sb  Sb16  1  0.52986944  0.99885604  0.81989195  1
  Sb  Sb17  1  0.46363957  0.96513811  0.18457720  1
  S  S18  1  0.93268246  0.98923083  0.78648391  1
  S  S19  1  0.07448130  0.99302819  0.20554925  1
  S  S20  1  0.40746116  0.99447505  0.97021187  1
  S  S21  1  0.59106926  0.96750842  0.02302362  1
  S  S22  1  0.18130024  0.98692418  0.90776797  1
  S  S23  1  0.82890914  0.03103603  0.10864341  1
  S  S24  1  0.10037919  0.46297362  0.65833377  1
  S  S25  1  0.89716834  0.45646810  0.34823266  1
  S  S26  1  0.73637861  0.96703371  0.31220396  1
  S  S27  1  0.25799737  0.94021504  0.69237671  1
  S  S28  1  0.16001667  0.42164933  0.45290244  1
  S  S29  1  0.83733486  0.51789153  0.54732716  1
  S  S30  1  0.44814459  0.50486465  0.82109787  1
  S  S31  1  0.56610383  0.51727686  0.19851992  1
  S  S32  1  0.92141615  0.48383093  0.98716814  1
  S  S33  1  0.08045696  0.46644021  0.00550144  1
  S  S34  1  0.67512097  0.44867011  0.88821430  1
  S  S35  1  0.34479994  0.50278912  0.11173556  1
  S  S36  1  0.60265045  0.98856550  0.67164632  1
  S  S37  1  0.43244667  0.97393814  0.37501003  1
  S  S38  1  0.25629080  0.45858176  0.29620011  1
  S  S39  1  0.76031975  0.46443008  0.66232449  1
  S  S40  1  0.65944778  0.01176758  0.43520465  1
  S  S41  1  0.32029247  0.02084446  0.52988682  1
