# generated using pymatgen
data_Pr2Mn3(SbS3)4
_symmetry_space_group_name_H-M   'P 1'
_cell_length_a   20.02960800
_cell_length_b   3.90410600
_cell_length_c   14.95364829
_cell_angle_alpha   90.00000000
_cell_angle_beta   126.33350609
_cell_angle_gamma   90.00000000
_symmetry_Int_Tables_number   1
_chemical_formula_structural   Pr2Mn3(SbS3)4
_chemical_formula_sum   'Pr4 Mn6 Sb8 S24'
_cell_volume   942.00006694
_cell_formula_units_Z   2
loop_
 _symmetry_equiv_pos_site_id
 _symmetry_equiv_pos_as_xyz
  1  'x, y, z'
loop_
 _atom_site_type_symbol
 _atom_site_label
 _atom_site_symmetry_multiplicity
 _atom_site_fract_x
 _atom_site_fract_y
 _atom_site_fract_z
 _atom_site_occupancy
  Pr  Pr0  1  0.26389615  0.49790573  0.86556697  1
  Pr  Pr1  1  0.73155741  0.51875179  0.13157618  1
  Pr  Pr2  1  0.77554342  0.97228155  0.88365890  1
  Pr  Pr3  1  0.24477163  0.96419912  0.14722654  1
  Mn  Mn4  1  0.27897148  0.59567492  0.58176738  1
  Mn  Mn5  1  0.70517523  0.51043606  0.39194274  1
  Mn  Mn6  1  0.98999655  0.96991893  0.97923001  1
  Mn  Mn7  1  0.78727257  0.06053309  0.58773595  1
  Mn  Mn8  1  0.18943292  0.91216411  0.39808204  1
  Mn  Mn9  1  0.51685649  0.49443643  0.01480375  1
  Sb  Sb10  1  0.89263706  0.98019227  0.45955691  1
  Sb  Sb11  1  0.10808248  0.00449732  0.55029403  1
  Sb  Sb12  1  0.02652796  0.52180117  0.80252629  1
  Sb  Sb13  1  0.96939600  0.49295104  0.18793990  1
  Sb  Sb14  1  0.40908181  0.49653678  0.46583345  1
  Sb  Sb15  1  0.60224553  0.47986753  0.56397450  1
  Sb  Sb16  1  0.52979138  0.00009102  0.81985093  1
  Sb  Sb17  1  0.46382316  0.96549371  0.18484770  1
  S  S18  1  0.93316620  0.99096903  0.78719236  1
  S  S19  1  0.07403257  0.99379332  0.20563332  1
  S  S20  1  0.40761086  0.99354259  0.97037729  1
  S  S21  1  0.59140306  0.96834010  0.02354271  1
  S  S22  1  0.18150024  0.98901923  0.90790209  1
  S  S23  1  0.82856913  0.03114163  0.10833623  1
  S  S24  1  0.10039916  0.46217279  0.65842062  1
  S  S25  1  0.89694690  0.45587980  0.34833936  1
  S  S26  1  0.73667034  0.96808368  0.31282702  1
  S  S27  1  0.25763617  0.94055465  0.69216225  1
  S  S28  1  0.16021701  0.42163236  0.45338218  1
  S  S29  1  0.83726313  0.51725789  0.54736944  1
  S  S30  1  0.44819773  0.50434329  0.82131092  1
  S  S31  1  0.56597843  0.51991339  0.19864003  1
  S  S32  1  0.92139611  0.48537618  0.98685418  1
  S  S33  1  0.08022241  0.46599703  0.00545447  1
  S  S34  1  0.67535137  0.44869412  0.88837836  1
  S  S35  1  0.34491717  0.50185666  0.11182852  1
  S  S36  1  0.60274218  0.98812811  0.67187844  1
  S  S37  1  0.43234519  0.97405380  0.37521118  1
  S  S38  1  0.25645245  0.45603740  0.29608486  1
  S  S39  1  0.76035223  0.46484806  0.66187292  1
  S  S40  1  0.65962736  0.01066251  0.43539560  1
  S  S41  1  0.32026614  0.01950047  0.52955329  1
