# generated using pymatgen
data_Pr2Mn3(SbS3)4
_symmetry_space_group_name_H-M   'P 1'
_cell_length_a   20.02960800
_cell_length_b   3.90410600
_cell_length_c   14.95364829
_cell_angle_alpha   90.00000000
_cell_angle_beta   126.33350609
_cell_angle_gamma   90.00000000
_symmetry_Int_Tables_number   1
_chemical_formula_structural   Pr2Mn3(SbS3)4
_chemical_formula_sum   'Pr4 Mn6 Sb8 S24'
_cell_volume   942.00006694
_cell_formula_units_Z   2
loop_
 _symmetry_equiv_pos_site_id
 _symmetry_equiv_pos_as_xyz
  1  'x, y, z'
loop_
 _atom_site_type_symbol
 _atom_site_label
 _atom_site_symmetry_multiplicity
 _atom_site_fract_x
 _atom_site_fract_y
 _atom_site_fract_z
 _atom_site_occupancy
  Pr  Pr0  1  0.26397360  0.49732038  0.86573907  1
  Pr  Pr1  1  0.73148443  0.51921611  0.13151298  1
  Pr  Pr2  1  0.77564832  0.97276808  0.88389275  1
  Pr  Pr3  1  0.24454571  0.96352435  0.14682172  1
  Mn  Mn4  1  0.27894580  0.59559825  0.58153183  1
  Mn  Mn5  1  0.70536537  0.50977765  0.39200751  1
  Mn  Mn6  1  0.98993662  0.96946807  0.97921549  1
  Mn  Mn7  1  0.78738106  0.06009190  0.58804524  1
  Mn  Mn8  1  0.18904888  0.91279203  0.39778500  1
  Mn  Mn9  1  0.51692351  0.49449727  0.01477599  1
  Sb  Sb10  1  0.89275926  0.97962072  0.45953957  1
  Sb  Sb11  1  0.10819053  0.00327767  0.55039289  1
  Sb  Sb12  1  0.02659859  0.52197274  0.80259163  1
  Sb  Sb13  1  0.96938007  0.49328039  0.18804400  1
  Sb  Sb14  1  0.40894384  0.49674082  0.46569095  1
  Sb  Sb15  1  0.60224588  0.48037253  0.56373072  1
  Sb  Sb16  1  0.52967500  0.00114742  0.81972653  1
  Sb  Sb17  1  0.46403811  0.96587370  0.18511437  1
  S  S18  1  0.93363848  0.99293146  0.78797363  1
  S  S19  1  0.07392074  0.99452255  0.20591536  1
  S  S20  1  0.40766343  0.99279803  0.97053656  1
  S  S21  1  0.59154545  0.96895262  0.02403635  1
  S  S22  1  0.18160443  0.99078875  0.90805008  1
  S  S23  1  0.82823314  0.03131162  0.10813176  1
  S  S24  1  0.10038399  0.46154417  0.65853567  1
  S  S25  1  0.89684660  0.45537413  0.34855329  1
  S  S26  1  0.73702711  0.96949965  0.31351538  1
  S  S27  1  0.25730307  0.94126103  0.69207120  1
  S  S28  1  0.16039971  0.42199090  0.45387827  1
  S  S29  1  0.83726228  0.51712435  0.54732178  1
  S  S30  1  0.44831489  0.50416393  0.82145591  1
  S  S31  1  0.56583878  0.52224876  0.19866768  1
  S  S32  1  0.92131223  0.48657802  0.98655819  1
  S  S33  1  0.07986133  0.46545225  0.00518335  1
  S  S34  1  0.67573788  0.44849153  0.88862920  1
  S  S35  1  0.34490270  0.50081448  0.11169777  1
  S  S36  1  0.60286258  0.98775749  0.67225319  1
  S  S37  1  0.43228918  0.97400160  0.37523955  1
  S  S38  1  0.25650077  0.45355244  0.29581194  1
  S  S39  1  0.76045701  0.46507290  0.66151317  1
  S  S40  1  0.65961770  0.00989623  0.43561924  1
  S  S41  1  0.32028014  0.01791369  0.52906795  1
