# generated using pymatgen
data_Pr2Mn3(SbS3)4
_symmetry_space_group_name_H-M   'P 1'
_cell_length_a   20.02960800
_cell_length_b   3.90410600
_cell_length_c   14.95364829
_cell_angle_alpha   90.00000000
_cell_angle_beta   126.33350609
_cell_angle_gamma   90.00000000
_symmetry_Int_Tables_number   1
_chemical_formula_structural   Pr2Mn3(SbS3)4
_chemical_formula_sum   'Pr4 Mn6 Sb8 S24'
_cell_volume   942.00006694
_cell_formula_units_Z   2
loop_
 _symmetry_equiv_pos_site_id
 _symmetry_equiv_pos_as_xyz
  1  'x, y, z'
loop_
 _atom_site_type_symbol
 _atom_site_label
 _atom_site_symmetry_multiplicity
 _atom_site_fract_x
 _atom_site_fract_y
 _atom_site_fract_z
 _atom_site_occupancy
  Pr  Pr0  1  0.26961089  0.49932986  0.86721833  1
  Pr  Pr1  1  0.73353934  0.51389740  0.13290661  1
  Pr  Pr2  1  0.76552092  0.02482510  0.86507411  1
  Pr  Pr3  1  0.23292536  0.99125168  0.13255907  1
  Mn  Mn4  1  0.29889074  0.46869700  0.60285605  1
  Mn  Mn5  1  0.68447916  0.45995606  0.36045665  1
  Mn  Mn6  1  0.00355873  0.98982837  0.01031950  1
  Mn  Mn7  1  0.79631139  0.01297780  0.61800451  1
  Mn  Mn8  1  0.19431244  0.98108419  0.36663845  1
  Mn  Mn9  1  0.48534620  0.46965554  0.98442117  1
  Sb  Sb10  1  0.88990421  0.98624452  0.44998937  1
  Sb  Sb11  1  0.11006535  0.98275715  0.54570062  1
  Sb  Sb12  1  0.03598429  0.53147096  0.82129168  1
  Sb  Sb13  1  0.96701109  0.50067244  0.18918958  1
  Sb  Sb14  1  0.39274780  0.50182920  0.44888728  1
  Sb  Sb15  1  0.60772830  0.47754390  0.54620053  1
  Sb  Sb16  1  0.53359445  0.97823288  0.80749019  1
  Sb  Sb17  1  0.46579896  0.02081718  0.18933263  1
  S  S18  1  0.93535746  0.01259214  0.80792411  1
  S  S19  1  0.06553414  0.01170433  0.19944815  1
  S  S20  1  0.41647290  0.96862362  0.98849238  1
  S  S21  1  0.58626342  0.03700704  0.01727384  1
  S  S22  1  0.17063807  0.05164764  0.90130813  1
  S  S23  1  0.82685811  0.03483461  0.10316084  1
  S  S24  1  0.08982531  0.49418306  0.64421766  1
  S  S25  1  0.91402713  0.48742337  0.35396886  1
  S  S26  1  0.74041420  0.99749680  0.30296787  1
  S  S27  1  0.25800353  0.00932705  0.70597649  1
  S  S28  1  0.16788564  0.52312762  0.43403511  1
  S  S29  1  0.81144572  0.50041855  0.53978764  1
  S  S30  1  0.43014645  0.46701497  0.79528059  1
  S  S31  1  0.55374654  0.51950465  0.18217760  1
  S  S32  1  0.92170876  0.50184458  0.99368719  1
  S  S33  1  0.08993576  0.49555898  0.02746068  1
  S  S34  1  0.66550737  0.55376946  0.89598218  1
  S  S35  1  0.32832119  0.47887245  0.09308988  1
  S  S36  1  0.58911347  0.98868014  0.65009023  1
  S  S37  1  0.39787166  0.97911158  0.34174365  1
  S  S38  1  0.24488465  0.47460850  0.31812649  1
  S  S39  1  0.75850456  0.52926140  0.68624609  1
  S  S40  1  0.66413031  0.99115147  0.44663779  1
  S  S41  1  0.33113456  0.98658894  0.55658150  1
