# generated using pymatgen
data_Pr2Mn3(SbS3)4
_symmetry_space_group_name_H-M   'P 1'
_cell_length_a   20.02960800
_cell_length_b   3.90410600
_cell_length_c   14.95364829
_cell_angle_alpha   90.00000000
_cell_angle_beta   126.33350609
_cell_angle_gamma   90.00000000
_symmetry_Int_Tables_number   1
_chemical_formula_structural   Pr2Mn3(SbS3)4
_chemical_formula_sum   'Pr4 Mn6 Sb8 S24'
_cell_volume   942.00006694
_cell_formula_units_Z   2
loop_
 _symmetry_equiv_pos_site_id
 _symmetry_equiv_pos_as_xyz
  1  'x, y, z'
loop_
 _atom_site_type_symbol
 _atom_site_label
 _atom_site_symmetry_multiplicity
 _atom_site_fract_x
 _atom_site_fract_y
 _atom_site_fract_z
 _atom_site_occupancy
  Pr  Pr0  1  0.26400712  0.49689809  0.86578384  1
  Pr  Pr1  1  0.73142233  0.51954710  0.13150023  1
  Pr  Pr2  1  0.77568041  0.97303101  0.88407634  1
  Pr  Pr3  1  0.24435330  0.96291088  0.14643689  1
  Mn  Mn4  1  0.27897058  0.59571291  0.58122568  1
  Mn  Mn5  1  0.70553834  0.50940267  0.39194511  1
  Mn  Mn6  1  0.98983035  0.96882600  0.97912136  1
  Mn  Mn7  1  0.78746056  0.06006966  0.58819271  1
  Mn  Mn8  1  0.18874814  0.91347963  0.39758649  1
  Mn  Mn9  1  0.51698141  0.49487517  0.01470168  1
  Sb  Sb10  1  0.89285523  0.97872574  0.45957347  1
  Sb  Sb11  1  0.10831027  0.00192716  0.55044345  1
  Sb  Sb12  1  0.02663888  0.52217962  0.80261165  1
  Sb  Sb13  1  0.96928497  0.49358399  0.18809662  1
  Sb  Sb14  1  0.40881233  0.49674859  0.46552568  1
  Sb  Sb15  1  0.60227135  0.48070211  0.56356249  1
  Sb  Sb16  1  0.52956534  0.00252211  0.81957529  1
  Sb  Sb17  1  0.46426960  0.96622050  0.18535951  1
  S  S18  1  0.93388883  0.99502414  0.78852494  1
  S  S19  1  0.07376966  0.99551135  0.20623302  1
  S  S20  1  0.40773762  0.99250268  0.97074452  1
  S  S21  1  0.59152095  0.97019482  0.02442926  1
  S  S22  1  0.18174054  0.99229307  0.90819614  1
  S  S23  1  0.82795141  0.03182759  0.10781565  1
  S  S24  1  0.10037938  0.46113015  0.65871693  1
  S  S25  1  0.89689894  0.45427137  0.34869580  1
  S  S26  1  0.73739310  0.97169363  0.31417071  1
  S  S27  1  0.25693749  0.94257850  0.69197296  1
  S  S28  1  0.16047468  0.42231992  0.45423031  1
  S  S29  1  0.83716567  0.51720410  0.54723538  1
  S  S30  1  0.44832578  0.50361068  0.82130888  1
  S  S31  1  0.56577658  0.52461606  0.19887158  1
  S  S32  1  0.92122846  0.48766830  0.98619394  1
  S  S33  1  0.07949262  0.46541799  0.00494398  1
  S  S34  1  0.67608198  0.44817126  0.88874884  1
  S  S35  1  0.34495648  0.50014548  0.11148994  1
  S  S36  1  0.60293902  0.98713774  0.67261094  1
  S  S37  1  0.43215317  0.97402647  0.37517984  1
  S  S38  1  0.25654377  0.45170516  0.29554551  1
  S  S39  1  0.76056191  0.46479771  0.66128255  1
  S  S40  1  0.65953352  0.00966814  0.43574290  1
  S  S41  1  0.32031411  0.01656227  0.52847710  1
