# generated using pymatgen
data_Pr2Mn3(SbS3)4
_symmetry_space_group_name_H-M   'P 1'
_cell_length_a   20.02960800
_cell_length_b   3.90410600
_cell_length_c   14.95364829
_cell_angle_alpha   90.00000000
_cell_angle_beta   126.33350609
_cell_angle_gamma   90.00000000
_symmetry_Int_Tables_number   1
_chemical_formula_structural   Pr2Mn3(SbS3)4
_chemical_formula_sum   'Pr4 Mn6 Sb8 S24'
_cell_volume   942.00006694
_cell_formula_units_Z   2
loop_
 _symmetry_equiv_pos_site_id
 _symmetry_equiv_pos_as_xyz
  1  'x, y, z'
loop_
 _atom_site_type_symbol
 _atom_site_label
 _atom_site_symmetry_multiplicity
 _atom_site_fract_x
 _atom_site_fract_y
 _atom_site_fract_z
 _atom_site_occupancy
  Pr  Pr0  1  0.26402533  0.49639209  0.86580744  1
  Pr  Pr1  1  0.73140448  0.51973930  0.13150076  1
  Pr  Pr2  1  0.77573310  0.97322620  0.88430221  1
  Pr  Pr3  1  0.24417511  0.96230919  0.14611266  1
  Mn  Mn4  1  0.27905859  0.59582617  0.58102089  1
  Mn  Mn5  1  0.70566785  0.50908394  0.39191450  1
  Mn  Mn6  1  0.98980576  0.96824048  0.97911545  1
  Mn  Mn7  1  0.78758969  0.06018265  0.58836979  1
  Mn  Mn8  1  0.18855844  0.91433025  0.39760604  1
  Mn  Mn9  1  0.51710844  0.49606440  0.01470092  1
  Sb  Sb10  1  0.89288337  0.97807781  0.45947348  1
  Sb  Sb11  1  0.10844750  0.00086313  0.55054439  1
  Sb  Sb12  1  0.02663967  0.52235397  0.80262299  1
  Sb  Sb13  1  0.96923504  0.49361106  0.18823065  1
  Sb  Sb14  1  0.40870066  0.49658787  0.46530465  1
  Sb  Sb15  1  0.60221854  0.48080391  0.56339838  1
  Sb  Sb16  1  0.52947786  0.00334945  0.81941326  1
  Sb  Sb17  1  0.46448194  0.96672981  0.18554586  1
  S  S18  1  0.93415376  0.99663822  0.78928586  1
  S  S19  1  0.07368985  0.99598077  0.20634761  1
  S  S20  1  0.40778092  0.99159983  0.97090539  1
  S  S21  1  0.59159958  0.97123767  0.02466338  1
  S  S22  1  0.18195310  0.99350443  0.90825531  1
  S  S23  1  0.82758565  0.03224839  0.10747969  1
  S  S24  1  0.10026009  0.46052047  0.65871447  1
  S  S25  1  0.89683971  0.45383921  0.34872123  1
  S  S26  1  0.73787230  0.97365707  0.31481474  1
  S  S27  1  0.25649328  0.94341760  0.69173323  1
  S  S28  1  0.16032090  0.42209426  0.45430647  1
  S  S29  1  0.83703533  0.51718482  0.54718080  1
  S  S30  1  0.44851161  0.50334594  0.82130835  1
  S  S31  1  0.56563181  0.52641523  0.19908743  1
  S  S32  1  0.92115586  0.48894556  0.98578801  1
  S  S33  1  0.07918684  0.46500285  0.00465854  1
  S  S34  1  0.67627327  0.44779486  0.88879619  1
  S  S35  1  0.34503533  0.49934019  0.11144124  1
  S  S36  1  0.60298630  0.98667001  0.67300862  1
  S  S37  1  0.43182845  0.97456276  0.37485778  1
  S  S38  1  0.25662909  0.45014281  0.29543919  1
  S  S39  1  0.76072835  0.46513860  0.66107622  1
  S  S40  1  0.65947185  0.00965508  0.43581013  1
  S  S41  1  0.32022966  0.01559059  0.52789977  1
