# generated using pymatgen
data_Pr2Mn3(SbS3)4
_symmetry_space_group_name_H-M   'P 1'
_cell_length_a   20.02960800
_cell_length_b   3.90410600
_cell_length_c   14.95364829
_cell_angle_alpha   90.00000000
_cell_angle_beta   126.33350609
_cell_angle_gamma   90.00000000
_symmetry_Int_Tables_number   1
_chemical_formula_structural   Pr2Mn3(SbS3)4
_chemical_formula_sum   'Pr4 Mn6 Sb8 S24'
_cell_volume   942.00006694
_cell_formula_units_Z   2
loop_
 _symmetry_equiv_pos_site_id
 _symmetry_equiv_pos_as_xyz
  1  'x, y, z'
loop_
 _atom_site_type_symbol
 _atom_site_label
 _atom_site_symmetry_multiplicity
 _atom_site_fract_x
 _atom_site_fract_y
 _atom_site_fract_z
 _atom_site_occupancy
  Pr  Pr0  1  0.26401205  0.49599103  0.86577218  1
  Pr  Pr1  1  0.73135719  0.52043615  0.13153157  1
  Pr  Pr2  1  0.77577069  0.97356489  0.88452030  1
  Pr  Pr3  1  0.24402583  0.96137129  0.14575849  1
  Mn  Mn4  1  0.27916738  0.59618366  0.58084033  1
  Mn  Mn5  1  0.70581372  0.50866147  0.39196830  1
  Mn  Mn6  1  0.98987050  0.96814950  0.97923331  1
  Mn  Mn7  1  0.78764975  0.06024963  0.58852237  1
  Mn  Mn8  1  0.18836206  0.91489732  0.39769664  1
  Mn  Mn9  1  0.51715923  0.49682528  0.01461683  1
  Sb  Sb10  1  0.89289577  0.97738977  0.45940274  1
  Sb  Sb11  1  0.10849738  0.99968459  0.55051124  1
  Sb  Sb12  1  0.02658464  0.52305110  0.80255045  1
  Sb  Sb13  1  0.96924069  0.49350913  0.18840977  1
  Sb  Sb14  1  0.40855399  0.49643173  0.46505885  1
  Sb  Sb15  1  0.60211028  0.48049418  0.56314020  1
  Sb  Sb16  1  0.52945053  0.00413556  0.81930324  1
  Sb  Sb17  1  0.46469965  0.96749291  0.18572535  1
  S  S18  1  0.93434846  0.99812547  0.79006603  1
  S  S19  1  0.07364321  0.99726853  0.20644260  1
  S  S20  1  0.40794590  0.99113342  0.97111563  1
  S  S21  1  0.59174966  0.97247170  0.02495206  1
  S  S22  1  0.18217463  0.99459606  0.90842547  1
  S  S23  1  0.82728360  0.03298610  0.10724703  1
  S  S24  1  0.10025415  0.46014607  0.65892551  1
  S  S25  1  0.89667009  0.45306222  0.34853985  1
  S  S26  1  0.73826316  0.97625685  0.31541517  1
  S  S27  1  0.25608549  0.94397255  0.69124648  1
  S  S28  1  0.16010511  0.42174965  0.45431318  1
  S  S29  1  0.83687559  0.51706056  0.54704922  1
  S  S30  1  0.44872735  0.50324872  0.82128014  1
  S  S31  1  0.56557532  0.52756495  0.19939389  1
  S  S32  1  0.92117010  0.49047424  0.98553765  1
  S  S33  1  0.07895682  0.46465594  0.00436963  1
  S  S34  1  0.67644862  0.44762313  0.88889159  1
  S  S35  1  0.34501588  0.49875571  0.11119038  1
  S  S36  1  0.60305527  0.98640109  0.67332748  1
  S  S37  1  0.43165375  0.97497765  0.37446954  1
  S  S38  1  0.25661503  0.44814012  0.29520462  1
  S  S39  1  0.76076839  0.46579916  0.66082288  1
  S  S40  1  0.65943210  0.01022184  0.43560593  1
  S  S41  1  0.32009756  0.01444209  0.52741074  1
