# generated using pymatgen
data_Pr2Mn3(SbS3)4
_symmetry_space_group_name_H-M   'P 1'
_cell_length_a   20.02960800
_cell_length_b   3.90410600
_cell_length_c   14.95364829
_cell_angle_alpha   90.00000000
_cell_angle_beta   126.33350609
_cell_angle_gamma   90.00000000
_symmetry_Int_Tables_number   1
_chemical_formula_structural   Pr2Mn3(SbS3)4
_chemical_formula_sum   'Pr4 Mn6 Sb8 S24'
_cell_volume   942.00006694
_cell_formula_units_Z   2
loop_
 _symmetry_equiv_pos_site_id
 _symmetry_equiv_pos_as_xyz
  1  'x, y, z'
loop_
 _atom_site_type_symbol
 _atom_site_label
 _atom_site_symmetry_multiplicity
 _atom_site_fract_x
 _atom_site_fract_y
 _atom_site_fract_z
 _atom_site_occupancy
  Pr  Pr0  1  0.26396182  0.49574415  0.86573316  1
  Pr  Pr1  1  0.73124338  0.52077051  0.13150830  1
  Pr  Pr2  1  0.77581211  0.97392446  0.88471827  1
  Pr  Pr3  1  0.24386781  0.96056522  0.14540246  1
  Mn  Mn4  1  0.27936258  0.59600945  0.58064797  1
  Mn  Mn5  1  0.70589792  0.50874839  0.39195970  1
  Mn  Mn6  1  0.98984303  0.96801544  0.97923813  1
  Mn  Mn7  1  0.78778840  0.06049371  0.58875951  1
  Mn  Mn8  1  0.18817382  0.91529232  0.39768235  1
  Mn  Mn9  1  0.51719398  0.49748287  0.01441369  1
  Sb  Sb10  1  0.89282379  0.97680313  0.45933473  1
  Sb  Sb11  1  0.10849584  0.99852440  0.55045138  1
  Sb  Sb12  1  0.02650156  0.52338210  0.80240339  1
  Sb  Sb13  1  0.96920463  0.49305066  0.18856716  1
  Sb  Sb14  1  0.40839840  0.49589674  0.46485677  1
  Sb  Sb15  1  0.60200709  0.48042324  0.56288820  1
  Sb  Sb16  1  0.52942345  0.00517609  0.81926215  1
  Sb  Sb17  1  0.46483455  0.96781849  0.18569071  1
  S  S18  1  0.93457772  0.00012015  0.79065968  1
  S  S19  1  0.07358245  0.99857010  0.20640046  1
  S  S20  1  0.40804128  0.99053960  0.97133278  1
  S  S21  1  0.59194756  0.97402402  0.02521929  1
  S  S22  1  0.18228971  0.99497584  0.90851116  1
  S  S23  1  0.82707728  0.03369045  0.10705596  1
  S  S24  1  0.10023271  0.46034652  0.65890035  1
  S  S25  1  0.89655139  0.45277586  0.34843684  1
  S  S26  1  0.73836042  0.97840244  0.31558117  1
  S  S27  1  0.25570732  0.94387945  0.69077761  1
  S  S28  1  0.15994654  0.42056506  0.45440379  1
  S  S29  1  0.83686058  0.51643399  0.54704595  1
  S  S30  1  0.44892231  0.50282882  0.82140854  1
  S  S31  1  0.56567411  0.52865353  0.19972148  1
  S  S32  1  0.92129152  0.49159514  0.98544160  1
  S  S33  1  0.07877841  0.46396710  0.00394529  1
  S  S34  1  0.67663938  0.44790546  0.88908512  1
  S  S35  1  0.34483147  0.49863293  0.11083980  1
  S  S36  1  0.60300348  0.98668129  0.67348446  1
  S  S37  1  0.43161851  0.97506263  0.37435695  1
  S  S38  1  0.25662227  0.44636247  0.29512588  1
  S  S39  1  0.76078367  0.46657282  0.66057985  1
  S  S40  1  0.65926749  0.01061539  0.43551081  1
  S  S41  1  0.31992463  0.01312481  0.52693155  1
