# generated using pymatgen
data_Pr2Mn3(SbS3)4
_symmetry_space_group_name_H-M   'P 1'
_cell_length_a   20.02960800
_cell_length_b   3.90410600
_cell_length_c   14.95364829
_cell_angle_alpha   90.00000000
_cell_angle_beta   126.33350609
_cell_angle_gamma   90.00000000
_symmetry_Int_Tables_number   1
_chemical_formula_structural   Pr2Mn3(SbS3)4
_chemical_formula_sum   'Pr4 Mn6 Sb8 S24'
_cell_volume   942.00006694
_cell_formula_units_Z   2
loop_
 _symmetry_equiv_pos_site_id
 _symmetry_equiv_pos_as_xyz
  1  'x, y, z'
loop_
 _atom_site_type_symbol
 _atom_site_label
 _atom_site_symmetry_multiplicity
 _atom_site_fract_x
 _atom_site_fract_y
 _atom_site_fract_z
 _atom_site_occupancy
  Pr  Pr0  1  0.26389237  0.49547416  0.86565152  1
  Pr  Pr1  1  0.73110876  0.52088827  0.13139010  1
  Pr  Pr2  1  0.77584623  0.97440661  0.88488929  1
  Pr  Pr3  1  0.24369525  0.95959446  0.14504146  1
  Mn  Mn4  1  0.27959186  0.59574552  0.58043365  1
  Mn  Mn5  1  0.70590440  0.50876584  0.39186081  1
  Mn  Mn6  1  0.98978831  0.96782571  0.97917969  1
  Mn  Mn7  1  0.78811168  0.06066230  0.58904410  1
  Mn  Mn8  1  0.18811530  0.91534660  0.39778631  1
  Mn  Mn9  1  0.51719674  0.49829764  0.01429393  1
  Sb  Sb10  1  0.89273936  0.97622527  0.45928272  1
  Sb  Sb11  1  0.10843600  0.99762122  0.55038794  1
  Sb  Sb12  1  0.02647152  0.52343296  0.80237646  1
  Sb  Sb13  1  0.96911278  0.49222561  0.18864835  1
  Sb  Sb14  1  0.40829716  0.49584377  0.46465480  1
  Sb  Sb15  1  0.60190106  0.48050212  0.56275593  1
  Sb  Sb16  1  0.52943054  0.00611636  0.81924421  1
  Sb  Sb17  1  0.46496807  0.96844727  0.18573298  1
  S  S18  1  0.93483630  0.00156530  0.79123313  1
  S  S19  1  0.07355677  0.99942011  0.20636215  1
  S  S20  1  0.40811642  0.98937023  0.97158051  1
  S  S21  1  0.59201747  0.97557430  0.02548619  1
  S  S22  1  0.18226984  0.99548442  0.90837902  1
  S  S23  1  0.82687231  0.03441938  0.10712646  1
  S  S24  1  0.10015041  0.46058395  0.65875606  1
  S  S25  1  0.89644458  0.45279204  0.34852498  1
  S  S26  1  0.73844056  0.98002392  0.31569509  1
  S  S27  1  0.25536593  0.94411008  0.69040247  1
  S  S28  1  0.15995825  0.42010299  0.45445343  1
  S  S29  1  0.83685064  0.51537489  0.54710773  1
  S  S30  1  0.44919906  0.50251765  0.82141140  1
  S  S31  1  0.56582274  0.52940022  0.20003183  1
  S  S32  1  0.92138471  0.49273801  0.98525928  1
  S  S33  1  0.07857624  0.46333665  0.00344537  1
  S  S34  1  0.67675747  0.44810780  0.88915463  1
  S  S35  1  0.34471209  0.49870612  0.11069115  1
  S  S36  1  0.60274993  0.98681840  0.67341859  1
  S  S37  1  0.43156577  0.97504430  0.37406958  1
  S  S38  1  0.25657694  0.44426059  0.29486807  1
  S  S39  1  0.76064265  0.46701432  0.66019636  1
  S  S40  1  0.65914520  0.01152591  0.43548290  1
  S  S41  1  0.31977270  0.01149570  0.52641919  1
