# generated using pymatgen
data_Pr2Mn3(SbS3)4
_symmetry_space_group_name_H-M   'P 1'
_cell_length_a   20.02960800
_cell_length_b   3.90410600
_cell_length_c   14.95364829
_cell_angle_alpha   90.00000000
_cell_angle_beta   126.33350609
_cell_angle_gamma   90.00000000
_symmetry_Int_Tables_number   1
_chemical_formula_structural   Pr2Mn3(SbS3)4
_chemical_formula_sum   'Pr4 Mn6 Sb8 S24'
_cell_volume   942.00006694
_cell_formula_units_Z   2
loop_
 _symmetry_equiv_pos_site_id
 _symmetry_equiv_pos_as_xyz
  1  'x, y, z'
loop_
 _atom_site_type_symbol
 _atom_site_label
 _atom_site_symmetry_multiplicity
 _atom_site_fract_x
 _atom_site_fract_y
 _atom_site_fract_z
 _atom_site_occupancy
  Pr  Pr0  1  0.26384129  0.49539031  0.86558780  1
  Pr  Pr1  1  0.73099205  0.52121368  0.13134786  1
  Pr  Pr2  1  0.77578513  0.97483234  0.88487056  1
  Pr  Pr3  1  0.24350408  0.95852243  0.14469105  1
  Mn  Mn4  1  0.27980388  0.59539028  0.58029207  1
  Mn  Mn5  1  0.70599796  0.50935664  0.39170159  1
  Mn  Mn6  1  0.98967570  0.96732251  0.97896536  1
  Mn  Mn7  1  0.78836303  0.06028957  0.58913403  1
  Mn  Mn8  1  0.18806635  0.91552788  0.39789762  1
  Mn  Mn9  1  0.51723889  0.49889080  0.01423249  1
  Sb  Sb10  1  0.89260920  0.97602676  0.45918501  1
  Sb  Sb11  1  0.10842182  0.99657004  0.55040716  1
  Sb  Sb12  1  0.02650173  0.52333396  0.80239703  1
  Sb  Sb13  1  0.96903789  0.49152611  0.18884385  1
  Sb  Sb14  1  0.40826103  0.49600413  0.46454858  1
  Sb  Sb15  1  0.60179031  0.48021198  0.56267132  1
  Sb  Sb16  1  0.52943230  0.00690719  0.81919906  1
  Sb  Sb17  1  0.46506734  0.96901704  0.18572298  1
  S  S18  1  0.93508895  0.00322371  0.79170584  1
  S  S19  1  0.07363001  0.00044480  0.20642228  1
  S  S20  1  0.40817304  0.98823295  0.97172428  1
  S  S21  1  0.59196215  0.97748419  0.02559092  1
  S  S22  1  0.18214702  0.99628730  0.90825770  1
  S  S23  1  0.82673773  0.03558253  0.10724283  1
  S  S24  1  0.09999548  0.46041575  0.65834671  1
  S  S25  1  0.89636440  0.45275566  0.34859355  1
  S  S26  1  0.73868810  0.98081831  0.31598698  1
  S  S27  1  0.25492409  0.94424617  0.68994474  1
  S  S28  1  0.15996188  0.42070341  0.45433016  1
  S  S29  1  0.83688304  0.51439092  0.54726374  1
  S  S30  1  0.44951793  0.50241721  0.82158339  1
  S  S31  1  0.56598355  0.53021696  0.20055983  1
  S  S32  1  0.92144706  0.49431468  0.98514995  1
  S  S33  1  0.07840388  0.46269735  0.00290853  1
  S  S34  1  0.67668766  0.44817475  0.88915394  1
  S  S35  1  0.34454156  0.49777223  0.11027577  1
  S  S36  1  0.60254496  0.98621478  0.67332450  1
  S  S37  1  0.43156526  0.97531484  0.37370320  1
  S  S38  1  0.25648373  0.44213610  0.29468169  1
  S  S39  1  0.76049725  0.46700063  0.65990660  1
  S  S40  1  0.65911034  0.01272184  0.43572378  1
  S  S41  1  0.31969776  0.01026472  0.52588856  1
