# generated using pymatgen
data_Pr2Mn3(SbS3)4
_symmetry_space_group_name_H-M   'P 1'
_cell_length_a   20.02960800
_cell_length_b   3.90410600
_cell_length_c   14.95364829
_cell_angle_alpha   90.00000000
_cell_angle_beta   126.33350609
_cell_angle_gamma   90.00000000
_symmetry_Int_Tables_number   1
_chemical_formula_structural   Pr2Mn3(SbS3)4
_chemical_formula_sum   'Pr4 Mn6 Sb8 S24'
_cell_volume   942.00006694
_cell_formula_units_Z   2
loop_
 _symmetry_equiv_pos_site_id
 _symmetry_equiv_pos_as_xyz
  1  'x, y, z'
loop_
 _atom_site_type_symbol
 _atom_site_label
 _atom_site_symmetry_multiplicity
 _atom_site_fract_x
 _atom_site_fract_y
 _atom_site_fract_z
 _atom_site_occupancy
  Pr  Pr0  1  0.26376102  0.49522931  0.86543413  1
  Pr  Pr1  1  0.73091542  0.52168222  0.13128762  1
  Pr  Pr2  1  0.77571583  0.97522529  0.88482438  1
  Pr  Pr3  1  0.24338410  0.95767845  0.14432513  1
  Mn  Mn4  1  0.28009205  0.59470394  0.58028412  1
  Mn  Mn5  1  0.70618490  0.51006048  0.39172864  1
  Mn  Mn6  1  0.98950799  0.96735335  0.97862026  1
  Mn  Mn7  1  0.78847021  0.05981478  0.58930419  1
  Mn  Mn8  1  0.18798477  0.91603217  0.39797180  1
  Mn  Mn9  1  0.51729505  0.49934411  0.01415578  1
  Sb  Sb10  1  0.89240779  0.97556437  0.45910253  1
  Sb  Sb11  1  0.10844279  0.99537345  0.55046599  1
  Sb  Sb12  1  0.02647652  0.52295296  0.80236982  1
  Sb  Sb13  1  0.96896873  0.49066974  0.18905069  1
  Sb  Sb14  1  0.40812120  0.49610931  0.46438205  1
  Sb  Sb15  1  0.60171976  0.47986450  0.56249761  1
  Sb  Sb16  1  0.52941989  0.00741811  0.81915851  1
  Sb  Sb17  1  0.46515005  0.96951042  0.18574617  1
  S  S18  1  0.93512660  0.00484136  0.79180718  1
  S  S19  1  0.07388297  0.00181501  0.20659890  1
  S  S20  1  0.40840156  0.98700018  0.97197220  1
  S  S21  1  0.59188974  0.97960483  0.02585464  1
  S  S22  1  0.18213684  0.99759429  0.90832267  1
  S  S23  1  0.82658240  0.03648060  0.10732843  1
  S  S24  1  0.09985025  0.46028192  0.65790915  1
  S  S25  1  0.89616358  0.45282217  0.34845604  1
  S  S26  1  0.73897577  0.98150037  0.31620537  1
  S  S27  1  0.25457257  0.94434964  0.68956189  1
  S  S28  1  0.16016270  0.42096168  0.45422779  1
  S  S29  1  0.83695327  0.51330304  0.54750676  1
  S  S30  1  0.44981697  0.50202341  0.82153686  1
  S  S31  1  0.56598211  0.52997139  0.20098785  1
  S  S32  1  0.92141106  0.49563924  0.98513298  1
  S  S33  1  0.07807356  0.46181209  0.00238740  1
  S  S34  1  0.67659023  0.44866490  0.88915000  1
  S  S35  1  0.34438564  0.49702753  0.10994956  1
  S  S36  1  0.60225356  0.98564701  0.67295718  1
  S  S37  1  0.43147514  0.97568288  0.37327239  1
  S  S38  1  0.25632194  0.44060078  0.29441108  1
  S  S39  1  0.76048415  0.46682849  0.65979704  1
  S  S40  1  0.65916710  0.01318780  0.43584934  1
  S  S41  1  0.31962994  0.00931545  0.52531498  1
