# generated using pymatgen
data_Pr2Mn3(SbS3)4
_symmetry_space_group_name_H-M   'P 1'
_cell_length_a   20.02960800
_cell_length_b   3.90410600
_cell_length_c   14.95364829
_cell_angle_alpha   90.00000000
_cell_angle_beta   126.33350609
_cell_angle_gamma   90.00000000
_symmetry_Int_Tables_number   1
_chemical_formula_structural   Pr2Mn3(SbS3)4
_chemical_formula_sum   'Pr4 Mn6 Sb8 S24'
_cell_volume   942.00006694
_cell_formula_units_Z   2
loop_
 _symmetry_equiv_pos_site_id
 _symmetry_equiv_pos_as_xyz
  1  'x, y, z'
loop_
 _atom_site_type_symbol
 _atom_site_label
 _atom_site_symmetry_multiplicity
 _atom_site_fract_x
 _atom_site_fract_y
 _atom_site_fract_z
 _atom_site_occupancy
  Pr  Pr0  1  0.26367531  0.49542324  0.86518586  1
  Pr  Pr1  1  0.73084456  0.52231092  0.13119181  1
  Pr  Pr2  1  0.77561897  0.97564110  0.88474613  1
  Pr  Pr3  1  0.24321111  0.95688353  0.14392884  1
  Mn  Mn4  1  0.28039385  0.59464525  0.58034437  1
  Mn  Mn5  1  0.70630043  0.51057876  0.39164530  1
  Mn  Mn6  1  0.98933229  0.96739944  0.97838337  1
  Mn  Mn7  1  0.78856229  0.05933564  0.58946514  1
  Mn  Mn8  1  0.18780210  0.91664744  0.39795931  1
  Mn  Mn9  1  0.51737536  0.49976722  0.01401152  1
  Sb  Sb10  1  0.89223909  0.97532385  0.45901897  1
  Sb  Sb11  1  0.10840734  0.99390780  0.55044321  1
  Sb  Sb12  1  0.02646772  0.52215376  0.80228100  1
  Sb  Sb13  1  0.96883517  0.48988923  0.18913744  1
  Sb  Sb14  1  0.40804184  0.49602756  0.46420800  1
  Sb  Sb15  1  0.60168900  0.47944031  0.56239895  1
  Sb  Sb16  1  0.52932873  0.00808088  0.81911816  1
  Sb  Sb17  1  0.46515793  0.96966810  0.18565128  1
  S  S18  1  0.93504524  0.00565017  0.79184270  1
  S  S19  1  0.07412423  0.00261785  0.20664889  1
  S  S20  1  0.40877666  0.98546692  0.97227048  1
  S  S21  1  0.59193560  0.98121594  0.02620308  1
  S  S22  1  0.18212829  0.99890002  0.90839346  1
  S  S23  1  0.82640606  0.03681316  0.10730952  1
  S  S24  1  0.09975294  0.45978085  0.65771069  1
  S  S25  1  0.89599386  0.45299946  0.34842279  1
  S  S26  1  0.73928876  0.98200885  0.31638208  1
  S  S27  1  0.25431104  0.94462746  0.68915125  1
  S  S28  1  0.16030480  0.42071988  0.45393411  1
  S  S29  1  0.83700701  0.51212181  0.54758773  1
  S  S30  1  0.45006984  0.50159418  0.82170145  1
  S  S31  1  0.56603959  0.52955214  0.20140362  1
  S  S32  1  0.92137090  0.49721724  0.98497074  1
  S  S33  1  0.07764001  0.46110891  0.00155964  1
  S  S34  1  0.67632647  0.44918230  0.88912914  1
  S  S35  1  0.34413033  0.49649399  0.10970600  1
  S  S36  1  0.60218897  0.98498865  0.67255212  1
  S  S37  1  0.43154499  0.97619448  0.37288722  1
  S  S38  1  0.25621545  0.43966841  0.29418121  1
  S  S39  1  0.76059066  0.46733650  0.66003652  1
  S  S40  1  0.65909956  0.01341940  0.43576156  1
  S  S41  1  0.31937952  0.00813800  0.52460961  1
