# generated using pymatgen
data_Pr2Mn3(SbS3)4
_symmetry_space_group_name_H-M   'P 1'
_cell_length_a   20.02960800
_cell_length_b   3.90410600
_cell_length_c   14.95364829
_cell_angle_alpha   90.00000000
_cell_angle_beta   126.33350609
_cell_angle_gamma   90.00000000
_symmetry_Int_Tables_number   1
_chemical_formula_structural   Pr2Mn3(SbS3)4
_chemical_formula_sum   'Pr4 Mn6 Sb8 S24'
_cell_volume   942.00006694
_cell_formula_units_Z   2
loop_
 _symmetry_equiv_pos_site_id
 _symmetry_equiv_pos_as_xyz
  1  'x, y, z'
loop_
 _atom_site_type_symbol
 _atom_site_label
 _atom_site_symmetry_multiplicity
 _atom_site_fract_x
 _atom_site_fract_y
 _atom_site_fract_z
 _atom_site_occupancy
  Pr  Pr0  1  0.26357215  0.49588566  0.86489469  1
  Pr  Pr1  1  0.73071543  0.52295791  0.13109855  1
  Pr  Pr2  1  0.77552886  0.97624668  0.88465286  1
  Pr  Pr3  1  0.24306396  0.95605662  0.14362952  1
  Mn  Mn4  1  0.28069269  0.59401287  0.58032541  1
  Mn  Mn5  1  0.70634791  0.51116802  0.39140260  1
  Mn  Mn6  1  0.98912423  0.96742903  0.97824794  1
  Mn  Mn7  1  0.78861479  0.05887805  0.58954248  1
  Mn  Mn8  1  0.18771408  0.91736689  0.39794737  1
  Mn  Mn9  1  0.51748194  0.50015136  0.01387172  1
  Sb  Sb10  1  0.89215588  0.97535897  0.45894815  1
  Sb  Sb11  1  0.10842567  0.99237107  0.55042110  1
  Sb  Sb12  1  0.02650481  0.52174594  0.80226654  1
  Sb  Sb13  1  0.96869637  0.48936619  0.18928267  1
  Sb  Sb14  1  0.40799212  0.49600747  0.46403099  1
  Sb  Sb15  1  0.60155735  0.47891939  0.56223837  1
  Sb  Sb16  1  0.52920982  0.00877981  0.81905311  1
  Sb  Sb17  1  0.46515303  0.96981505  0.18560690  1
  S  S18  1  0.93502614  0.00653083  0.79186685  1
  S  S19  1  0.07420325  0.00320349  0.20677007  1
  S  S20  1  0.40910600  0.98386928  0.97257610  1
  S  S21  1  0.59203942  0.98258717  0.02649753  1
  S  S22  1  0.18226736  0.00057061  0.90848972  1
  S  S23  1  0.82622556  0.03729350  0.10729733  1
  S  S24  1  0.09944565  0.45921686  0.65764283  1
  S  S25  1  0.89584670  0.45309105  0.34835347  1
  S  S26  1  0.73970856  0.98176593  0.31667078  1
  S  S27  1  0.25419749  0.94494816  0.68880990  1
  S  S28  1  0.16030410  0.42075466  0.45360641  1
  S  S29  1  0.83690159  0.51156541  0.54759871  1
  S  S30  1  0.45027281  0.50144403  0.82203275  1
  S  S31  1  0.56597220  0.52973770  0.20160583  1
  S  S32  1  0.92145541  0.49870202  0.98499408  1
  S  S33  1  0.07719927  0.46030641  0.00085234  1
  S  S34  1  0.67612116  0.44964077  0.88903080  1
  S  S35  1  0.34388940  0.49581054  0.10946409  1
  S  S36  1  0.60212133  0.98445546  0.67229384  1
  S  S37  1  0.43171336  0.97641274  0.37270663  1
  S  S38  1  0.25616477  0.43914205  0.29405128  1
  S  S39  1  0.76076482  0.46853900  0.66044596  1
  S  S40  1  0.65906653  0.01389729  0.43572114  1
  S  S41  1  0.31925824  0.00648187  0.52400195  1
