# generated using pymatgen
data_Pr2Mn3(SbS3)4
_symmetry_space_group_name_H-M   'P 1'
_cell_length_a   20.02960800
_cell_length_b   3.90410600
_cell_length_c   14.95364829
_cell_angle_alpha   90.00000000
_cell_angle_beta   126.33350609
_cell_angle_gamma   90.00000000
_symmetry_Int_Tables_number   1
_chemical_formula_structural   Pr2Mn3(SbS3)4
_chemical_formula_sum   'Pr4 Mn6 Sb8 S24'
_cell_volume   942.00006694
_cell_formula_units_Z   2
loop_
 _symmetry_equiv_pos_site_id
 _symmetry_equiv_pos_as_xyz
  1  'x, y, z'
loop_
 _atom_site_type_symbol
 _atom_site_label
 _atom_site_symmetry_multiplicity
 _atom_site_fract_x
 _atom_site_fract_y
 _atom_site_fract_z
 _atom_site_occupancy
  Pr  Pr0  1  0.26348985  0.49641547  0.86464664  1
  Pr  Pr1  1  0.73058065  0.52344662  0.13097100  1
  Pr  Pr2  1  0.77541559  0.97682106  0.88456204  1
  Pr  Pr3  1  0.24289176  0.95556215  0.14335523  1
  Mn  Mn4  1  0.28087988  0.59359210  0.58027408  1
  Mn  Mn5  1  0.70647027  0.51137858  0.39127416  1
  Mn  Mn6  1  0.98888028  0.96764293  0.97816310  1
  Mn  Mn7  1  0.78871149  0.05819661  0.58966093  1
  Mn  Mn8  1  0.18769674  0.91781973  0.39791534  1
  Mn  Mn9  1  0.51751037  0.50118704  0.01371970  1
  Sb  Sb10  1  0.89213217  0.97501702  0.45897504  1
  Sb  Sb11  1  0.10849050  0.99107797  0.55044795  1
  Sb  Sb12  1  0.02644513  0.52145338  0.80226951  1
  Sb  Sb13  1  0.96854925  0.48893385  0.18938396  1
  Sb  Sb14  1  0.40799492  0.49591975  0.46389404  1
  Sb  Sb15  1  0.60142324  0.47818723  0.56218154  1
  Sb  Sb16  1  0.52901484  0.00949904  0.81893051  1
  Sb  Sb17  1  0.46509200  0.97016506  0.18558733  1
  S  S18  1  0.93495954  0.00737444  0.79183007  1
  S  S19  1  0.07424405  0.00333945  0.20684612  1
  S  S20  1  0.40944684  0.98161009  0.97281496  1
  S  S21  1  0.59224686  0.98337587  0.02697662  1
  S  S22  1  0.18226872  0.00206618  0.90854887  1
  S  S23  1  0.82610245  0.03767384  0.10715949  1
  S  S24  1  0.09927137  0.45861612  0.65772972  1
  S  S25  1  0.89570628  0.45365391  0.34830588  1
  S  S26  1  0.74001403  0.98192614  0.31678460  1
  S  S27  1  0.25417502  0.94447604  0.68867014  1
  S  S28  1  0.16043417  0.42076630  0.45318036  1
  S  S29  1  0.83693657  0.51127824  0.54764146  1
  S  S30  1  0.45043920  0.50103020  0.82237303  1
  S  S31  1  0.56590445  0.52966155  0.20206982  1
  S  S32  1  0.92157628  0.49968550  0.98512154  1
  S  S33  1  0.07672648  0.45953400  0.00032645  1
  S  S34  1  0.67595191  0.45021928  0.88892034  1
  S  S35  1  0.34356329  0.49496731  0.10909482  1
  S  S36  1  0.60222019  0.98390309  0.67216395  1
  S  S37  1  0.43183126  0.97681500  0.37255622  1
  S  S38  1  0.25617719  0.43851436  0.29394786  1
  S  S39  1  0.76112331  0.46931573  0.66110783  1
  S  S40  1  0.65902459  0.01465144  0.43563536  1
  S  S41  1  0.31913907  0.00507484  0.52351009  1
