# generated using pymatgen
data_Pr2Mn3(SbS3)4
_symmetry_space_group_name_H-M   'P 1'
_cell_length_a   20.02960800
_cell_length_b   3.90410600
_cell_length_c   14.95364829
_cell_angle_alpha   90.00000000
_cell_angle_beta   126.33350609
_cell_angle_gamma   90.00000000
_symmetry_Int_Tables_number   1
_chemical_formula_structural   Pr2Mn3(SbS3)4
_chemical_formula_sum   'Pr4 Mn6 Sb8 S24'
_cell_volume   942.00006694
_cell_formula_units_Z   2
loop_
 _symmetry_equiv_pos_site_id
 _symmetry_equiv_pos_as_xyz
  1  'x, y, z'
loop_
 _atom_site_type_symbol
 _atom_site_label
 _atom_site_symmetry_multiplicity
 _atom_site_fract_x
 _atom_site_fract_y
 _atom_site_fract_z
 _atom_site_occupancy
  Pr  Pr0  1  0.26142194  0.49511811  0.86591574  1
  Pr  Pr1  1  0.74016589  0.50269998  0.13709681  1
  Pr  Pr2  1  0.76054775  0.00736366  0.86144152  1
  Pr  Pr3  1  0.23998489  0.99157279  0.13851365  1
  Mn  Mn4  1  0.29937084  0.50480335  0.62038489  1
  Mn  Mn5  1  0.69773566  0.49796356  0.38014270  1
  Mn  Mn6  1  0.00145435  0.00189389  0.00131151  1
  Mn  Mn7  1  0.80299123  0.99415962  0.61908069  1
  Mn  Mn8  1  0.19911178  0.98930169  0.37891831  1
  Mn  Mn9  1  0.50043813  0.48576399  0.00058255  1
  Sb  Sb10  1  0.89498566  0.00802455  0.45437941  1
  Sb  Sb11  1  0.10684717  0.99114554  0.55020363  1
  Sb  Sb12  1  0.03786099  0.48976925  0.81439011  1
  Sb  Sb13  1  0.96242067  0.50052045  0.18807137  1
  Sb  Sb14  1  0.39416180  0.49001886  0.45510212  1
  Sb  Sb15  1  0.60612552  0.49773686  0.54829543  1
  Sb  Sb16  1  0.53780974  0.99967958  0.81377246  1
  Sb  Sb17  1  0.46295773  0.99828245  0.18427038  1
  S  S18  1  0.93867095  0.98971602  0.79775478  1
  S  S19  1  0.05766300  0.99305980  0.19315257  1
  S  S20  1  0.40289701  0.98003152  0.98003250  1
  S  S21  1  0.59717566  0.99475660  0.01777467  1
  S  S22  1  0.16896822  0.98534795  0.90113527  1
  S  S23  1  0.82791755  0.00282181  0.10479016  1
  S  S24  1  0.08840937  0.49059843  0.64745358  1
  S  S25  1  0.91059333  0.48171637  0.35114317  1
  S  S26  1  0.74421112  0.97585254  0.29577713  1
  S  S27  1  0.25595020  0.00877822  0.70046031  1
  S  S28  1  0.15943118  0.49408226  0.44753463  1
  S  S29  1  0.83423508  0.49347246  0.54714484  1
  S  S30  1  0.43764061  0.49934881  0.79771204  1
  S  S31  1  0.56137666  0.49083957  0.19874297  1
  S  S32  1  0.90204392  0.47968780  0.97844589  1
  S  S33  1  0.09288103  0.48719274  0.01845703  1
  S  S34  1  0.66535129  0.51370938  0.89572121  1
  S  S35  1  0.33402000  0.50527920  0.10642688  1
  S  S36  1  0.59101648  0.01584210  0.64909320  1
  S  S37  1  0.41376619  0.98893406  0.35791088  1
  S  S38  1  0.24261403  0.47812434  0.29313042  1
  S  S39  1  0.76375083  0.50155304  0.70593404  1
  S  S40  1  0.66129761  0.00174841  0.45851426  1
  S  S41  1  0.33867850  0.99058326  0.54322101  1
