# generated using pymatgen
data_Pr2Mn3(SbS3)4
_symmetry_space_group_name_H-M   'P 1'
_cell_length_a   20.02960800
_cell_length_b   3.90410600
_cell_length_c   14.95364829
_cell_angle_alpha   90.00000000
_cell_angle_beta   126.33350609
_cell_angle_gamma   90.00000000
_symmetry_Int_Tables_number   1
_chemical_formula_structural   Pr2Mn3(SbS3)4
_chemical_formula_sum   'Pr4 Mn6 Sb8 S24'
_cell_volume   942.00006694
_cell_formula_units_Z   2
loop_
 _symmetry_equiv_pos_site_id
 _symmetry_equiv_pos_as_xyz
  1  'x, y, z'
loop_
 _atom_site_type_symbol
 _atom_site_label
 _atom_site_symmetry_multiplicity
 _atom_site_fract_x
 _atom_site_fract_y
 _atom_site_fract_z
 _atom_site_occupancy
  Pr  Pr0  1  0.26969438  0.49966763  0.86730682  1
  Pr  Pr1  1  0.73346002  0.51382073  0.13293679  1
  Pr  Pr2  1  0.76554296  0.02527361  0.86521163  1
  Pr  Pr3  1  0.23283057  0.99103520  0.13241146  1
  Mn  Mn4  1  0.29905051  0.46904069  0.60324826  1
  Mn  Mn5  1  0.68438835  0.46048739  0.36052878  1
  Mn  Mn6  1  0.00331026  0.98958783  0.01023435  1
  Mn  Mn7  1  0.79624526  0.01343786  0.61793875  1
  Mn  Mn8  1  0.19421897  0.98127641  0.36655619  1
  Mn  Mn9  1  0.48515189  0.46956096  0.98459313  1
  Sb  Sb10  1  0.88995366  0.98611635  0.44985856  1
  Sb  Sb11  1  0.11002658  0.98275802  0.54578089  1
  Sb  Sb12  1  0.03592038  0.53199128  0.82124620  1
  Sb  Sb13  1  0.96700338  0.50032434  0.18913522  1
  Sb  Sb14  1  0.39289872  0.50126483  0.44897643  1
  Sb  Sb15  1  0.60792119  0.47783057  0.54625925  1
  Sb  Sb16  1  0.53348939  0.97798355  0.80740289  1
  Sb  Sb17  1  0.46570429  0.02095643  0.18919267  1
  S  S18  1  0.93541222  0.01382553  0.80813006  1
  S  S19  1  0.06570849  0.01300434  0.20034589  1
  S  S20  1  0.41653608  0.96961291  0.98824152  1
  S  S21  1  0.58628550  0.03802025  0.01715239  1
  S  S22  1  0.17053053  0.05108752  0.90126296  1
  S  S23  1  0.82680700  0.03408600  0.10327839  1
  S  S24  1  0.08976708  0.49453697  0.64420519  1
  S  S25  1  0.91401136  0.48646644  0.35385861  1
  S  S26  1  0.74025920  0.99780795  0.30255217  1
  S  S27  1  0.25758884  0.00933193  0.70531634  1
  S  S28  1  0.16802738  0.52248071  0.43445156  1
  S  S29  1  0.81116666  0.50067699  0.53933084  1
  S  S30  1  0.43016357  0.46727752  0.79539871  1
  S  S31  1  0.55356016  0.51933198  0.18202624  1
  S  S32  1  0.92190490  0.50160381  0.99414768  1
  S  S33  1  0.08978897  0.49598724  0.02726339  1
  S  S34  1  0.66551341  0.55445996  0.89600344  1
  S  S35  1  0.32856044  0.47906986  0.09329343  1
  S  S36  1  0.58893817  0.98821731  0.64992971  1
  S  S37  1  0.39784208  0.97900221  0.34145669  1
  S  S38  1  0.24518575  0.47492753  0.31822588  1
  S  S39  1  0.75848484  0.52951089  0.68627796  1
  S  S40  1  0.66415140  0.99131366  0.44653588  1
  S  S41  1  0.33119947  0.98693209  0.55677630  1
