# generated using pymatgen
data_Pr2Mn3(SbS3)4
_symmetry_space_group_name_H-M   'P 1'
_cell_length_a   20.02960800
_cell_length_b   3.90410600
_cell_length_c   14.95364829
_cell_angle_alpha   90.00000000
_cell_angle_beta   126.33350609
_cell_angle_gamma   90.00000000
_symmetry_Int_Tables_number   1
_chemical_formula_structural   Pr2Mn3(SbS3)4
_chemical_formula_sum   'Pr4 Mn6 Sb8 S24'
_cell_volume   942.00006694
_cell_formula_units_Z   2
loop_
 _symmetry_equiv_pos_site_id
 _symmetry_equiv_pos_as_xyz
  1  'x, y, z'
loop_
 _atom_site_type_symbol
 _atom_site_label
 _atom_site_symmetry_multiplicity
 _atom_site_fract_x
 _atom_site_fract_y
 _atom_site_fract_z
 _atom_site_occupancy
  Pr  Pr0  1  0.26346046  0.49694352  0.86444739  1
  Pr  Pr1  1  0.73048307  0.52422956  0.13083425  1
  Pr  Pr2  1  0.77525800  0.97724623  0.88436329  1
  Pr  Pr3  1  0.24264789  0.95492354  0.14300520  1
  Mn  Mn4  1  0.28100609  0.59340002  0.58011377  1
  Mn  Mn5  1  0.70651854  0.51169163  0.39105879  1
  Mn  Mn6  1  0.98860842  0.96706500  0.97816713  1
  Mn  Mn7  1  0.78879490  0.05796559  0.58975595  1
  Mn  Mn8  1  0.18758087  0.91838618  0.39769346  1
  Mn  Mn9  1  0.51765640  0.50201696  0.01373502  1
  Sb  Sb10  1  0.89200430  0.97497625  0.45896072  1
  Sb  Sb11  1  0.10853593  0.98998498  0.55048338  1
  Sb  Sb12  1  0.02642706  0.52136677  0.80230038  1
  Sb  Sb13  1  0.96841563  0.48884999  0.18948056  1
  Sb  Sb14  1  0.40802386  0.49575341  0.46381460  1
  Sb  Sb15  1  0.60134084  0.47728834  0.56220199  1
  Sb  Sb16  1  0.52885869  0.00987686  0.81876724  1
  Sb  Sb17  1  0.46510704  0.97038372  0.18558990  1
  S  S18  1  0.93489992  0.00826354  0.79180837  1
  S  S19  1  0.07421655  0.00286634  0.20692325  1
  S  S20  1  0.40984148  0.97974041  0.97309721  1
  S  S21  1  0.59251573  0.98452788  0.02735285  1
  S  S22  1  0.18238143  0.00282396  0.90877387  1
  S  S23  1  0.82582603  0.03707442  0.10666095  1
  S  S24  1  0.09912923  0.45831560  0.65777697  1
  S  S25  1  0.89547696  0.45481067  0.34804706  1
  S  S26  1  0.74017375  0.98246743  0.31683639  1
  S  S27  1  0.25427686  0.94387206  0.68859256  1
  S  S28  1  0.16054469  0.42115322  0.45268430  1
  S  S29  1  0.83689326  0.51036011  0.54776285  1
  S  S30  1  0.45062225  0.50016934  0.82261784  1
  S  S31  1  0.56586580  0.53044882  0.20248847  1
  S  S32  1  0.92162594  0.50061956  0.98529098  1
  S  S33  1  0.07617829  0.45862821  0.99969695  1
  S  S34  1  0.67573421  0.45107253  0.88876673  1
  S  S35  1  0.34317144  0.49463928  0.10881046  1
  S  S36  1  0.60214516  0.98335790  0.67187217  1
  S  S37  1  0.43198239  0.97693393  0.37250128  1
  S  S38  1  0.25615183  0.43766087  0.29374972  1
  S  S39  1  0.76140040  0.46931744  0.66168377  1
  S  S40  1  0.65898634  0.01478431  0.43560718  1
  S  S41  1  0.31915791  0.00377735  0.52326747  1
