# generated using pymatgen
data_Pr2Mn3(SbS3)4
_symmetry_space_group_name_H-M   'P 1'
_cell_length_a   20.02960800
_cell_length_b   3.90410600
_cell_length_c   14.95364829
_cell_angle_alpha   90.00000000
_cell_angle_beta   126.33350609
_cell_angle_gamma   90.00000000
_symmetry_Int_Tables_number   1
_chemical_formula_structural   Pr2Mn3(SbS3)4
_chemical_formula_sum   'Pr4 Mn6 Sb8 S24'
_cell_volume   942.00006694
_cell_formula_units_Z   2
loop_
 _symmetry_equiv_pos_site_id
 _symmetry_equiv_pos_as_xyz
  1  'x, y, z'
loop_
 _atom_site_type_symbol
 _atom_site_label
 _atom_site_symmetry_multiplicity
 _atom_site_fract_x
 _atom_site_fract_y
 _atom_site_fract_z
 _atom_site_occupancy
  Pr  Pr0  1  0.26340173  0.49751610  0.86428768  1
  Pr  Pr1  1  0.73040914  0.52518469  0.13066823  1
  Pr  Pr2  1  0.77508481  0.97734629  0.88417880  1
  Pr  Pr3  1  0.24242775  0.95432587  0.14272163  1
  Mn  Mn4  1  0.28112006  0.59345943  0.57985116  1
  Mn  Mn5  1  0.70649535  0.51179347  0.39092835  1
  Mn  Mn6  1  0.98835534  0.96662381  0.97827605  1
  Mn  Mn7  1  0.78884394  0.05804005  0.58990599  1
  Mn  Mn8  1  0.18746700  0.91899202  0.39744059  1
  Mn  Mn9  1  0.51777727  0.50247027  0.01387649  1
  Sb  Sb10  1  0.89188325  0.97475988  0.45893239  1
  Sb  Sb11  1  0.10859950  0.98909745  0.55050300  1
  Sb  Sb12  1  0.02643184  0.52147891  0.80236375  1
  Sb  Sb13  1  0.96827248  0.48882554  0.18954264  1
  Sb  Sb14  1  0.40806308  0.49583323  0.46372272  1
  Sb  Sb15  1  0.60126277  0.47650815  0.56217184  1
  Sb  Sb16  1  0.52876011  0.01009722  0.81866135  1
  Sb  Sb17  1  0.46520536  0.97058773  0.18568970  1
  S  S18  1  0.93477861  0.00816398  0.79162061  1
  S  S19  1  0.07409564  0.00248142  0.20705497  1
  S  S20  1  0.41026079  0.97776198  0.97367656  1
  S  S21  1  0.59277884  0.98611818  0.02754037  1
  S  S22  1  0.18260876  0.00318205  0.90905056  1
  S  S23  1  0.82562592  0.03629646  0.10640313  1
  S  S24  1  0.09910196  0.45711849  0.65795406  1
  S  S25  1  0.89528177  0.45633557  0.34783593  1
  S  S26  1  0.74046791  0.98272092  0.31707567  1
  S  S27  1  0.25442734  0.94298495  0.68875363  1
  S  S28  1  0.16072982  0.42146312  0.45242714  1
  S  S29  1  0.83696256  0.51000534  0.54774216  1
  S  S30  1  0.45075651  0.49880467  0.82287731  1
  S  S31  1  0.56593717  0.53176439  0.20273912  1
  S  S32  1  0.92163770  0.50074038  0.98540987  1
  S  S33  1  0.07572940  0.45711767  0.99934916  1
  S  S34  1  0.67557547  0.45220596  0.88852447  1
  S  S35  1  0.34278342  0.49428040  0.10866425  1
  S  S36  1  0.60216180  0.98354360  0.67164074  1
  S  S37  1  0.43211309  0.97686695  0.37236038  1
  S  S38  1  0.25611423  0.43741306  0.29355874  1
  S  S39  1  0.76163740  0.46928141  0.66233647  1
  S  S40  1  0.65898723  0.01450136  0.43552107  1
  S  S41  1  0.31902887  0.00233444  0.52279424  1
