# generated using pymatgen
data_Pr2Mn3(SbS3)4
_symmetry_space_group_name_H-M   'P 1'
_cell_length_a   20.02960800
_cell_length_b   3.90410600
_cell_length_c   14.95364829
_cell_angle_alpha   90.00000000
_cell_angle_beta   126.33350609
_cell_angle_gamma   90.00000000
_symmetry_Int_Tables_number   1
_chemical_formula_structural   Pr2Mn3(SbS3)4
_chemical_formula_sum   'Pr4 Mn6 Sb8 S24'
_cell_volume   942.00006694
_cell_formula_units_Z   2
loop_
 _symmetry_equiv_pos_site_id
 _symmetry_equiv_pos_as_xyz
  1  'x, y, z'
loop_
 _atom_site_type_symbol
 _atom_site_label
 _atom_site_symmetry_multiplicity
 _atom_site_fract_x
 _atom_site_fract_y
 _atom_site_fract_z
 _atom_site_occupancy
  Pr  Pr0  1  0.26336242  0.49810914  0.86418031  1
  Pr  Pr1  1  0.73037134  0.52599420  0.13049624  1
  Pr  Pr2  1  0.77494554  0.97763745  0.88405134  1
  Pr  Pr3  1  0.24229899  0.95402559  0.14248335  1
  Mn  Mn4  1  0.28114246  0.59338577  0.57956769  1
  Mn  Mn5  1  0.70649912  0.51189021  0.39084972  1
  Mn  Mn6  1  0.98818249  0.96649859  0.97840983  1
  Mn  Mn7  1  0.78891902  0.05833440  0.59003394  1
  Mn  Mn8  1  0.18736036  0.91955671  0.39710235  1
  Mn  Mn9  1  0.51793535  0.50304396  0.01389550  1
  Sb  Sb10  1  0.89179046  0.97446461  0.45888586  1
  Sb  Sb11  1  0.10867123  0.98816434  0.55055139  1
  Sb  Sb12  1  0.02644386  0.52183672  0.80245244  1
  Sb  Sb13  1  0.96819326  0.48864102  0.18961528  1
  Sb  Sb14  1  0.40806378  0.49567697  0.46361031  1
  Sb  Sb15  1  0.60118192  0.47581261  0.56217320  1
  Sb  Sb16  1  0.52858061  0.01049291  0.81849671  1
  Sb  Sb17  1  0.46525000  0.97099628  0.18580961  1
  S  S18  1  0.93483951  0.00790370  0.79171705  1
  S  S19  1  0.07393965  0.00143558  0.20711788  1
  S  S20  1  0.41080885  0.97597807  0.97423737  1
  S  S21  1  0.59292422  0.98786236  0.02767218  1
  S  S22  1  0.18284020  0.00434666  0.90940242  1
  S  S23  1  0.82528850  0.03529656  0.10584085  1
  S  S24  1  0.09893814  0.45635797  0.65796772  1
  S  S25  1  0.89499416  0.45832068  0.34745914  1
  S  S26  1  0.74080052  0.98282764  0.31736237  1
  S  S27  1  0.25475055  0.94226037  0.68914915  1
  S  S28  1  0.16077524  0.42201696  0.45215231  1
  S  S29  1  0.83704606  0.51006655  0.54771288  1
  S  S30  1  0.45102007  0.49725684  0.82312589  1
  S  S31  1  0.56598886  0.53239594  0.20301660  1
  S  S32  1  0.92162492  0.49997945  0.98570708  1
  S  S33  1  0.07519684  0.45550083  0.99896896  1
  S  S34  1  0.67534623  0.45372259  0.88824332  1
  S  S35  1  0.34237166  0.49383833  0.10854600  1
  S  S36  1  0.60211266  0.98392150  0.67143770  1
  S  S37  1  0.43223962  0.97732962  0.37221733  1
  S  S38  1  0.25614860  0.43702901  0.29349727  1
  S  S39  1  0.76175372  0.46931684  0.66286843  1
  S  S40  1  0.65894595  0.01472468  0.43533278  1
  S  S41  1  0.31880512  0.00109730  0.52233335  1
