# generated using pymatgen
data_Pr2Mn3(SbS3)4
_symmetry_space_group_name_H-M   'P 1'
_cell_length_a   20.02960800
_cell_length_b   3.90410600
_cell_length_c   14.95364829
_cell_angle_alpha   90.00000000
_cell_angle_beta   126.33350609
_cell_angle_gamma   90.00000000
_symmetry_Int_Tables_number   1
_chemical_formula_structural   Pr2Mn3(SbS3)4
_chemical_formula_sum   'Pr4 Mn6 Sb8 S24'
_cell_volume   942.00006694
_cell_formula_units_Z   2
loop_
 _symmetry_equiv_pos_site_id
 _symmetry_equiv_pos_as_xyz
  1  'x, y, z'
loop_
 _atom_site_type_symbol
 _atom_site_label
 _atom_site_symmetry_multiplicity
 _atom_site_fract_x
 _atom_site_fract_y
 _atom_site_fract_z
 _atom_site_occupancy
  Pr  Pr0  1  0.26333207  0.49869092  0.86411944  1
  Pr  Pr1  1  0.73039330  0.52680981  0.13041509  1
  Pr  Pr2  1  0.77486058  0.97796552  0.88390064  1
  Pr  Pr3  1  0.24219009  0.95360207  0.14228442  1
  Mn  Mn4  1  0.28130453  0.59329134  0.57944682  1
  Mn  Mn5  1  0.70664614  0.51168303  0.39083060  1
  Mn  Mn6  1  0.98808002  0.96675454  0.97843959  1
  Mn  Mn7  1  0.78902805  0.05826236  0.59011984  1
  Mn  Mn8  1  0.18715541  0.92004394  0.39659242  1
  Mn  Mn9  1  0.51809439  0.50343350  0.01392797  1
  Sb  Sb10  1  0.89165701  0.97423188  0.45873920  1
  Sb  Sb11  1  0.10869524  0.98738191  0.55052358  1
  Sb  Sb12  1  0.02645106  0.52214365  0.80250148  1
  Sb  Sb13  1  0.96813309  0.48824656  0.18971213  1
  Sb  Sb14  1  0.40803265  0.49543939  0.46347312  1
  Sb  Sb15  1  0.60113631  0.47530286  0.56220346  1
  Sb  Sb16  1  0.52837018  0.01054648  0.81828209  1
  Sb  Sb17  1  0.46535252  0.97126226  0.18592681  1
  S  S18  1  0.93465925  0.00808363  0.79157836  1
  S  S19  1  0.07375960  0.00013054  0.20712040  1
  S  S20  1  0.41133866  0.97414106  0.97482607  1
  S  S21  1  0.59307440  0.98964735  0.02786987  1
  S  S22  1  0.18303811  0.00538273  0.90958106  1
  S  S23  1  0.82497813  0.03411847  0.10526901  1
  S  S24  1  0.09888415  0.45572472  0.65809261  1
  S  S25  1  0.89465815  0.45967259  0.34701050  1
  S  S26  1  0.74111058  0.98318949  0.31758202  1
  S  S27  1  0.25489097  0.94139392  0.68915924  1
  S  S28  1  0.16090018  0.42239997  0.45200833  1
  S  S29  1  0.83707450  0.50992369  0.54765322  1
  S  S30  1  0.45122606  0.49593779  0.82346938  1
  S  S31  1  0.56605941  0.53295758  0.20321652  1
  S  S32  1  0.92170052  0.49930368  0.98619302  1
  S  S33  1  0.07472772  0.45396868  0.99867889  1
  S  S34  1  0.67514913  0.45506944  0.88816236  1
  S  S35  1  0.34196907  0.49368106  0.10839782  1
  S  S36  1  0.60201118  0.98369679  0.67113119  1
  S  S37  1  0.43225834  0.97763996  0.37200735  1
  S  S38  1  0.25612857  0.43693806  0.29336208  1
  S  S39  1  0.76191725  0.46985621  0.66352351  1
  S  S40  1  0.65886118  0.01437313  0.43513948  1
  S  S41  1  0.31864969  0.00013724  0.52197783  1
