# generated using pymatgen
data_Pr2Mn3(SbS3)4
_symmetry_space_group_name_H-M   'P 1'
_cell_length_a   20.02960800
_cell_length_b   3.90410600
_cell_length_c   14.95364829
_cell_angle_alpha   90.00000000
_cell_angle_beta   126.33350609
_cell_angle_gamma   90.00000000
_symmetry_Int_Tables_number   1
_chemical_formula_structural   Pr2Mn3(SbS3)4
_chemical_formula_sum   'Pr4 Mn6 Sb8 S24'
_cell_volume   942.00006694
_cell_formula_units_Z   2
loop_
 _symmetry_equiv_pos_site_id
 _symmetry_equiv_pos_as_xyz
  1  'x, y, z'
loop_
 _atom_site_type_symbol
 _atom_site_label
 _atom_site_symmetry_multiplicity
 _atom_site_fract_x
 _atom_site_fract_y
 _atom_site_fract_z
 _atom_site_occupancy
  Pr  Pr0  1  0.26331489  0.49938227  0.86405593  1
  Pr  Pr1  1  0.73041713  0.52737901  0.13033283  1
  Pr  Pr2  1  0.77475423  0.97813376  0.88372472  1
  Pr  Pr3  1  0.24201934  0.95304610  0.14203506  1
  Mn  Mn4  1  0.28147480  0.59333465  0.57910907  1
  Mn  Mn5  1  0.70685618  0.51122778  0.39104436  1
  Mn  Mn6  1  0.98818215  0.96649711  0.97864032  1
  Mn  Mn7  1  0.78916236  0.05795534  0.59017641  1
  Mn  Mn8  1  0.18700471  0.92109937  0.39603596  1
  Mn  Mn9  1  0.51822072  0.50375392  0.01393916  1
  Sb  Sb10  1  0.89156621  0.97398380  0.45870286  1
  Sb  Sb11  1  0.10872929  0.98674288  0.55045622  1
  Sb  Sb12  1  0.02636846  0.52243830  0.80244985  1
  Sb  Sb13  1  0.96806470  0.48784400  0.18975639  1
  Sb  Sb14  1  0.40802523  0.49499523  0.46337489  1
  Sb  Sb15  1  0.60102614  0.47462567  0.56224127  1
  Sb  Sb16  1  0.52822231  0.01065680  0.81807990  1
  Sb  Sb17  1  0.46549535  0.97146176  0.18616696  1
  S  S18  1  0.93447737  0.00776363  0.79159270  1
  S  S19  1  0.07356406  0.99902832  0.20700665  1
  S  S20  1  0.41175911  0.97251287  0.97536131  1
  S  S21  1  0.59316552  0.99078669  0.02814408  1
  S  S22  1  0.18328109  0.00640410  0.90968625  1
  S  S23  1  0.82467790  0.03310833  0.10470331  1
  S  S24  1  0.09858700  0.45513993  0.65811721  1
  S  S25  1  0.89445487  0.46062422  0.34680424  1
  S  S26  1  0.74147762  0.98323850  0.31784836  1
  S  S27  1  0.25506208  0.94069001  0.68932971  1
  S  S28  1  0.16109616  0.42307192  0.45194701  1
  S  S29  1  0.83710246  0.50992661  0.54774006  1
  S  S30  1  0.45146686  0.49429826  0.82371851  1
  S  S31  1  0.56601478  0.53380268  0.20323555  1
  S  S32  1  0.92175583  0.49823415  0.98651782  1
  S  S33  1  0.07430605  0.45234112  0.99856976  1
  S  S34  1  0.67505240  0.45640172  0.88802356  1
  S  S35  1  0.34150474  0.49465639  0.10803466  1
  S  S36  1  0.60196866  0.98336421  0.67093089  1
  S  S37  1  0.43225596  0.97735163  0.37179968  1
  S  S38  1  0.25614607  0.43674436  0.29321023  1
  S  S39  1  0.76199241  0.47052031  0.66394423  1
  S  S40  1  0.65874315  0.01428302  0.43506328  1
  S  S41  1  0.31849587  0.99914867  0.52160458  1
