# generated using pymatgen
data_Pr2Mn3(SbS3)4
_symmetry_space_group_name_H-M   'P 1'
_cell_length_a   20.02960800
_cell_length_b   3.90410600
_cell_length_c   14.95364829
_cell_angle_alpha   90.00000000
_cell_angle_beta   126.33350609
_cell_angle_gamma   90.00000000
_symmetry_Int_Tables_number   1
_chemical_formula_structural   Pr2Mn3(SbS3)4
_chemical_formula_sum   'Pr4 Mn6 Sb8 S24'
_cell_volume   942.00006694
_cell_formula_units_Z   2
loop_
 _symmetry_equiv_pos_site_id
 _symmetry_equiv_pos_as_xyz
  1  'x, y, z'
loop_
 _atom_site_type_symbol
 _atom_site_label
 _atom_site_symmetry_multiplicity
 _atom_site_fract_x
 _atom_site_fract_y
 _atom_site_fract_z
 _atom_site_occupancy
  Pr  Pr0  1  0.26329679  0.49977351  0.86397734  1
  Pr  Pr1  1  0.73036007  0.52798324  0.13021961  1
  Pr  Pr2  1  0.77462330  0.97840081  0.88348174  1
  Pr  Pr3  1  0.24182473  0.95262276  0.14179706  1
  Mn  Mn4  1  0.28163052  0.59346997  0.57881590  1
  Mn  Mn5  1  0.70709831  0.51028349  0.39141686  1
  Mn  Mn6  1  0.98835007  0.96665557  0.97889349  1
  Mn  Mn7  1  0.78929199  0.05717520  0.59026983  1
  Mn  Mn8  1  0.18695057  0.92162538  0.39577429  1
  Mn  Mn9  1  0.51847783  0.50391873  0.01401586  1
  Sb  Sb10  1  0.89147605  0.97366106  0.45864279  1
  Sb  Sb11  1  0.10874288  0.98632587  0.55035533  1
  Sb  Sb12  1  0.02622166  0.52268447  0.80242654  1
  Sb  Sb13  1  0.96795504  0.48741885  0.18976283  1
  Sb  Sb14  1  0.40801966  0.49464430  0.46325058  1
  Sb  Sb15  1  0.60091484  0.47388620  0.56231260  1
  Sb  Sb16  1  0.52795595  0.01079620  0.81775403  1
  Sb  Sb17  1  0.46566242  0.97155737  0.18646729  1
  S  S18  1  0.93427154  0.00746862  0.79165361  1
  S  S19  1  0.07339910  0.99872392  0.20678912  1
  S  S20  1  0.41215277  0.97040176  0.97596636  1
  S  S21  1  0.59322037  0.99174793  0.02839927  1
  S  S22  1  0.18331227  0.00702341  0.90962716  1
  S  S23  1  0.82436997  0.03153437  0.10401102  1
  S  S24  1  0.09835071  0.45513579  0.65803691  1
  S  S25  1  0.89416977  0.46203219  0.34661981  1
  S  S26  1  0.74178158  0.98331454  0.31805848  1
  S  S27  1  0.25509547  0.93960537  0.68944417  1
  S  S28  1  0.16135123  0.42403100  0.45190725  1
  S  S29  1  0.83716077  0.50973047  0.54781084  1
  S  S30  1  0.45172355  0.49278155  0.82419627  1
  S  S31  1  0.56604007  0.53434166  0.20328493  1
  S  S32  1  0.92197420  0.49660720  0.98692820  1
  S  S33  1  0.07403239  0.45062524  0.99872298  1
  S  S34  1  0.67495613  0.45843664  0.88793940  1
  S  S35  1  0.34111947  0.49539840  0.10773263  1
  S  S36  1  0.60200364  0.98255655  0.67100608  1
  S  S37  1  0.43230964  0.97727019  0.37175925  1
  S  S38  1  0.25600258  0.43700718  0.29274438  1
  S  S39  1  0.76219018  0.47106770  0.66439523  1
  S  S40  1  0.65868547  0.01454367  0.43496774  1
  S  S41  1  0.31838807  0.99867073  0.52135815  1
