# generated using pymatgen
data_Pr2Mn3(SbS3)4
_symmetry_space_group_name_H-M   'P 1'
_cell_length_a   20.02960800
_cell_length_b   3.90410600
_cell_length_c   14.95364829
_cell_angle_alpha   90.00000000
_cell_angle_beta   126.33350609
_cell_angle_gamma   90.00000000
_symmetry_Int_Tables_number   1
_chemical_formula_structural   Pr2Mn3(SbS3)4
_chemical_formula_sum   'Pr4 Mn6 Sb8 S24'
_cell_volume   942.00006694
_cell_formula_units_Z   2
loop_
 _symmetry_equiv_pos_site_id
 _symmetry_equiv_pos_as_xyz
  1  'x, y, z'
loop_
 _atom_site_type_symbol
 _atom_site_label
 _atom_site_symmetry_multiplicity
 _atom_site_fract_x
 _atom_site_fract_y
 _atom_site_fract_z
 _atom_site_occupancy
  Pr  Pr0  1  0.26330140  0.50009503  0.86386929  1
  Pr  Pr1  1  0.73031257  0.52820965  0.13010769  1
  Pr  Pr2  1  0.77455880  0.97866028  0.88326386  1
  Pr  Pr3  1  0.24161365  0.95231508  0.14155177  1
  Mn  Mn4  1  0.28175682  0.59363160  0.57852449  1
  Mn  Mn5  1  0.70726939  0.50976963  0.39164920  1
  Mn  Mn6  1  0.98851479  0.96708125  0.97902013  1
  Mn  Mn7  1  0.78924916  0.05649253  0.59036635  1
  Mn  Mn8  1  0.18683061  0.92214783  0.39543474  1
  Mn  Mn9  1  0.51875135  0.50447432  0.01411205  1
  Sb  Sb10  1  0.89146390  0.97355061  0.45862073  1
  Sb  Sb11  1  0.10874677  0.98590826  0.55028568  1
  Sb  Sb12  1  0.02614275  0.52289020  0.80245888  1
  Sb  Sb13  1  0.96789771  0.48679824  0.18978289  1
  Sb  Sb14  1  0.40800848  0.49412614  0.46318195  1
  Sb  Sb15  1  0.60081204  0.47292092  0.56241070  1
  Sb  Sb16  1  0.52775926  0.01067274  0.81749864  1
  Sb  Sb17  1  0.46573182  0.97164102  0.18655208  1
  S  S18  1  0.93392473  0.00715567  0.79173414  1
  S  S19  1  0.07310238  0.99886840  0.20642066  1
  S  S20  1  0.41253049  0.96882178  0.97647078  1
  S  S21  1  0.59322355  0.99297979  0.02859822  1
  S  S22  1  0.18334391  0.00807162  0.90959172  1
  S  S23  1  0.82400440  0.02983927  0.10329086  1
  S  S24  1  0.09822787  0.45487209  0.65806094  1
  S  S25  1  0.89386944  0.46262274  0.34647696  1
  S  S26  1  0.74203512  0.98328843  0.31819416  1
  S  S27  1  0.25490654  0.93829238  0.68916027  1
  S  S28  1  0.16158770  0.42513056  0.45178561  1
  S  S29  1  0.83728076  0.50922175  0.54803135  1
  S  S30  1  0.45203759  0.49120024  0.82475975  1
  S  S31  1  0.56615902  0.53549827  0.20333104  1
  S  S32  1  0.92221194  0.49511718  0.98727413  1
  S  S33  1  0.07381962  0.44868614  0.99894224  1
  S  S34  1  0.67498069  0.46022917  0.88796786  1
  S  S35  1  0.34070892  0.49622857  0.10747123  1
  S  S36  1  0.60196279  0.98166080  0.67084775  1
  S  S37  1  0.43223544  0.97750436  0.37174564  1
  S  S38  1  0.25576624  0.43756009  0.29219920  1
  S  S39  1  0.76239378  0.47173197  0.66480083  1
  S  S40  1  0.65856711  0.01412065  0.43476412  1
  S  S41  1  0.31821187  0.99853402  0.52101164  1
