# generated using pymatgen
data_Pr2Mn3(SbS3)4
_symmetry_space_group_name_H-M   'P 1'
_cell_length_a   20.02960800
_cell_length_b   3.90410600
_cell_length_c   14.95364829
_cell_angle_alpha   90.00000000
_cell_angle_beta   126.33350609
_cell_angle_gamma   90.00000000
_symmetry_Int_Tables_number   1
_chemical_formula_structural   Pr2Mn3(SbS3)4
_chemical_formula_sum   'Pr4 Mn6 Sb8 S24'
_cell_volume   942.00006694
_cell_formula_units_Z   2
loop_
 _symmetry_equiv_pos_site_id
 _symmetry_equiv_pos_as_xyz
  1  'x, y, z'
loop_
 _atom_site_type_symbol
 _atom_site_label
 _atom_site_symmetry_multiplicity
 _atom_site_fract_x
 _atom_site_fract_y
 _atom_site_fract_z
 _atom_site_occupancy
  Pr  Pr0  1  0.26331811  0.50053818  0.86377650  1
  Pr  Pr1  1  0.73029768  0.52843776  0.13007351  1
  Pr  Pr2  1  0.77446434  0.97901363  0.88303126  1
  Pr  Pr3  1  0.24146810  0.95170455  0.14130116  1
  Mn  Mn4  1  0.28188238  0.59380158  0.57808067  1
  Mn  Mn5  1  0.70753053  0.50955660  0.39210795  1
  Mn  Mn6  1  0.98859493  0.96749895  0.97901136  1
  Mn  Mn7  1  0.78916371  0.05586441  0.59033338  1
  Mn  Mn8  1  0.18672573  0.92280719  0.39506877  1
  Mn  Mn9  1  0.51906521  0.50529750  0.01420471  1
  Sb  Sb10  1  0.89147896  0.97371514  0.45853070  1
  Sb  Sb11  1  0.10872504  0.98568714  0.55021731  1
  Sb  Sb12  1  0.02612567  0.52328274  0.80263582  1
  Sb  Sb13  1  0.96790864  0.48628404  0.18981020  1
  Sb  Sb14  1  0.40801953  0.49330074  0.46308187  1
  Sb  Sb15  1  0.60074715  0.47211811  0.56248605  1
  Sb  Sb16  1  0.52757396  0.01086569  0.81718978  1
  Sb  Sb17  1  0.46589629  0.97169874  0.18661603  1
  S  S18  1  0.93358715  0.00761354  0.79172679  1
  S  S19  1  0.07273960  0.99888277  0.20585932  1
  S  S20  1  0.41293261  0.96740047  0.97709979  1
  S  S21  1  0.59317473  0.99369450  0.02859378  1
  S  S22  1  0.18339066  0.00992593  0.90960905  1
  S  S23  1  0.82372648  0.02838463  0.10276251  1
  S  S24  1  0.09819022  0.45553945  0.65832027  1
  S  S25  1  0.89353936  0.46350534  0.34622040  1
  S  S26  1  0.74225187  0.98254624  0.31810918  1
  S  S27  1  0.25479530  0.93688124  0.68903839  1
  S  S28  1  0.16186697  0.42652381  0.45164207  1
  S  S29  1  0.83744249  0.50936377  0.54834953  1
  S  S30  1  0.45241580  0.48992211  0.82527120  1
  S  S31  1  0.56632389  0.53615630  0.20333372  1
  S  S32  1  0.92221241  0.49431060  0.98733427  1
  S  S33  1  0.07364838  0.44680644  0.99931326  1
  S  S34  1  0.67489527  0.46222735  0.88799216  1
  S  S35  1  0.34027376  0.49773667  0.10705882  1
  S  S36  1  0.60188876  0.97989747  0.67053651  1
  S  S37  1  0.43186620  0.97825224  0.37156175  1
  S  S38  1  0.25561197  0.43861188  0.29166946  1
  S  S39  1  0.76262798  0.47233902  0.66528817  1
  S  S40  1  0.65851897  0.01403232  0.43445887  1
  S  S41  1  0.31797728  0.99809078  0.52058792  1
