# generated using pymatgen
data_Pr2Mn3(SbS3)4
_symmetry_space_group_name_H-M   'P 1'
_cell_length_a   20.02960800
_cell_length_b   3.90410600
_cell_length_c   14.95364829
_cell_angle_alpha   90.00000000
_cell_angle_beta   126.33350609
_cell_angle_gamma   90.00000000
_symmetry_Int_Tables_number   1
_chemical_formula_structural   Pr2Mn3(SbS3)4
_chemical_formula_sum   'Pr4 Mn6 Sb8 S24'
_cell_volume   942.00006694
_cell_formula_units_Z   2
loop_
 _symmetry_equiv_pos_site_id
 _symmetry_equiv_pos_as_xyz
  1  'x, y, z'
loop_
 _atom_site_type_symbol
 _atom_site_label
 _atom_site_symmetry_multiplicity
 _atom_site_fract_x
 _atom_site_fract_y
 _atom_site_fract_z
 _atom_site_occupancy
  Pr  Pr0  1  0.26332802  0.50087158  0.86373959  1
  Pr  Pr1  1  0.73027083  0.52891391  0.12997458  1
  Pr  Pr2  1  0.77433728  0.97917699  0.88285198  1
  Pr  Pr3  1  0.24144105  0.95157789  0.14123338  1
  Mn  Mn4  1  0.28210530  0.59395953  0.57785003  1
  Mn  Mn5  1  0.70769937  0.50955318  0.39247590  1
  Mn  Mn6  1  0.98862396  0.96793223  0.97905240  1
  Mn  Mn7  1  0.78906974  0.05486013  0.59018722  1
  Mn  Mn8  1  0.18656666  0.92368868  0.39469370  1
  Mn  Mn9  1  0.51923054  0.50588820  0.01411722  1
  Sb  Sb10  1  0.89156251  0.97379674  0.45852167  1
  Sb  Sb11  1  0.10868393  0.98562847  0.55015160  1
  Sb  Sb12  1  0.02603322  0.52356628  0.80269254  1
  Sb  Sb13  1  0.96790783  0.48573652  0.18975002  1
  Sb  Sb14  1  0.40797479  0.49266177  0.46288932  1
  Sb  Sb15  1  0.60064516  0.47165363  0.56256491  1
  Sb  Sb16  1  0.52745540  0.01095481  0.81701084  1
  Sb  Sb17  1  0.46605185  0.97143257  0.18662840  1
  S  S18  1  0.93334206  0.00854248  0.79190936  1
  S  S19  1  0.07255841  0.99843119  0.20561728  1
  S  S20  1  0.41351343  0.96628255  0.97785617  1
  S  S21  1  0.59318291  0.99416148  0.02870757  1
  S  S22  1  0.18348532  0.01164617  0.90959124  1
  S  S23  1  0.82348463  0.02733097  0.10214243  1
  S  S24  1  0.09820059  0.45598713  0.65854980  1
  S  S25  1  0.89331860  0.46422615  0.34603033  1
  S  S26  1  0.74247284  0.98199478  0.31824221  1
  S  S27  1  0.25458315  0.93525488  0.68888308  1
  S  S28  1  0.16201211  0.42818282  0.45151460  1
  S  S29  1  0.83746990  0.50982911  0.54855068  1
  S  S30  1  0.45266518  0.48900270  0.82558064  1
  S  S31  1  0.56641378  0.53661278  0.20315823  1
  S  S32  1  0.92219349  0.49336286  0.98736013  1
  S  S33  1  0.07335078  0.44529156  0.99948817  1
  S  S34  1  0.67490523  0.46493613  0.88825112  1
  S  S35  1  0.33985648  0.49932247  0.10673382  1
  S  S36  1  0.60178709  0.97848059  0.67027881  1
  S  S37  1  0.43147751  0.97888832  0.37131939  1
  S  S38  1  0.25535788  0.43961107  0.29116016  1
  S  S39  1  0.76304080  0.47348771  0.66567886  1
  S  S40  1  0.65868439  0.01428180  0.43461630  1
  S  S41  1  0.31783771  0.99756680  0.52020182  1
