# generated using pymatgen
data_Pr2Mn3(SbS3)4
_symmetry_space_group_name_H-M   'P 1'
_cell_length_a   20.02960800
_cell_length_b   3.90410600
_cell_length_c   14.95364829
_cell_angle_alpha   90.00000000
_cell_angle_beta   126.33350609
_cell_angle_gamma   90.00000000
_symmetry_Int_Tables_number   1
_chemical_formula_structural   Pr2Mn3(SbS3)4
_chemical_formula_sum   'Pr4 Mn6 Sb8 S24'
_cell_volume   942.00006694
_cell_formula_units_Z   2
loop_
 _symmetry_equiv_pos_site_id
 _symmetry_equiv_pos_as_xyz
  1  'x, y, z'
loop_
 _atom_site_type_symbol
 _atom_site_label
 _atom_site_symmetry_multiplicity
 _atom_site_fract_x
 _atom_site_fract_y
 _atom_site_fract_z
 _atom_site_occupancy
  Pr  Pr0  1  0.26335030  0.50124806  0.86363195  1
  Pr  Pr1  1  0.73023488  0.52954865  0.12982959  1
  Pr  Pr2  1  0.77432939  0.97944969  0.88278384  1
  Pr  Pr3  1  0.24138050  0.95151525  0.14123575  1
  Mn  Mn4  1  0.28227085  0.59412367  0.57767935  1
  Mn  Mn5  1  0.70789264  0.50931197  0.39286635  1
  Mn  Mn6  1  0.98864177  0.96832804  0.97918707  1
  Mn  Mn7  1  0.78891600  0.05403760  0.58995181  1
  Mn  Mn8  1  0.18639510  0.92465121  0.39443895  1
  Mn  Mn9  1  0.51937559  0.50607096  0.01405469  1
  Sb  Sb10  1  0.89163006  0.97364599  0.45844378  1
  Sb  Sb11  1  0.10860217  0.98550949  0.55002135  1
  Sb  Sb12  1  0.02597835  0.52371171  0.80268193  1
  Sb  Sb13  1  0.96805353  0.48486447  0.18983891  1
  Sb  Sb14  1  0.40795089  0.49177421  0.46278295  1
  Sb  Sb15  1  0.60054466  0.47101988  0.56261161  1
  Sb  Sb16  1  0.52729431  0.01106633  0.81677157  1
  Sb  Sb17  1  0.46623058  0.97115181  0.18668378  1
  S  S18  1  0.93321572  0.00910969  0.79200271  1
  S  S19  1  0.07226093  0.99803927  0.20516161  1
  S  S20  1  0.41410100  0.96496543  0.97862766  1
  S  S21  1  0.59321729  0.99422191  0.02878791  1
  S  S22  1  0.18366091  0.01326731  0.90965080  1
  S  S23  1  0.82334655  0.02626352  0.10158362  1
  S  S24  1  0.09809832  0.45651304  0.65870104  1
  S  S25  1  0.89296726  0.46445650  0.34579198  1
  S  S26  1  0.74252476  0.98189483  0.31821240  1
  S  S27  1  0.25456840  0.93432405  0.68866604  1
  S  S28  1  0.16214226  0.43045069  0.45120011  1
  S  S29  1  0.83742732  0.50980773  0.54871499  1
  S  S30  1  0.45289918  0.48795482  0.82583601  1
  S  S31  1  0.56640312  0.53728945  0.20279468  1
  S  S32  1  0.92227026  0.49213699  0.98743432  1
  S  S33  1  0.07302214  0.44382925  0.99947320  1
  S  S34  1  0.67492132  0.46723438  0.88853382  1
  S  S35  1  0.33964400  0.50108473  0.10652624  1
  S  S36  1  0.60169885  0.97793667  0.67001953  1
  S  S37  1  0.43101725  0.98012071  0.37110411  1
  S  S38  1  0.25526704  0.44020906  0.29092161  1
  S  S39  1  0.76332584  0.47411079  0.66599994  1
  S  S40  1  0.65885590  0.01409696  0.43490100  1
  S  S41  1  0.31773170  0.99739359  0.51976324  1
