# generated using pymatgen
data_Pr2Mn3(SbS3)4
_symmetry_space_group_name_H-M   'P 1'
_cell_length_a   20.02960800
_cell_length_b   3.90410600
_cell_length_c   14.95364829
_cell_angle_alpha   90.00000000
_cell_angle_beta   126.33350609
_cell_angle_gamma   90.00000000
_symmetry_Int_Tables_number   1
_chemical_formula_structural   Pr2Mn3(SbS3)4
_chemical_formula_sum   'Pr4 Mn6 Sb8 S24'
_cell_volume   942.00006694
_cell_formula_units_Z   2
loop_
 _symmetry_equiv_pos_site_id
 _symmetry_equiv_pos_as_xyz
  1  'x, y, z'
loop_
 _atom_site_type_symbol
 _atom_site_label
 _atom_site_symmetry_multiplicity
 _atom_site_fract_x
 _atom_site_fract_y
 _atom_site_fract_z
 _atom_site_occupancy
  Pr  Pr0  1  0.26979878  0.50008080  0.86740840  1
  Pr  Pr1  1  0.73337484  0.51383763  0.13288589  1
  Pr  Pr2  1  0.76556612  0.02568481  0.86540408  1
  Pr  Pr3  1  0.23270615  0.99085126  0.13223977  1
  Mn  Mn4  1  0.29914405  0.46934086  0.60366506  1
  Mn  Mn5  1  0.68438278  0.46107900  0.36063461  1
  Mn  Mn6  1  0.00315123  0.98951415  0.01020379  1
  Mn  Mn7  1  0.79615571  0.01392222  0.61796354  1
  Mn  Mn8  1  0.19415752  0.98182028  0.36647112  1
  Mn  Mn9  1  0.48499673  0.46959562  0.98467759  1
  Sb  Sb10  1  0.88997530  0.98592733  0.44969151  1
  Sb  Sb11  1  0.10999735  0.98260940  0.54584450  1
  Sb  Sb12  1  0.03580142  0.53231828  0.82108788  1
  Sb  Sb13  1  0.96694182  0.50005868  0.18898362  1
  Sb  Sb14  1  0.39306006  0.50090598  0.44906807  1
  Sb  Sb15  1  0.60812295  0.47806518  0.54641436  1
  Sb  Sb16  1  0.53337315  0.97753967  0.80725846  1
  Sb  Sb17  1  0.46560644  0.02125244  0.18895508  1
  S  S18  1  0.93556855  0.01449138  0.80846770  1
  S  S19  1  0.06589028  0.01351909  0.20133980  1
  S  S20  1  0.41650564  0.97012397  0.98788441  1
  S  S21  1  0.58642857  0.03917797  0.01707353  1
  S  S22  1  0.17030412  0.05024339  0.90109511  1
  S  S23  1  0.82670142  0.03349748  0.10344771  1
  S  S24  1  0.08961638  0.49491874  0.64409947  1
  S  S25  1  0.91400361  0.48600690  0.35375630  1
  S  S26  1  0.74011199  0.99815302  0.30227943  1
  S  S27  1  0.25719982  0.00958013  0.70472015  1
  S  S28  1  0.16811781  0.52160324  0.43472483  1
  S  S29  1  0.81083960  0.50137680  0.53899576  1
  S  S30  1  0.43028253  0.46708564  0.79556422  1
  S  S31  1  0.55340201  0.51888521  0.18192888  1
  S  S32  1  0.92196667  0.50149219  0.99441675  1
  S  S33  1  0.08968518  0.49596132  0.02714949  1
  S  S34  1  0.66562243  0.55502338  0.89611378  1
  S  S35  1  0.32860601  0.47885066  0.09346629  1
  S  S36  1  0.58875184  0.98821146  0.64965250  1
  S  S37  1  0.39770566  0.97869868  0.34105634  1
  S  S38  1  0.24556166  0.47495933  0.31835878  1
  S  S39  1  0.75848903  0.53005139  0.68637134  1
  S  S40  1  0.66432295  0.99158283  0.44662983  1
  S  S41  1  0.33113154  0.98710208  0.55683221  1
