# generated using pymatgen
data_Pr2Mn3(SbS3)4
_symmetry_space_group_name_H-M   'P 1'
_cell_length_a   20.02960800
_cell_length_b   3.90410600
_cell_length_c   14.95364829
_cell_angle_alpha   90.00000000
_cell_angle_beta   126.33350609
_cell_angle_gamma   90.00000000
_symmetry_Int_Tables_number   1
_chemical_formula_structural   Pr2Mn3(SbS3)4
_chemical_formula_sum   'Pr4 Mn6 Sb8 S24'
_cell_volume   942.00006694
_cell_formula_units_Z   2
loop_
 _symmetry_equiv_pos_site_id
 _symmetry_equiv_pos_as_xyz
  1  'x, y, z'
loop_
 _atom_site_type_symbol
 _atom_site_label
 _atom_site_symmetry_multiplicity
 _atom_site_fract_x
 _atom_site_fract_y
 _atom_site_fract_z
 _atom_site_occupancy
  Pr  Pr0  1  0.26327360  0.50145036  0.86355969  1
  Pr  Pr1  1  0.73015695  0.53020603  0.12960197  1
  Pr  Pr2  1  0.77433323  0.97981114  0.88265483  1
  Pr  Pr3  1  0.24125208  0.95119916  0.14116022  1
  Mn  Mn4  1  0.28238791  0.59451161  0.57758744  1
  Mn  Mn5  1  0.70797470  0.50858197  0.39308694  1
  Mn  Mn6  1  0.98859848  0.96844217  0.97925839  1
  Mn  Mn7  1  0.78879787  0.05313033  0.58969870  1
  Mn  Mn8  1  0.18624825  0.92556505  0.39415677  1
  Mn  Mn9  1  0.51942540  0.50647143  0.01394832  1
  Sb  Sb10  1  0.89170510  0.97298491  0.45836568  1
  Sb  Sb11  1  0.10854254  0.98562728  0.54990679  1
  Sb  Sb12  1  0.02590147  0.52379805  0.80262557  1
  Sb  Sb13  1  0.96817164  0.48402821  0.18996072  1
  Sb  Sb14  1  0.40789947  0.49101811  0.46264284  1
  Sb  Sb15  1  0.60043424  0.47018705  0.56256274  1
  Sb  Sb16  1  0.52717450  0.01115479  0.81652360  1
  Sb  Sb17  1  0.46633840  0.97093291  0.18669308  1
  S  S18  1  0.93324338  0.00958917  0.79240726  1
  S  S19  1  0.07192608  0.99707353  0.20474373  1
  S  S20  1  0.41462332  0.96467113  0.97929171  1
  S  S21  1  0.59320682  0.99407155  0.02874544  1
  S  S22  1  0.18371676  0.01547115  0.90972154  1
  S  S23  1  0.82334973  0.02521624  0.10125377  1
  S  S24  1  0.09812463  0.45640917  0.65893851  1
  S  S25  1  0.89256686  0.46447070  0.34555493  1
  S  S26  1  0.74261387  0.98127473  0.31830552  1
  S  S27  1  0.25458469  0.93393983  0.68850426  1
  S  S28  1  0.16225934  0.43270907  0.45093434  1
  S  S29  1  0.83743272  0.50980950  0.54899585  1
  S  S30  1  0.45306394  0.48683502  0.82605657  1
  S  S31  1  0.56628959  0.53729308  0.20237651  1
  S  S32  1  0.92235470  0.49142332  0.98764497  1
  S  S33  1  0.07284400  0.44257447  0.99938865  1
  S  S34  1  0.67485353  0.46946825  0.88870542  1
  S  S35  1  0.33935474  0.50330481  0.10637540  1
  S  S36  1  0.60147443  0.97745741  0.66962601  1
  S  S37  1  0.43063174  0.98113679  0.37106056  1
  S  S38  1  0.25519575  0.44061423  0.29068533  1
  S  S39  1  0.76350546  0.47451624  0.66612451  1
  S  S40  1  0.65897998  0.01387656  0.43523037  1
  S  S41  1  0.31761099  0.99708392  0.51945852  1
