# generated using pymatgen
data_Pr2Mn3(SbS3)4
_symmetry_space_group_name_H-M   'P 1'
_cell_length_a   20.02960800
_cell_length_b   3.90410600
_cell_length_c   14.95364829
_cell_angle_alpha   90.00000000
_cell_angle_beta   126.33350609
_cell_angle_gamma   90.00000000
_symmetry_Int_Tables_number   1
_chemical_formula_structural   Pr2Mn3(SbS3)4
_chemical_formula_sum   'Pr4 Mn6 Sb8 S24'
_cell_volume   942.00006694
_cell_formula_units_Z   2
loop_
 _symmetry_equiv_pos_site_id
 _symmetry_equiv_pos_as_xyz
  1  'x, y, z'
loop_
 _atom_site_type_symbol
 _atom_site_label
 _atom_site_symmetry_multiplicity
 _atom_site_fract_x
 _atom_site_fract_y
 _atom_site_fract_z
 _atom_site_occupancy
  Pr  Pr0  1  0.26323133  0.50168186  0.86354115  1
  Pr  Pr1  1  0.73004035  0.53099986  0.12940607  1
  Pr  Pr2  1  0.77442567  0.98013278  0.88259749  1
  Pr  Pr3  1  0.24108153  0.95087529  0.14098908  1
  Mn  Mn4  1  0.28253699  0.59441842  0.57753814  1
  Mn  Mn5  1  0.70796170  0.50747523  0.39308937  1
  Mn  Mn6  1  0.98855678  0.96866040  0.97934217  1
  Mn  Mn7  1  0.78866459  0.05238043  0.58933340  1
  Mn  Mn8  1  0.18600802  0.92628848  0.39386555  1
  Mn  Mn9  1  0.51942059  0.50688186  0.01376698  1
  Sb  Sb10  1  0.89178879  0.97217296  0.45832204  1
  Sb  Sb11  1  0.10855034  0.98569215  0.54993953  1
  Sb  Sb12  1  0.02577919  0.52398545  0.80262319  1
  Sb  Sb13  1  0.96830965  0.48344962  0.19004398  1
  Sb  Sb14  1  0.40786852  0.49052398  0.46254157  1
  Sb  Sb15  1  0.60036578  0.46937048  0.56257142  1
  Sb  Sb16  1  0.52699526  0.01143728  0.81630163  1
  Sb  Sb17  1  0.46645468  0.97083652  0.18669175  1
  S  S18  1  0.93318743  0.01017602  0.79255723  1
  S  S19  1  0.07177618  0.99667566  0.20459535  1
  S  S20  1  0.41501584  0.96454126  0.97993124  1
  S  S21  1  0.59309642  0.99369478  0.02848514  1
  S  S22  1  0.18385494  0.01783607  0.90996815  1
  S  S23  1  0.82354610  0.02373885  0.10119699  1
  S  S24  1  0.09821534  0.45662669  0.65916440  1
  S  S25  1  0.89228434  0.46399193  0.34530465  1
  S  S26  1  0.74266482  0.98102963  0.31824178  1
  S  S27  1  0.25456488  0.93359768  0.68821274  1
  S  S28  1  0.16245247  0.43451359  0.45049073  1
  S  S29  1  0.83740900  0.50921097  0.54914316  1
  S  S30  1  0.45338678  0.48643018  0.82631798  1
  S  S31  1  0.56605040  0.53726215  0.20194467  1
  S  S32  1  0.92236745  0.49062067  0.98801696  1
  S  S33  1  0.07273621  0.44152640  0.99946037  1
  S  S34  1  0.67492997  0.47138636  0.88924965  1
  S  S35  1  0.33898594  0.50527124  0.10624515  1
  S  S36  1  0.60118608  0.97645981  0.66918326  1
  S  S37  1  0.43043922  0.98273280  0.37125785  1
  S  S38  1  0.25528162  0.44107873  0.29062027  1
  S  S39  1  0.76359754  0.47500662  0.66628938  1
  S  S40  1  0.65913971  0.01305893  0.43564648  1
  S  S41  1  0.31743524  0.99634650  0.51898935  1
