# generated using pymatgen
data_Pr2Mn3(SbS3)4
_symmetry_space_group_name_H-M   'P 1'
_cell_length_a   20.02960800
_cell_length_b   3.90410600
_cell_length_c   14.95364829
_cell_angle_alpha   90.00000000
_cell_angle_beta   126.33350609
_cell_angle_gamma   90.00000000
_symmetry_Int_Tables_number   1
_chemical_formula_structural   Pr2Mn3(SbS3)4
_chemical_formula_sum   'Pr4 Mn6 Sb8 S24'
_cell_volume   942.00006694
_cell_formula_units_Z   2
loop_
 _symmetry_equiv_pos_site_id
 _symmetry_equiv_pos_as_xyz
  1  'x, y, z'
loop_
 _atom_site_type_symbol
 _atom_site_label
 _atom_site_symmetry_multiplicity
 _atom_site_fract_x
 _atom_site_fract_y
 _atom_site_fract_z
 _atom_site_occupancy
  Pr  Pr0  1  0.26312931  0.50174377  0.86347911  1
  Pr  Pr1  1  0.72995993  0.53174431  0.12928021  1
  Pr  Pr2  1  0.77448405  0.98033018  0.88254400  1
  Pr  Pr3  1  0.24096780  0.95056616  0.14085853  1
  Mn  Mn4  1  0.28266323  0.59437223  0.57757056  1
  Mn  Mn5  1  0.70787705  0.50645794  0.39292359  1
  Mn  Mn6  1  0.98860225  0.96868719  0.97945877  1
  Mn  Mn7  1  0.78858229  0.05160136  0.58894690  1
  Mn  Mn8  1  0.18582765  0.92681495  0.39349338  1
  Mn  Mn9  1  0.51944023  0.50712853  0.01356193  1
  Sb  Sb10  1  0.89182539  0.97159432  0.45823435  1
  Sb  Sb11  1  0.10862310  0.98571222  0.54998315  1
  Sb  Sb12  1  0.02568656  0.52393200  0.80269290  1
  Sb  Sb13  1  0.96846336  0.48274299  0.19009336  1
  Sb  Sb14  1  0.40786253  0.49028876  0.46245155  1
  Sb  Sb15  1  0.60032145  0.46865830  0.56258782  1
  Sb  Sb16  1  0.52682762  0.01175174  0.81612848  1
  Sb  Sb17  1  0.46651763  0.97076787  0.18671112  1
  S  S18  1  0.93311437  0.01102014  0.79262934  1
  S  S19  1  0.07171234  0.99622661  0.20461041  1
  S  S20  1  0.41528056  0.96418362  0.98044750  1
  S  S21  1  0.59294888  0.99350903  0.02841723  1
  S  S22  1  0.18388169  0.01928444  0.91019684  1
  S  S23  1  0.82375199  0.02226136  0.10146609  1
  S  S24  1  0.09821294  0.45648739  0.65929247  1
  S  S25  1  0.89203468  0.46388307  0.34517948  1
  S  S26  1  0.74268155  0.98036324  0.31815069  1
  S  S27  1  0.25464571  0.93368601  0.68819246  1
  S  S28  1  0.16245667  0.43629898  0.45010858  1
  S  S29  1  0.83737763  0.50836149  0.54926178  1
  S  S30  1  0.45356489  0.48640381  0.82638724  1
  S  S31  1  0.56577818  0.53748879  0.20125882  1
  S  S32  1  0.92242293  0.49026934  0.98840364  1
  S  S33  1  0.07271402  0.44007590  0.99946951  1
  S  S34  1  0.67504244  0.47293172  0.88987742  1
  S  S35  1  0.33861663  0.50700851  0.10623244  1
  S  S36  1  0.60099262  0.97489303  0.66877351  1
  S  S37  1  0.43023731  0.98448894  0.37133707  1
  S  S38  1  0.25530032  0.44221777  0.29058396  1
  S  S39  1  0.76362804  0.47553697  0.66634090  1
  S  S40  1  0.65953178  0.01141512  0.43630458  1
  S  S41  1  0.31733629  0.99605334  0.51853233  1
