# generated using pymatgen
data_Pr2Mn3(SbS3)4
_symmetry_space_group_name_H-M   'P 1'
_cell_length_a   20.02960800
_cell_length_b   3.90410600
_cell_length_c   14.95364829
_cell_angle_alpha   90.00000000
_cell_angle_beta   126.33350609
_cell_angle_gamma   90.00000000
_symmetry_Int_Tables_number   1
_chemical_formula_structural   Pr2Mn3(SbS3)4
_chemical_formula_sum   'Pr4 Mn6 Sb8 S24'
_cell_volume   942.00006694
_cell_formula_units_Z   2
loop_
 _symmetry_equiv_pos_site_id
 _symmetry_equiv_pos_as_xyz
  1  'x, y, z'
loop_
 _atom_site_type_symbol
 _atom_site_label
 _atom_site_symmetry_multiplicity
 _atom_site_fract_x
 _atom_site_fract_y
 _atom_site_fract_z
 _atom_site_occupancy
  Pr  Pr0  1  0.26302605  0.50190318  0.86334619  1
  Pr  Pr1  1  0.72989333  0.53211768  0.12910657  1
  Pr  Pr2  1  0.77453705  0.98061209  0.88239770  1
  Pr  Pr3  1  0.24087193  0.95059553  0.14081622  1
  Mn  Mn4  1  0.28281055  0.59397940  0.57758009  1
  Mn  Mn5  1  0.70773519  0.50555080  0.39270720  1
  Mn  Mn6  1  0.98849133  0.96872706  0.97936477  1
  Mn  Mn7  1  0.78852112  0.05146152  0.58856876  1
  Mn  Mn8  1  0.18566794  0.92753193  0.39317007  1
  Mn  Mn9  1  0.51945439  0.50724562  0.01328801  1
  Sb  Sb10  1  0.89180654  0.97112040  0.45813308  1
  Sb  Sb11  1  0.10870690  0.98575336  0.55004559  1
  Sb  Sb12  1  0.02555084  0.52424759  0.80271835  1
  Sb  Sb13  1  0.96868302  0.48217304  0.19024109  1
  Sb  Sb14  1  0.40787343  0.49011145  0.46237073  1
  Sb  Sb15  1  0.60021189  0.46813713  0.56257268  1
  Sb  Sb16  1  0.52669192  0.01224832  0.81597298  1
  Sb  Sb17  1  0.46657801  0.97091268  0.18676392  1
  S  S18  1  0.93290492  0.01186372  0.79249509  1
  S  S19  1  0.07167275  0.99549520  0.20469357  1
  S  S20  1  0.41561433  0.96322819  0.98104925  1
  S  S21  1  0.59300812  0.99343843  0.02847682  1
  S  S22  1  0.18395149  0.02088585  0.91040055  1
  S  S23  1  0.82401105  0.02116076  0.10167244  1
  S  S24  1  0.09819132  0.45626561  0.65926227  1
  S  S25  1  0.89177063  0.46405520  0.34513485  1
  S  S26  1  0.74281869  0.97927457  0.31821744  1
  S  S27  1  0.25461049  0.93409824  0.68828472  1
  S  S28  1  0.16248990  0.43720553  0.44965375  1
  S  S29  1  0.83729119  0.50791232  0.54943558  1
  S  S30  1  0.45372523  0.48554226  0.82646998  1
  S  S31  1  0.56547576  0.53727071  0.20066018  1
  S  S32  1  0.92235298  0.48976764  0.98858876  1
  S  S33  1  0.07285971  0.43925570  0.99970934  1
  S  S34  1  0.67518382  0.47412154  0.89035039  1
  S  S35  1  0.33844151  0.50840854  0.10634531  1
  S  S36  1  0.60077852  0.97315153  0.66844955  1
  S  S37  1  0.43017409  0.98664549  0.37157245  1
  S  S38  1  0.25531928  0.44353856  0.29053910  1
  S  S39  1  0.76370987  0.47561212  0.66642659  1
  S  S40  1  0.65983274  0.00988382  0.43678155  1
  S  S41  1  0.31738521  0.99603985  0.51823839  1
