# generated using pymatgen
data_Pr2Mn3(SbS3)4
_symmetry_space_group_name_H-M   'P 1'
_cell_length_a   20.02960800
_cell_length_b   3.90410600
_cell_length_c   14.95364829
_cell_angle_alpha   90.00000000
_cell_angle_beta   126.33350609
_cell_angle_gamma   90.00000000
_symmetry_Int_Tables_number   1
_chemical_formula_structural   Pr2Mn3(SbS3)4
_chemical_formula_sum   'Pr4 Mn6 Sb8 S24'
_cell_volume   942.00006694
_cell_formula_units_Z   2
loop_
 _symmetry_equiv_pos_site_id
 _symmetry_equiv_pos_as_xyz
  1  'x, y, z'
loop_
 _atom_site_type_symbol
 _atom_site_label
 _atom_site_symmetry_multiplicity
 _atom_site_fract_x
 _atom_site_fract_y
 _atom_site_fract_z
 _atom_site_occupancy
  Pr  Pr0  1  0.26291782  0.50234247  0.86317378  1
  Pr  Pr1  1  0.72984616  0.53242803  0.12906566  1
  Pr  Pr2  1  0.77443801  0.98088193  0.88216987  1
  Pr  Pr3  1  0.24072550  0.95069419  0.14077172  1
  Mn  Mn4  1  0.28305320  0.59383083  0.57765937  1
  Mn  Mn5  1  0.70762148  0.50489576  0.39261178  1
  Mn  Mn6  1  0.98835652  0.96909528  0.97915483  1
  Mn  Mn7  1  0.78858584  0.05180943  0.58836475  1
  Mn  Mn8  1  0.18537038  0.92830407  0.39275901  1
  Mn  Mn9  1  0.51947964  0.50723542  0.01304530  1
  Sb  Sb10  1  0.89183961  0.97057128  0.45803041  1
  Sb  Sb11  1  0.10875267  0.98577694  0.55012341  1
  Sb  Sb12  1  0.02548322  0.52460162  0.80284750  1
  Sb  Sb13  1  0.96880898  0.48174869  0.19039784  1
  Sb  Sb14  1  0.40790214  0.49028894  0.46224800  1
  Sb  Sb15  1  0.60015208  0.46751279  0.56261304  1
  Sb  Sb16  1  0.52641450  0.01260838  0.81577097  1
  Sb  Sb17  1  0.46661185  0.97094563  0.18675975  1
  S  S18  1  0.93286698  0.01260671  0.79230391  1
  S  S19  1  0.07169191  0.99491406  0.20479534  1
  S  S20  1  0.41585230  0.96226162  0.98154744  1
  S  S21  1  0.59309065  0.99344215  0.02857690  1
  S  S22  1  0.18386604  0.02182506  0.91052386  1
  S  S23  1  0.82428148  0.01996051  0.10176625  1
  S  S24  1  0.09825339  0.45618916  0.65926371  1
  S  S25  1  0.89163450  0.46432559  0.34505709  1
  S  S26  1  0.74294579  0.97824677  0.31829551  1
  S  S27  1  0.25462145  0.93486034  0.68842425  1
  S  S28  1  0.16257085  0.43803663  0.44924518  1
  S  S29  1  0.83719148  0.50747768  0.54968330  1
  S  S30  1  0.45398736  0.48490344  0.82671779  1
  S  S31  1  0.56523753  0.53750606  0.20021948  1
  S  S32  1  0.92215805  0.48939512  0.98876585  1
  S  S33  1  0.07286232  0.43915032  0.99983331  1
  S  S34  1  0.67535528  0.47546131  0.89073429  1
  S  S35  1  0.33830321  0.50982700  0.10644952  1
  S  S36  1  0.60065746  0.97120077  0.66817641  1
  S  S37  1  0.43011188  0.98808716  0.37194163  1
  S  S38  1  0.25538586  0.44498582  0.29051592  1
  S  S39  1  0.76378486  0.47547988  0.66650982  1
  S  S40  1  0.66008541  0.00800395  0.43697718  1
  S  S41  1  0.31750373  0.99667356  0.51810127  1
