# generated using pymatgen
data_Pr2Mn3(SbS3)4
_symmetry_space_group_name_H-M   'P 1'
_cell_length_a   20.02960800
_cell_length_b   3.90410600
_cell_length_c   14.95364829
_cell_angle_alpha   90.00000000
_cell_angle_beta   126.33350609
_cell_angle_gamma   90.00000000
_symmetry_Int_Tables_number   1
_chemical_formula_structural   Pr2Mn3(SbS3)4
_chemical_formula_sum   'Pr4 Mn6 Sb8 S24'
_cell_volume   942.00006694
_cell_formula_units_Z   2
loop_
 _symmetry_equiv_pos_site_id
 _symmetry_equiv_pos_as_xyz
  1  'x, y, z'
loop_
 _atom_site_type_symbol
 _atom_site_label
 _atom_site_symmetry_multiplicity
 _atom_site_fract_x
 _atom_site_fract_y
 _atom_site_fract_z
 _atom_site_occupancy
  Pr  Pr0  1  0.26284924  0.50299692  0.86303604  1
  Pr  Pr1  1  0.72979582  0.53264410  0.12894893  1
  Pr  Pr2  1  0.77435879  0.98117811  0.88199428  1
  Pr  Pr3  1  0.24057079  0.95079816  0.14077402  1
  Mn  Mn4  1  0.28311052  0.59385467  0.57762739  1
  Mn  Mn5  1  0.70758293  0.50434618  0.39257664  1
  Mn  Mn6  1  0.98811375  0.96916348  0.97887200  1
  Mn  Mn7  1  0.78864649  0.05170008  0.58824978  1
  Mn  Mn8  1  0.18493333  0.92924932  0.39226297  1
  Mn  Mn9  1  0.51949534  0.50755450  0.01285307  1
  Sb  Sb10  1  0.89187237  0.96966812  0.45788710  1
  Sb  Sb11  1  0.10881463  0.98605424  0.55010088  1
  Sb  Sb12  1  0.02537662  0.52471938  0.80294710  1
  Sb  Sb13  1  0.96894731  0.48081150  0.19054378  1
  Sb  Sb14  1  0.40791488  0.49075089  0.46199216  1
  Sb  Sb15  1  0.60013440  0.46697132  0.56272671  1
  Sb  Sb16  1  0.52609749  0.01271089  0.81544715  1
  Sb  Sb17  1  0.46658669  0.97116445  0.18666532  1
  S  S18  1  0.93284628  0.01338422  0.79210130  1
  S  S19  1  0.07168448  0.99402016  0.20484164  1
  S  S20  1  0.41604049  0.96148169  0.98205130  1
  S  S21  1  0.59323151  0.99417411  0.02868595  1
  S  S22  1  0.18378506  0.02198435  0.91060172  1
  S  S23  1  0.82460210  0.01917412  0.10195171  1
  S  S24  1  0.09825417  0.45680940  0.65918535  1
  S  S25  1  0.89160430  0.46453130  0.34486218  1
  S  S26  1  0.74300501  0.97681037  0.31838410  1
  S  S27  1  0.25477603  0.93569361  0.68877753  1
  S  S28  1  0.16274076  0.43882119  0.44893664  1
  S  S29  1  0.83704435  0.50727528  0.54994496  1
  S  S30  1  0.45416080  0.48381438  0.82684506  1
  S  S31  1  0.56486601  0.53705741  0.19944603  1
  S  S32  1  0.92191527  0.48927414  0.98885198  1
  S  S33  1  0.07290303  0.43886322  0.00003919  1
  S  S34  1  0.67550111  0.47639897  0.89099390  1
  S  S35  1  0.33828846  0.51143034  0.10664222  1
  S  S36  1  0.60045668  0.96918209  0.66780340  1
  S  S37  1  0.43008757  0.98956089  0.37211634  1
  S  S38  1  0.25548915  0.44645693  0.29047326  1
  S  S39  1  0.76391834  0.47484408  0.66677641  1
  S  S40  1  0.66044223  0.00659974  0.43719205  1
  S  S41  1  0.31763791  0.99754748  0.51808333  1
