# generated using pymatgen
data_Pr2Mn3(SbS3)4
_symmetry_space_group_name_H-M   'P 1'
_cell_length_a   20.02960800
_cell_length_b   3.90410600
_cell_length_c   14.95364829
_cell_angle_alpha   90.00000000
_cell_angle_beta   126.33350609
_cell_angle_gamma   90.00000000
_symmetry_Int_Tables_number   1
_chemical_formula_structural   Pr2Mn3(SbS3)4
_chemical_formula_sum   'Pr4 Mn6 Sb8 S24'
_cell_volume   942.00006694
_cell_formula_units_Z   2
loop_
 _symmetry_equiv_pos_site_id
 _symmetry_equiv_pos_as_xyz
  1  'x, y, z'
loop_
 _atom_site_type_symbol
 _atom_site_label
 _atom_site_symmetry_multiplicity
 _atom_site_fract_x
 _atom_site_fract_y
 _atom_site_fract_z
 _atom_site_occupancy
  Pr  Pr0  1  0.26274708  0.50340999  0.86286100  1
  Pr  Pr1  1  0.72979687  0.53317079  0.12891589  1
  Pr  Pr2  1  0.77435925  0.98131795  0.88182663  1
  Pr  Pr3  1  0.24047402  0.95090025  0.14090108  1
  Mn  Mn4  1  0.28321299  0.59326422  0.57765979  1
  Mn  Mn5  1  0.70764787  0.50388582  0.39267311  1
  Mn  Mn6  1  0.98797536  0.96916042  0.97863875  1
  Mn  Mn7  1  0.78876232  0.05196650  0.58807114  1
  Mn  Mn8  1  0.18453935  0.93019148  0.39184928  1
  Mn  Mn9  1  0.51951168  0.50781877  0.01284840  1
  Sb  Sb10  1  0.89188877  0.96880843  0.45772683  1
  Sb  Sb11  1  0.10880834  0.98625260  0.54998466  1
  Sb  Sb12  1  0.02526972  0.52460955  0.80302099  1
  Sb  Sb13  1  0.96907066  0.48018254  0.19067106  1
  Sb  Sb14  1  0.40790044  0.49094171  0.46170068  1
  Sb  Sb15  1  0.60009282  0.46634022  0.56279299  1
  Sb  Sb16  1  0.52588476  0.01299166  0.81532924  1
  Sb  Sb17  1  0.46654303  0.97156069  0.18651982  1
  S  S18  1  0.93287686  0.01347658  0.79190395  1
  S  S19  1  0.07166231  0.99264043  0.20483261  1
  S  S20  1  0.41630978  0.96025821  0.98250241  1
  S  S21  1  0.59344386  0.99440388  0.02890220  1
  S  S22  1  0.18376578  0.02167149  0.91067965  1
  S  S23  1  0.82484685  0.01914732  0.10213093  1
  S  S24  1  0.09825565  0.45684380  0.65905535  1
  S  S25  1  0.89160514  0.46538965  0.34465102  1
  S  S26  1  0.74298046  0.97571779  0.31852310  1
  S  S27  1  0.25484656  0.93656439  0.68914029  1
  S  S28  1  0.16280894  0.43929144  0.44857133  1
  S  S29  1  0.83693685  0.50774383  0.55023635  1
  S  S30  1  0.45430874  0.48200201  0.82697688  1
  S  S31  1  0.56454789  0.53677772  0.19860246  1
  S  S32  1  0.92180674  0.48912457  0.98894554  1
  S  S33  1  0.07287131  0.43878707  0.00021226  1
  S  S34  1  0.67564462  0.47721494  0.89112088  1
  S  S35  1  0.33826994  0.51253177  0.10670570  1
  S  S36  1  0.60032981  0.96740908  0.66771039  1
  S  S37  1  0.43007116  0.99020165  0.37218220  1
  S  S38  1  0.25547536  0.44836841  0.29040575  1
  S  S39  1  0.76406846  0.47474021  0.66699215  1
  S  S40  1  0.66082733  0.00555415  0.43745558  1
  S  S41  1  0.31771403  0.99864150  0.51823088  1
