# generated using pymatgen
data_Pr2Mn3(SbS3)4
_symmetry_space_group_name_H-M   'P 1'
_cell_length_a   20.02960800
_cell_length_b   3.90410600
_cell_length_c   14.95364829
_cell_angle_alpha   90.00000000
_cell_angle_beta   126.33350609
_cell_angle_gamma   90.00000000
_symmetry_Int_Tables_number   1
_chemical_formula_structural   Pr2Mn3(SbS3)4
_chemical_formula_sum   'Pr4 Mn6 Sb8 S24'
_cell_volume   942.00006694
_cell_formula_units_Z   2
loop_
 _symmetry_equiv_pos_site_id
 _symmetry_equiv_pos_as_xyz
  1  'x, y, z'
loop_
 _atom_site_type_symbol
 _atom_site_label
 _atom_site_symmetry_multiplicity
 _atom_site_fract_x
 _atom_site_fract_y
 _atom_site_fract_z
 _atom_site_occupancy
  Pr  Pr0  1  0.26260674  0.50383557  0.86266172  1
  Pr  Pr1  1  0.72975356  0.53350285  0.12886896  1
  Pr  Pr2  1  0.77433503  0.98141440  0.88169051  1
  Pr  Pr3  1  0.24040113  0.95132330  0.14100913  1
  Mn  Mn4  1  0.28330664  0.59258554  0.57746261  1
  Mn  Mn5  1  0.70763234  0.50397942  0.39265927  1
  Mn  Mn6  1  0.98788493  0.96880318  0.97857275  1
  Mn  Mn7  1  0.78884047  0.05224658  0.58788058  1
  Mn  Mn8  1  0.18434188  0.93107419  0.39151341  1
  Mn  Mn9  1  0.51949491  0.50806257  0.01277319  1
  Sb  Sb10  1  0.89194336  0.96789730  0.45768109  1
  Sb  Sb11  1  0.10873180  0.98642845  0.54978814  1
  Sb  Sb12  1  0.02519154  0.52444094  0.80320757  1
  Sb  Sb13  1  0.96926042  0.47987784  0.19081547  1
  Sb  Sb14  1  0.40787383  0.49124462  0.46155363  1
  Sb  Sb15  1  0.59993804  0.46566056  0.56273608  1
  Sb  Sb16  1  0.52575611  0.01338083  0.81532524  1
  Sb  Sb17  1  0.46642246  0.97222128  0.18627813  1
  S  S18  1  0.93284396  0.01396511  0.79170830  1
  S  S19  1  0.07174270  0.99153154  0.20485093  1
  S  S20  1  0.41653966  0.95965639  0.98273827  1
  S  S21  1  0.59358006  0.99501879  0.02893343  1
  S  S22  1  0.18375131  0.02111204  0.91076644  1
  S  S23  1  0.82508120  0.01911033  0.10242446  1
  S  S24  1  0.09835207  0.45691073  0.65906115  1
  S  S25  1  0.89141290  0.46557729  0.34427275  1
  S  S26  1  0.74285455  0.97492242  0.31848560  1
  S  S27  1  0.25508832  0.93688140  0.68955146  1
  S  S28  1  0.16282280  0.44004443  0.44816888  1
  S  S29  1  0.83689765  0.50809267  0.55038527  1
  S  S30  1  0.45454527  0.48048660  0.82732439  1
  S  S31  1  0.56424756  0.53601429  0.19785498  1
  S  S32  1  0.92169466  0.48863542  0.98905418  1
  S  S33  1  0.07269777  0.43879593  0.00036591  1
  S  S34  1  0.67607720  0.47839344  0.89166477  1
  S  S35  1  0.33817608  0.51356307  0.10660312  1
  S  S36  1  0.60038107  0.96594457  0.66765743  1
  S  S37  1  0.43022146  0.99082427  0.37234045  1
  S  S38  1  0.25555144  0.45008158  0.29052676  1
  S  S39  1  0.76415944  0.47462514  0.66735976  1
  S  S40  1  0.66120503  0.00439211  0.43755240  1
  S  S41  1  0.31786680  0.00052013  0.51863046  1
