# generated using pymatgen
data_Pr2Mn3(SbS3)4
_symmetry_space_group_name_H-M   'P 1'
_cell_length_a   20.02960800
_cell_length_b   3.90410600
_cell_length_c   14.95364829
_cell_angle_alpha   90.00000000
_cell_angle_beta   126.33350609
_cell_angle_gamma   90.00000000
_symmetry_Int_Tables_number   1
_chemical_formula_structural   Pr2Mn3(SbS3)4
_chemical_formula_sum   'Pr4 Mn6 Sb8 S24'
_cell_volume   942.00006694
_cell_formula_units_Z   2
loop_
 _symmetry_equiv_pos_site_id
 _symmetry_equiv_pos_as_xyz
  1  'x, y, z'
loop_
 _atom_site_type_symbol
 _atom_site_label
 _atom_site_symmetry_multiplicity
 _atom_site_fract_x
 _atom_site_fract_y
 _atom_site_fract_z
 _atom_site_occupancy
  Pr  Pr0  1  0.26251861  0.50425769  0.86259125  1
  Pr  Pr1  1  0.72980089  0.53386853  0.12894149  1
  Pr  Pr2  1  0.77434401  0.98109868  0.88153440  1
  Pr  Pr3  1  0.24030317  0.95153622  0.14113737  1
  Mn  Mn4  1  0.28344868  0.59190380  0.57734297  1
  Mn  Mn5  1  0.70753704  0.50418955  0.39258265  1
  Mn  Mn6  1  0.98771168  0.96857452  0.97849308  1
  Mn  Mn7  1  0.78885917  0.05252050  0.58773752  1
  Mn  Mn8  1  0.18417166  0.93181018  0.39115978  1
  Mn  Mn9  1  0.51952756  0.50848321  0.01273560  1
  Sb  Sb10  1  0.89192932  0.96683294  0.45752716  1
  Sb  Sb11  1  0.10860381  0.98692568  0.54946154  1
  Sb  Sb12  1  0.02510084  0.52446165  0.80336461  1
  Sb  Sb13  1  0.96946702  0.47948013  0.19096633  1
  Sb  Sb14  1  0.40783678  0.49125008  0.46146479  1
  Sb  Sb15  1  0.59975995  0.46534994  0.56269148  1
  Sb  Sb16  1  0.52567380  0.01375353  0.81532738  1
  Sb  Sb17  1  0.46632475  0.97265829  0.18603218  1
  S  S18  1  0.93288015  0.01461366  0.79167725  1
  S  S19  1  0.07180609  0.99062071  0.20489202  1
  S  S20  1  0.41678513  0.95911847  0.98296952  1
  S  S21  1  0.59361409  0.99551654  0.02872224  1
  S  S22  1  0.18407152  0.02079741  0.91122802  1
  S  S23  1  0.82516879  0.01911654  0.10259076  1
  S  S24  1  0.09869744  0.45668009  0.65931456  1
  S  S25  1  0.89142952  0.46598513  0.34399152  1
  S  S26  1  0.74253788  0.97401579  0.31823457  1
  S  S27  1  0.25530023  0.93717848  0.68997292  1
  S  S28  1  0.16267792  0.44018286  0.44761449  1
  S  S29  1  0.83680674  0.50849384  0.55040380  1
  S  S30  1  0.45478351  0.47862438  0.82769237  1
  S  S31  1  0.56425860  0.53509483  0.19728760  1
  S  S32  1  0.92149583  0.48805180  0.98911424  1
  S  S33  1  0.07241740  0.43866856  0.00056695  1
  S  S34  1  0.67651906  0.47995589  0.89197763  1
  S  S35  1  0.33807719  0.51476489  0.10638655  1
  S  S36  1  0.60032822  0.96497776  0.66768858  1
  S  S37  1  0.43034399  0.99107980  0.37241452  1
  S  S38  1  0.25545293  0.45212482  0.29045406  1
  S  S39  1  0.76418657  0.47404987  0.66771572  1
  S  S40  1  0.66163982  0.00280157  0.43793154  1
  S  S41  1  0.31809589  0.00270610  0.51897231  1
