# generated using pymatgen
data_Pr2Mn3(SbS3)4
_symmetry_space_group_name_H-M   'P 1'
_cell_length_a   20.02960800
_cell_length_b   3.90410600
_cell_length_c   14.95364829
_cell_angle_alpha   90.00000000
_cell_angle_beta   126.33350609
_cell_angle_gamma   90.00000000
_symmetry_Int_Tables_number   1
_chemical_formula_structural   Pr2Mn3(SbS3)4
_chemical_formula_sum   'Pr4 Mn6 Sb8 S24'
_cell_volume   942.00006694
_cell_formula_units_Z   2
loop_
 _symmetry_equiv_pos_site_id
 _symmetry_equiv_pos_as_xyz
  1  'x, y, z'
loop_
 _atom_site_type_symbol
 _atom_site_label
 _atom_site_symmetry_multiplicity
 _atom_site_fract_x
 _atom_site_fract_y
 _atom_site_fract_z
 _atom_site_occupancy
  Pr  Pr0  1  0.26247759  0.50499350  0.86259374  1
  Pr  Pr1  1  0.72981670  0.53413502  0.12900490  1
  Pr  Pr2  1  0.77438000  0.98053352  0.88140668  1
  Pr  Pr3  1  0.24014829  0.95189378  0.14123241  1
  Mn  Mn4  1  0.28354695  0.59111775  0.57711807  1
  Mn  Mn5  1  0.70744039  0.50410549  0.39247833  1
  Mn  Mn6  1  0.98746575  0.96838710  0.97834836  1
  Mn  Mn7  1  0.78888671  0.05242897  0.58762495  1
  Mn  Mn8  1  0.18403706  0.93227073  0.39093174  1
  Mn  Mn9  1  0.51951863  0.50864417  0.01266012  1
  Sb  Sb10  1  0.89191470  0.96614854  0.45744512  1
  Sb  Sb11  1  0.10849242  0.98749623  0.54925719  1
  Sb  Sb12  1  0.02506257  0.52435712  0.80356484  1
  Sb  Sb13  1  0.96964212  0.47888122  0.19113638  1
  Sb  Sb14  1  0.40779488  0.49140112  0.46130479  1
  Sb  Sb15  1  0.59966647  0.46509232  0.56266659  1
  Sb  Sb16  1  0.52565111  0.01421966  0.81539603  1
  Sb  Sb17  1  0.46627970  0.97304689  0.18596532  1
  S  S18  1  0.93291975  0.01514963  0.79165687  1
  S  S19  1  0.07171407  0.98931201  0.20461600  1
  S  S20  1  0.41703852  0.95878339  0.98329770  1
  S  S21  1  0.59355433  0.99594607  0.02841187  1
  S  S22  1  0.18454673  0.02058145  0.91173751  1
  S  S23  1  0.82516995  0.01885714  0.10259114  1
  S  S24  1  0.09904656  0.45623608  0.65943658  1
  S  S25  1  0.89138930  0.46622114  0.34371039  1
  S  S26  1  0.74209057  0.97322921  0.31788543  1
  S  S27  1  0.25536727  0.93786421  0.69018443  1
  S  S28  1  0.16257233  0.44017139  0.44724636  1
  S  S29  1  0.83690100  0.50899715  0.55067336  1
  S  S30  1  0.45499265  0.47771179  0.82814526  1
  S  S31  1  0.56438657  0.53436136  0.19675580  1
  S  S32  1  0.92124805  0.48797413  0.98910737  1
  S  S33  1  0.07221670  0.43914614  0.00088171  1
  S  S34  1  0.67695117  0.48058345  0.89242905  1
  S  S35  1  0.33777121  0.51666883  0.10600542  1
  S  S36  1  0.60015323  0.96375270  0.66775409  1
  S  S37  1  0.43040892  0.99118040  0.37247250  1
  S  S38  1  0.25556198  0.45480234  0.29061973  1
  S  S39  1  0.76403525  0.47335382  0.66799803  1
  S  S40  1  0.66208334  0.00150877  0.43828219  1
  S  S41  1  0.31818024  0.00449135  0.51923978  1
