# generated using pymatgen
data_Pr2Mn3(SbS3)4
_symmetry_space_group_name_H-M   'P 1'
_cell_length_a   20.02960800
_cell_length_b   3.90410600
_cell_length_c   14.95364829
_cell_angle_alpha   90.00000000
_cell_angle_beta   126.33350609
_cell_angle_gamma   90.00000000
_symmetry_Int_Tables_number   1
_chemical_formula_structural   Pr2Mn3(SbS3)4
_chemical_formula_sum   'Pr4 Mn6 Sb8 S24'
_cell_volume   942.00006694
_cell_formula_units_Z   2
loop_
 _symmetry_equiv_pos_site_id
 _symmetry_equiv_pos_as_xyz
  1  'x, y, z'
loop_
 _atom_site_type_symbol
 _atom_site_label
 _atom_site_symmetry_multiplicity
 _atom_site_fract_x
 _atom_site_fract_y
 _atom_site_fract_z
 _atom_site_occupancy
  Pr  Pr0  1  0.26980939  0.50063014  0.86748326  1
  Pr  Pr1  1  0.73332960  0.51391872  0.13291419  1
  Pr  Pr2  1  0.76558345  0.02622417  0.86563323  1
  Pr  Pr3  1  0.23259297  0.99073727  0.13209271  1
  Mn  Mn4  1  0.29924576  0.46954103  0.60399937  1
  Mn  Mn5  1  0.68448633  0.46173650  0.36079200  1
  Mn  Mn6  1  0.00300372  0.98963124  0.01020832  1
  Mn  Mn7  1  0.79607702  0.01429438  0.61797063  1
  Mn  Mn8  1  0.19409031  0.98253533  0.36639558  1
  Mn  Mn9  1  0.48492676  0.46998132  0.98470379  1
  Sb  Sb10  1  0.88997188  0.98565227  0.44951927  1
  Sb  Sb11  1  0.10993381  0.98261145  0.54587217  1
  Sb  Sb12  1  0.03570524  0.53266681  0.82099567  1
  Sb  Sb13  1  0.96687083  0.49965610  0.18886103  1
  Sb  Sb14  1  0.39322190  0.50070537  0.44916241  1
  Sb  Sb15  1  0.60832997  0.47833739  0.54653014  1
  Sb  Sb16  1  0.53322844  0.97719540  0.80710552  1
  Sb  Sb17  1  0.46547328  0.02150497  0.18872487  1
  S  S18  1  0.93567553  0.01500497  0.80857334  1
  S  S19  1  0.06600242  0.01400775  0.20213417  1
  S  S20  1  0.41645564  0.97058314  0.98751632  1
  S  S21  1  0.58659127  0.03995380  0.01711203  1
  S  S22  1  0.17013232  0.04945353  0.90105471  1
  S  S23  1  0.82681130  0.03272020  0.10377674  1
  S  S24  1  0.08941950  0.49538192  0.64402647  1
  S  S25  1  0.91398489  0.48534359  0.35364697  1
  S  S26  1  0.73990494  0.99848731  0.30194193  1
  S  S27  1  0.25698198  0.00986752  0.70431128  1
  S  S28  1  0.16825928  0.52109868  0.43519924  1
  S  S29  1  0.81046601  0.50176110  0.53877782  1
  S  S30  1  0.43036388  0.46691424  0.79572912  1
  S  S31  1  0.55312360  0.51836881  0.18172136  1
  S  S32  1  0.92211219  0.50167739  0.99460910  1
  S  S33  1  0.08958688  0.49572425  0.02703486  1
  S  S34  1  0.66579400  0.55612227  0.89631414  1
  S  S35  1  0.32871415  0.47833764  0.09360477  1
  S  S36  1  0.58855149  0.98818146  0.64939955  1
  S  S37  1  0.39761186  0.97867580  0.34069246  1
  S  S38  1  0.24586207  0.47540285  0.31827251  1
  S  S39  1  0.75853077  0.53035942  0.68655838  1
  S  S40  1  0.66440363  0.99148248  0.44665287  1
  S  S41  1  0.33094868  0.98703565  0.55661315  1
