# generated using pymatgen
data_Pr2Mn3(SbS3)4
_symmetry_space_group_name_H-M   'P 1'
_cell_length_a   20.02960800
_cell_length_b   3.90410600
_cell_length_c   14.95364829
_cell_angle_alpha   90.00000000
_cell_angle_beta   126.33350609
_cell_angle_gamma   90.00000000
_symmetry_Int_Tables_number   1
_chemical_formula_structural   Pr2Mn3(SbS3)4
_chemical_formula_sum   'Pr4 Mn6 Sb8 S24'
_cell_volume   942.00006694
_cell_formula_units_Z   2
loop_
 _symmetry_equiv_pos_site_id
 _symmetry_equiv_pos_as_xyz
  1  'x, y, z'
loop_
 _atom_site_type_symbol
 _atom_site_label
 _atom_site_symmetry_multiplicity
 _atom_site_fract_x
 _atom_site_fract_y
 _atom_site_fract_z
 _atom_site_occupancy
  Pr  Pr0  1  0.26248297  0.50546746  0.86258965  1
  Pr  Pr1  1  0.72975421  0.53445955  0.12905323  1
  Pr  Pr2  1  0.77448837  0.97998973  0.88137568  1
  Pr  Pr3  1  0.24001353  0.95241930  0.14132714  1
  Mn  Mn4  1  0.28377554  0.59035670  0.57698476  1
  Mn  Mn5  1  0.70742416  0.50376302  0.39233100  1
  Mn  Mn6  1  0.98727985  0.96847113  0.97831291  1
  Mn  Mn7  1  0.78884999  0.05240047  0.58759902  1
  Mn  Mn8  1  0.18400015  0.93279151  0.39081902  1
  Mn  Mn9  1  0.51953506  0.50880249  0.01270164  1
  Sb  Sb10  1  0.89187545  0.96559105  0.45741732  1
  Sb  Sb11  1  0.10835566  0.98791789  0.54908064  1
  Sb  Sb12  1  0.02502863  0.52402533  0.80371483  1
  Sb  Sb13  1  0.96977656  0.47843152  0.19130522  1
  Sb  Sb14  1  0.40777736  0.49122947  0.46114571  1
  Sb  Sb15  1  0.59964269  0.46442125  0.56272173  1
  Sb  Sb16  1  0.52568523  0.01467761  0.81559714  1
  Sb  Sb17  1  0.46627183  0.97330369  0.18596432  1
  S  S18  1  0.93299611  0.01536277  0.79178293  1
  S  S19  1  0.07148414  0.98805879  0.20429878  1
  S  S20  1  0.41738474  0.95849227  0.98347602  1
  S  S21  1  0.59354958  0.99605534  0.02807638  1
  S  S22  1  0.18491300  0.02028559  0.91213607  1
  S  S23  1  0.82508805  0.01869184  0.10253090  1
  S  S24  1  0.09948413  0.45642140  0.65962147  1
  S  S25  1  0.89137223  0.46663142  0.34340772  1
  S  S26  1  0.74177268  0.97228183  0.31773552  1
  S  S27  1  0.25533853  0.93837113  0.69019896  1
  S  S28  1  0.16242182  0.44011832  0.44682938  1
  S  S29  1  0.83694886  0.50980618  0.55087996  1
  S  S30  1  0.45509801  0.47703586  0.82853788  1
  S  S31  1  0.56446235  0.53373816  0.19628528  1
  S  S32  1  0.92096353  0.48708847  0.98901409  1
  S  S33  1  0.07194343  0.43941505  0.00115065  1
  S  S34  1  0.67736055  0.48081900  0.89275053  1
  S  S35  1  0.33747281  0.51863849  0.10578059  1
  S  S36  1  0.60011804  0.96271705  0.66787853  1
  S  S37  1  0.43043960  0.99146975  0.37241554  1
  S  S38  1  0.25562193  0.45712214  0.29068842  1
  S  S39  1  0.76387637  0.47251034  0.66828155  1
  S  S40  1  0.66247412  0.00016634  0.43869188  1
  S  S41  1  0.31814096  0.00622692  0.51953143  1
