# generated using pymatgen
data_Pr2Mn3(SbS3)4
_symmetry_space_group_name_H-M   'P 1'
_cell_length_a   20.02960800
_cell_length_b   3.90410600
_cell_length_c   14.95364829
_cell_angle_alpha   90.00000000
_cell_angle_beta   126.33350609
_cell_angle_gamma   90.00000000
_symmetry_Int_Tables_number   1
_chemical_formula_structural   Pr2Mn3(SbS3)4
_chemical_formula_sum   'Pr4 Mn6 Sb8 S24'
_cell_volume   942.00006694
_cell_formula_units_Z   2
loop_
 _symmetry_equiv_pos_site_id
 _symmetry_equiv_pos_as_xyz
  1  'x, y, z'
loop_
 _atom_site_type_symbol
 _atom_site_label
 _atom_site_symmetry_multiplicity
 _atom_site_fract_x
 _atom_site_fract_y
 _atom_site_fract_z
 _atom_site_occupancy
  Pr  Pr0  1  0.26250430  0.50597124  0.86258204  1
  Pr  Pr1  1  0.72970394  0.53496230  0.12907309  1
  Pr  Pr2  1  0.77464038  0.97932499  0.88136402  1
  Pr  Pr3  1  0.23989761  0.95304108  0.14151774  1
  Mn  Mn4  1  0.28402973  0.58997274  0.57683245  1
  Mn  Mn5  1  0.70750091  0.50375785  0.39224262  1
  Mn  Mn6  1  0.98703740  0.96826148  0.97829107  1
  Mn  Mn7  1  0.78883236  0.05245262  0.58759134  1
  Mn  Mn8  1  0.18393591  0.93346053  0.39060594  1
  Mn  Mn9  1  0.51944610  0.50864547  0.01257585  1
  Sb  Sb10  1  0.89183737  0.96518186  0.45742720  1
  Sb  Sb11  1  0.10814198  0.98817802  0.54886737  1
  Sb  Sb12  1  0.02501243  0.52379772  0.80389195  1
  Sb  Sb13  1  0.96989694  0.47791404  0.19145103  1
  Sb  Sb14  1  0.40771850  0.49113342  0.46098439  1
  Sb  Sb15  1  0.59962299  0.46388227  0.56277402  1
  Sb  Sb16  1  0.52567835  0.01535516  0.81578862  1
  Sb  Sb17  1  0.46625137  0.97328879  0.18594792  1
  S  S18  1  0.93301437  0.01595993  0.79179355  1
  S  S19  1  0.07116711  0.98727518  0.20399846  1
  S  S20  1  0.41772712  0.95838634  0.98358767  1
  S  S21  1  0.59338353  0.99561114  0.02762805  1
  S  S22  1  0.18552108  0.01957340  0.91275434  1
  S  S23  1  0.82497189  0.01847741  0.10242276  1
  S  S24  1  0.09990885  0.45697982  0.65983705  1
  S  S25  1  0.89139535  0.46726037  0.34304453  1
  S  S26  1  0.74152564  0.97166158  0.31773685  1
  S  S27  1  0.25530625  0.93923572  0.69021073  1
  S  S28  1  0.16223484  0.44068048  0.44631816  1
  S  S29  1  0.83706748  0.51043655  0.55109649  1
  S  S30  1  0.45517806  0.47679862  0.82899527  1
  S  S31  1  0.56454298  0.53335574  0.19581326  1
  S  S32  1  0.92057923  0.48631752  0.98879132  1
  S  S33  1  0.07162118  0.44004404  0.00157430  1
  S  S34  1  0.67780615  0.48031797  0.89329118  1
  S  S35  1  0.33721847  0.51987013  0.10548880  1
  S  S36  1  0.59996393  0.96097655  0.66785452  1
  S  S37  1  0.43041542  0.99167208  0.37234009  1
  S  S38  1  0.25564175  0.45971248  0.29069165  1
  S  S39  1  0.76371080  0.47157292  0.66846222  1
  S  S40  1  0.66269147  0.99974067  0.43901258  1
  S  S41  1  0.31808569  0.00757466  0.51981679  1
