# generated using pymatgen
data_Pr2Mn3(SbS3)4
_symmetry_space_group_name_H-M   'P 1'
_cell_length_a   20.02960800
_cell_length_b   3.90410600
_cell_length_c   14.95364829
_cell_angle_alpha   90.00000000
_cell_angle_beta   126.33350609
_cell_angle_gamma   90.00000000
_symmetry_Int_Tables_number   1
_chemical_formula_structural   Pr2Mn3(SbS3)4
_chemical_formula_sum   'Pr4 Mn6 Sb8 S24'
_cell_volume   942.00006694
_cell_formula_units_Z   2
loop_
 _symmetry_equiv_pos_site_id
 _symmetry_equiv_pos_as_xyz
  1  'x, y, z'
loop_
 _atom_site_type_symbol
 _atom_site_label
 _atom_site_symmetry_multiplicity
 _atom_site_fract_x
 _atom_site_fract_y
 _atom_site_fract_z
 _atom_site_occupancy
  Pr  Pr0  1  0.26252959  0.50622036  0.86260499  1
  Pr  Pr1  1  0.72971798  0.53545524  0.12913775  1
  Pr  Pr2  1  0.77474179  0.97874649  0.88127641  1
  Pr  Pr3  1  0.23977975  0.95354573  0.14166755  1
  Mn  Mn4  1  0.28422274  0.58945813  0.57674397  1
  Mn  Mn5  1  0.70751449  0.50429382  0.39198151  1
  Mn  Mn6  1  0.98690450  0.96761427  0.97840640  1
  Mn  Mn7  1  0.78876556  0.05250568  0.58748834  1
  Mn  Mn8  1  0.18394867  0.93449518  0.39048802  1
  Mn  Mn9  1  0.51928632  0.50814549  0.01250525  1
  Sb  Sb10  1  0.89180579  0.96499139  0.45735668  1
  Sb  Sb11  1  0.10785262  0.98844649  0.54861033  1
  Sb  Sb12  1  0.02497711  0.52351307  0.80404425  1
  Sb  Sb13  1  0.97004302  0.47756843  0.19159894  1
  Sb  Sb14  1  0.40769344  0.49104798  0.46084744  1
  Sb  Sb15  1  0.59962356  0.46339013  0.56275071  1
  Sb  Sb16  1  0.52569707  0.01589845  0.81595487  1
  Sb  Sb17  1  0.46629826  0.97335459  0.18597157  1
  S  S18  1  0.93288798  0.01599016  0.79171312  1
  S  S19  1  0.07097821  0.98617911  0.20382738  1
  S  S20  1  0.41809358  0.95868423  0.98389086  1
  S  S21  1  0.59310331  0.99489268  0.02710931  1
  S  S22  1  0.18586225  0.01928744  0.91312346  1
  S  S23  1  0.82470820  0.01865388  0.10221476  1
  S  S24  1  0.10039328  0.45767037  0.66008029  1
  S  S25  1  0.89147581  0.46730342  0.34284947  1
  S  S26  1  0.74138112  0.97143077  0.31790189  1
  S  S27  1  0.25527449  0.93997409  0.68998827  1
  S  S28  1  0.16219361  0.44124196  0.44583897  1
  S  S29  1  0.83738720  0.51109445  0.55137236  1
  S  S30  1  0.45531074  0.47609359  0.82959785  1
  S  S31  1  0.56462801  0.53308958  0.19533817  1
  S  S32  1  0.92021322  0.48584017  0.98847842  1
  S  S33  1  0.07135288  0.44106129  0.00193897  1
  S  S34  1  0.67824944  0.47989163  0.89377520  1
  S  S35  1  0.33696378  0.52060473  0.10536408  1
  S  S36  1  0.59976947  0.96015065  0.66781106  1
  S  S37  1  0.43045436  0.99193784  0.37251539  1
  S  S38  1  0.25564255  0.46127584  0.29080807  1
  S  S39  1  0.76360181  0.47062004  0.66865845  1
  S  S40  1  0.66284428  0.99983358  0.43914589  1
  S  S41  1  0.31812915  0.00854562  0.52034727  1
