# generated using pymatgen
data_Pr2Mn3(SbS3)4
_symmetry_space_group_name_H-M   'P 1'
_cell_length_a   20.02960800
_cell_length_b   3.90410600
_cell_length_c   14.95364829
_cell_angle_alpha   90.00000000
_cell_angle_beta   126.33350609
_cell_angle_gamma   90.00000000
_symmetry_Int_Tables_number   1
_chemical_formula_structural   Pr2Mn3(SbS3)4
_chemical_formula_sum   'Pr4 Mn6 Sb8 S24'
_cell_volume   942.00006694
_cell_formula_units_Z   2
loop_
 _symmetry_equiv_pos_site_id
 _symmetry_equiv_pos_as_xyz
  1  'x, y, z'
loop_
 _atom_site_type_symbol
 _atom_site_label
 _atom_site_symmetry_multiplicity
 _atom_site_fract_x
 _atom_site_fract_y
 _atom_site_fract_z
 _atom_site_occupancy
  Pr  Pr0  1  0.26260516  0.50642875  0.86267232  1
  Pr  Pr1  1  0.72986756  0.53603376  0.12933661  1
  Pr  Pr2  1  0.77481967  0.97785641  0.88112633  1
  Pr  Pr3  1  0.23961732  0.95426130  0.14177555  1
  Mn  Mn4  1  0.28452824  0.58918903  0.57676512  1
  Mn  Mn5  1  0.70750893  0.50523075  0.39163717  1
  Mn  Mn6  1  0.98690991  0.96698665  0.97868655  1
  Mn  Mn7  1  0.78873595  0.05258669  0.58744386  1
  Mn  Mn8  1  0.18397514  0.93595490  0.39047856  1
  Mn  Mn9  1  0.51917695  0.50715749  0.01252006  1
  Sb  Sb10  1  0.89171644  0.96492085  0.45721472  1
  Sb  Sb11  1  0.10759454  0.98841874  0.54842831  1
  Sb  Sb12  1  0.02496928  0.52351815  0.80423554  1
  Sb  Sb13  1  0.97016267  0.47756491  0.19178328  1
  Sb  Sb14  1  0.40774817  0.49095044  0.46086866  1
  Sb  Sb15  1  0.59957418  0.46305087  0.56256629  1
  Sb  Sb16  1  0.52576021  0.01638528  0.81612940  1
  Sb  Sb17  1  0.46633734  0.97303712  0.18592839  1
  S  S18  1  0.93272152  0.01646633  0.79177031  1
  S  S19  1  0.07074616  0.98483172  0.20344174  1
  S  S20  1  0.41845746  0.95908668  0.98418588  1
  S  S21  1  0.59280393  0.99464228  0.02646510  1
  S  S22  1  0.18614672  0.01943675  0.91337242  1
  S  S23  1  0.82448607  0.01946324  0.10205852  1
  S  S24  1  0.10093933  0.45782075  0.66051772  1
  S  S25  1  0.89158007  0.46732797  0.34269443  1
  S  S26  1  0.74116950  0.97110573  0.31806989  1
  S  S27  1  0.25524602  0.94011611  0.68979729  1
  S  S28  1  0.16215807  0.44197368  0.44539567  1
  S  S29  1  0.83768600  0.51136995  0.55157224  1
  S  S30  1  0.45551392  0.47559549  0.83012962  1
  S  S31  1  0.56472840  0.53348765  0.19481717  1
  S  S32  1  0.91981921  0.48514358  0.98801849  1
  S  S33  1  0.07117814  0.44171785  0.00209783  1
  S  S34  1  0.67854883  0.47909873  0.89404148  1
  S  S35  1  0.33678475  0.52053305  0.10536954  1
  S  S36  1  0.59953605  0.96024956  0.66789293  1
  S  S37  1  0.43054248  0.99211178  0.37266720  1
  S  S38  1  0.25554489  0.46290602  0.29075639  1
  S  S39  1  0.76358881  0.46942162  0.66889584  1
  S  S40  1  0.66315657  0.00021370  0.43951583  1
  S  S41  1  0.31808594  0.01020124  0.52061814  1
