# generated using pymatgen
data_Pr2Mn3(SbS3)4
_symmetry_space_group_name_H-M   'P 1'
_cell_length_a   20.02960800
_cell_length_b   3.90410600
_cell_length_c   14.95364829
_cell_angle_alpha   90.00000000
_cell_angle_beta   126.33350609
_cell_angle_gamma   90.00000000
_symmetry_Int_Tables_number   1
_chemical_formula_structural   Pr2Mn3(SbS3)4
_chemical_formula_sum   'Pr4 Mn6 Sb8 S24'
_cell_volume   942.00006694
_cell_formula_units_Z   2
loop_
 _symmetry_equiv_pos_site_id
 _symmetry_equiv_pos_as_xyz
  1  'x, y, z'
loop_
 _atom_site_type_symbol
 _atom_site_label
 _atom_site_symmetry_multiplicity
 _atom_site_fract_x
 _atom_site_fract_y
 _atom_site_fract_z
 _atom_site_occupancy
  Pr  Pr0  1  0.26262767  0.50681307  0.86267104  1
  Pr  Pr1  1  0.72995758  0.53646600  0.12946113  1
  Pr  Pr2  1  0.77490208  0.97698009  0.88096590  1
  Pr  Pr3  1  0.23941060  0.95477123  0.14186292  1
  Mn  Mn4  1  0.28482120  0.58905611  0.57682661  1
  Mn  Mn5  1  0.70750747  0.50629890  0.39122329  1
  Mn  Mn6  1  0.98699846  0.96618803  0.97889694  1
  Mn  Mn7  1  0.78870834  0.05265440  0.58739689  1
  Mn  Mn8  1  0.18391271  0.93784465  0.39035378  1
  Mn  Mn9  1  0.51916152  0.50696484  0.01265360  1
  Sb  Sb10  1  0.89168483  0.96476702  0.45715234  1
  Sb  Sb11  1  0.10731329  0.98838345  0.54817068  1
  Sb  Sb12  1  0.02488445  0.52343196  0.80426741  1
  Sb  Sb13  1  0.97028441  0.47742129  0.19199446  1
  Sb  Sb14  1  0.40782192  0.49095091  0.46085182  1
  Sb  Sb15  1  0.59949138  0.46287999  0.56241046  1
  Sb  Sb16  1  0.52587030  0.01659465  0.81638896  1
  Sb  Sb17  1  0.46635467  0.97279843  0.18589727  1
  S  S18  1  0.93267625  0.01649504  0.79199087  1
  S  S19  1  0.07056525  0.98405453  0.20315522  1
  S  S20  1  0.41892769  0.95998374  0.98456112  1
  S  S21  1  0.59243183  0.99416600  0.02575918  1
  S  S22  1  0.18621018  0.01894949  0.91340648  1
  S  S23  1  0.82422504  0.01979559  0.10198422  1
  S  S24  1  0.10147281  0.45762483  0.66081901  1
  S  S25  1  0.89170983  0.46740198  0.34248386  1
  S  S26  1  0.74100865  0.97073971  0.31821664  1
  S  S27  1  0.25521611  0.94044782  0.68948893  1
  S  S28  1  0.16218094  0.44266556  0.44498476  1
  S  S29  1  0.83791930  0.51183562  0.55167467  1
  S  S30  1  0.45564978  0.47457690  0.83059842  1
  S  S31  1  0.56497855  0.53440349  0.19449423  1
  S  S32  1  0.91932733  0.48420509  0.98767485  1
  S  S33  1  0.07115919  0.44194095  0.00224980  1
  S  S34  1  0.67889459  0.47875958  0.89427376  1
  S  S35  1  0.33671002  0.52088642  0.10530892  1
  S  S36  1  0.59915291  0.96067862  0.66762598  1
  S  S37  1  0.43057200  0.99277601  0.37266854  1
  S  S38  1  0.25554786  0.46440764  0.29083754  1
  S  S39  1  0.76350396  0.46721286  0.66902675  1
  S  S40  1  0.66339311  0.99956942  0.43992108  1
  S  S41  1  0.31820984  0.01172438  0.52099572  1
