# generated using pymatgen
data_Pr2Mn3(SbS3)4
_symmetry_space_group_name_H-M   'P 1'
_cell_length_a   20.02960800
_cell_length_b   3.90410600
_cell_length_c   14.95364829
_cell_angle_alpha   90.00000000
_cell_angle_beta   126.33350609
_cell_angle_gamma   90.00000000
_symmetry_Int_Tables_number   1
_chemical_formula_structural   Pr2Mn3(SbS3)4
_chemical_formula_sum   'Pr4 Mn6 Sb8 S24'
_cell_volume   942.00006694
_cell_formula_units_Z   2
loop_
 _symmetry_equiv_pos_site_id
 _symmetry_equiv_pos_as_xyz
  1  'x, y, z'
loop_
 _atom_site_type_symbol
 _atom_site_label
 _atom_site_symmetry_multiplicity
 _atom_site_fract_x
 _atom_site_fract_y
 _atom_site_fract_z
 _atom_site_occupancy
  Pr  Pr0  1  0.26264195  0.50717631  0.86272183  1
  Pr  Pr1  1  0.73008684  0.53686409  0.12964052  1
  Pr  Pr2  1  0.77495594  0.97603729  0.88079075  1
  Pr  Pr3  1  0.23921109  0.95525527  0.14191994  1
  Mn  Mn4  1  0.28509834  0.58898312  0.57676230  1
  Mn  Mn5  1  0.70747730  0.50757145  0.39089300  1
  Mn  Mn6  1  0.98711587  0.96526532  0.97901354  1
  Mn  Mn7  1  0.78868381  0.05239232  0.58735262  1
  Mn  Mn8  1  0.18383633  0.93951738  0.39042987  1
  Mn  Mn9  1  0.51919081  0.50644039  0.01287564  1
  Sb  Sb10  1  0.89166679  0.96493111  0.45703799  1
  Sb  Sb11  1  0.10701326  0.98862119  0.54793552  1
  Sb  Sb12  1  0.02480464  0.52331129  0.80431646  1
  Sb  Sb13  1  0.97044163  0.47763816  0.19217523  1
  Sb  Sb14  1  0.40787793  0.49069210  0.46084120  1
  Sb  Sb15  1  0.59954267  0.46246063  0.56235116  1
  Sb  Sb16  1  0.52598421  0.01678112  0.81672228  1
  Sb  Sb17  1  0.46650718  0.97265195  0.18598916  1
  S  S18  1  0.93239048  0.01601940  0.79186728  1
  S  S19  1  0.07032298  0.98444332  0.20280094  1
  S  S20  1  0.41950304  0.96162656  0.98490415  1
  S  S21  1  0.59202893  0.99363153  0.02502633  1
  S  S22  1  0.18639137  0.01849273  0.91338323  1
  S  S23  1  0.82395077  0.02116151  0.10195155  1
  S  S24  1  0.10198320  0.45735701  0.66086062  1
  S  S25  1  0.89185458  0.46719934  0.34232082  1
  S  S26  1  0.74086147  0.97063704  0.31844676  1
  S  S27  1  0.25532277  0.94072184  0.68930698  1
  S  S28  1  0.16230482  0.44334089  0.44452126  1
  S  S29  1  0.83819301  0.51259501  0.55173867  1
  S  S30  1  0.45568135  0.47406615  0.83114828  1
  S  S31  1  0.56530896  0.53509113  0.19430782  1
  S  S32  1  0.91879199  0.48360734  0.98736224  1
  S  S33  1  0.07116737  0.44196884  0.00237363  1
  S  S34  1  0.67931189  0.47817297  0.89446392  1
  S  S35  1  0.33648722  0.52119540  0.10499350  1
  S  S36  1  0.59864397  0.96096362  0.66729496  1
  S  S37  1  0.43057507  0.99259726  0.37261206  1
  S  S38  1  0.25566344  0.46533879  0.29101897  1
  S  S39  1  0.76335445  0.46533537  0.66914180  1
  S  S40  1  0.66359695  0.99899249  0.44024983  1
  S  S41  1  0.31833905  0.01300316  0.52144768  1
