# generated using pymatgen
data_Pr2Mn3(SbS3)4
_symmetry_space_group_name_H-M   'P 1'
_cell_length_a   20.02960800
_cell_length_b   3.90410600
_cell_length_c   14.95364829
_cell_angle_alpha   90.00000000
_cell_angle_beta   126.33350609
_cell_angle_gamma   90.00000000
_symmetry_Int_Tables_number   1
_chemical_formula_structural   Pr2Mn3(SbS3)4
_chemical_formula_sum   'Pr4 Mn6 Sb8 S24'
_cell_volume   942.00006694
_cell_formula_units_Z   2
loop_
 _symmetry_equiv_pos_site_id
 _symmetry_equiv_pos_as_xyz
  1  'x, y, z'
loop_
 _atom_site_type_symbol
 _atom_site_label
 _atom_site_symmetry_multiplicity
 _atom_site_fract_x
 _atom_site_fract_y
 _atom_site_fract_z
 _atom_site_occupancy
  Pr  Pr0  1  0.26260955  0.50755079  0.86274462  1
  Pr  Pr1  1  0.73019281  0.53705819  0.12979448  1
  Pr  Pr2  1  0.77499640  0.97534805  0.88056285  1
  Pr  Pr3  1  0.23906432  0.95571769  0.14190688  1
  Mn  Mn4  1  0.28540041  0.58885630  0.57672485  1
  Mn  Mn5  1  0.70742382  0.50910152  0.39066877  1
  Mn  Mn6  1  0.98728266  0.96486293  0.97908461  1
  Mn  Mn7  1  0.78851657  0.05174969  0.58722066  1
  Mn  Mn8  1  0.18378297  0.94077870  0.39055657  1
  Mn  Mn9  1  0.51912565  0.50618086  0.01313498  1
  Sb  Sb10  1  0.89165412  0.96532100  0.45695255  1
  Sb  Sb11  1  0.10673088  0.98891110  0.54766401  1
  Sb  Sb12  1  0.02473146  0.52300554  0.80431173  1
  Sb  Sb13  1  0.97056129  0.47751870  0.19234429  1
  Sb  Sb14  1  0.40791663  0.49067040  0.46078251  1
  Sb  Sb15  1  0.59948848  0.46181347  0.56225662  1
  Sb  Sb16  1  0.52607220  0.01716198  0.81702569  1
  Sb  Sb17  1  0.46664740  0.97240439  0.18612789  1
  S  S18  1  0.93206707  0.01515174  0.79175184  1
  S  S19  1  0.06997614  0.98480736  0.20212532  1
  S  S20  1  0.42012155  0.96343539  0.98535622  1
  S  S21  1  0.59164933  0.99355941  0.02447854  1
  S  S22  1  0.18655014  0.01854921  0.91328240  1
  S  S23  1  0.82374612  0.02234216  0.10183078  1
  S  S24  1  0.10245623  0.45772155  0.66080036  1
  S  S25  1  0.89213421  0.46769890  0.34229556  1
  S  S26  1  0.74071908  0.97081087  0.31855896  1
  S  S27  1  0.25544925  0.94026787  0.68921670  1
  S  S28  1  0.16227746  0.44372127  0.44399904  1
  S  S29  1  0.83842184  0.51364336  0.55171533  1
  S  S30  1  0.45568173  0.47430966  0.83163561  1
  S  S31  1  0.56563553  0.53545652  0.19425931  1
  S  S32  1  0.91822360  0.48349519  0.98699518  1
  S  S33  1  0.07116311  0.44255364  0.00272839  1
  S  S34  1  0.67968281  0.47737447  0.89471365  1
  S  S35  1  0.33631359  0.52161688  0.10486419  1
  S  S36  1  0.59789921  0.96114012  0.66686124  1
  S  S37  1  0.43056738  0.99269717  0.37254238  1
  S  S38  1  0.25575362  0.46645882  0.29123064  1
  S  S39  1  0.76315946  0.46368464  0.66912307  1
  S  S40  1  0.66375501  0.99846176  0.44060451  1
  S  S41  1  0.31838032  0.01424454  0.52180908  1
