# generated using pymatgen
data_Pr2Mn3(SbS3)4
_symmetry_space_group_name_H-M   'P 1'
_cell_length_a   20.02960800
_cell_length_b   3.90410600
_cell_length_c   14.95364829
_cell_angle_alpha   90.00000000
_cell_angle_beta   126.33350609
_cell_angle_gamma   90.00000000
_symmetry_Int_Tables_number   1
_chemical_formula_structural   Pr2Mn3(SbS3)4
_chemical_formula_sum   'Pr4 Mn6 Sb8 S24'
_cell_volume   942.00006694
_cell_formula_units_Z   2
loop_
 _symmetry_equiv_pos_site_id
 _symmetry_equiv_pos_as_xyz
  1  'x, y, z'
loop_
 _atom_site_type_symbol
 _atom_site_label
 _atom_site_symmetry_multiplicity
 _atom_site_fract_x
 _atom_site_fract_y
 _atom_site_fract_z
 _atom_site_occupancy
  Pr  Pr0  1  0.26258707  0.50783031  0.86277932  1
  Pr  Pr1  1  0.73023051  0.53715473  0.12987793  1
  Pr  Pr2  1  0.77503405  0.97494547  0.88036248  1
  Pr  Pr3  1  0.23897669  0.95618374  0.14187962  1
  Mn  Mn4  1  0.28563626  0.58910907  0.57672499  1
  Mn  Mn5  1  0.70760886  0.51049989  0.39074742  1
  Mn  Mn6  1  0.98742585  0.96453453  0.97923024  1
  Mn  Mn7  1  0.78832612  0.05094858  0.58709413  1
  Mn  Mn8  1  0.18388065  0.94141436  0.39082800  1
  Mn  Mn9  1  0.51909410  0.50601252  0.01338695  1
  Sb  Sb10  1  0.89168322  0.96576288  0.45697154  1
  Sb  Sb11  1  0.10644786  0.98933619  0.54729772  1
  Sb  Sb12  1  0.02464021  0.52264080  0.80434874  1
  Sb  Sb13  1  0.97071879  0.47748668  0.19255522  1
  Sb  Sb14  1  0.40794220  0.49090456  0.46078069  1
  Sb  Sb15  1  0.59939683  0.46103558  0.56211905  1
  Sb  Sb16  1  0.52621053  0.01732636  0.81735379  1
  Sb  Sb17  1  0.46684594  0.97203977  0.18623877  1
  S  S18  1  0.93170552  0.01477160  0.79167489  1
  S  S19  1  0.06965964  0.98552279  0.20136683  1
  S  S20  1  0.42068021  0.96528256  0.98570222  1
  S  S21  1  0.59124712  0.99377816  0.02391257  1
  S  S22  1  0.18673596  0.01866565  0.91328376  1
  S  S23  1  0.82364079  0.02371839  0.10161112  1
  S  S24  1  0.10292757  0.45776900  0.66072978  1
  S  S25  1  0.89239294  0.46740317  0.34239592  1
  S  S26  1  0.74051736  0.97184469  0.31864837  1
  S  S27  1  0.25561123  0.93942279  0.68907795  1
  S  S28  1  0.16209872  0.44401598  0.44336137  1
  S  S29  1  0.83865120  0.51465113  0.55171130  1
  S  S30  1  0.45564070  0.47453874  0.83195400  1
  S  S31  1  0.56606985  0.53562814  0.19426530  1
  S  S32  1  0.91771141  0.48311691  0.98665619  1
  S  S33  1  0.07111169  0.44310136  0.00299762  1
  S  S34  1  0.67997354  0.47687859  0.89472974  1
  S  S35  1  0.33608011  0.52271858  0.10478868  1
  S  S36  1  0.59713235  0.96109377  0.66645192  1
  S  S37  1  0.43042597  0.99247884  0.37251373  1
  S  S38  1  0.25591496  0.46691280  0.29157471  1
  S  S39  1  0.76286718  0.46256893  0.66902744  1
  S  S40  1  0.66378334  0.99807504  0.44078943  1
  S  S41  1  0.31851634  0.01575572  0.52209413  1
