# generated using pymatgen
data_Pr2Mn3(SbS3)4
_symmetry_space_group_name_H-M   'P 1'
_cell_length_a   20.02960800
_cell_length_b   3.90410600
_cell_length_c   14.95364829
_cell_angle_alpha   90.00000000
_cell_angle_beta   126.33350609
_cell_angle_gamma   90.00000000
_symmetry_Int_Tables_number   1
_chemical_formula_structural   Pr2Mn3(SbS3)4
_chemical_formula_sum   'Pr4 Mn6 Sb8 S24'
_cell_volume   942.00006694
_cell_formula_units_Z   2
loop_
 _symmetry_equiv_pos_site_id
 _symmetry_equiv_pos_as_xyz
  1  'x, y, z'
loop_
 _atom_site_type_symbol
 _atom_site_label
 _atom_site_symmetry_multiplicity
 _atom_site_fract_x
 _atom_site_fract_y
 _atom_site_fract_z
 _atom_site_occupancy
  Pr  Pr0  1  0.26254041  0.50759680  0.86279838  1
  Pr  Pr1  1  0.73026427  0.53743603  0.12995603  1
  Pr  Pr2  1  0.77512897  0.97435766  0.88024895  1
  Pr  Pr3  1  0.23884075  0.95687738  0.14175708  1
  Mn  Mn4  1  0.28591382  0.58936265  0.57673020  1
  Mn  Mn5  1  0.70784978  0.51134212  0.39075065  1
  Mn  Mn6  1  0.98763580  0.96439812  0.97926873  1
  Mn  Mn7  1  0.78815963  0.04993870  0.58694960  1
  Mn  Mn8  1  0.18397565  0.94128758  0.39106008  1
  Mn  Mn9  1  0.51910029  0.50557362  0.01364993  1
  Sb  Sb10  1  0.89180482  0.96653204  0.45704108  1
  Sb  Sb11  1  0.10615724  0.98954437  0.54694638  1
  Sb  Sb12  1  0.02464404  0.52196899  0.80441636  1
  Sb  Sb13  1  0.97082989  0.47712131  0.19279765  1
  Sb  Sb14  1  0.40794099  0.49117011  0.46073315  1
  Sb  Sb15  1  0.59939394  0.46038239  0.56200615  1
  Sb  Sb16  1  0.52638562  0.01757051  0.81766712  1
  Sb  Sb17  1  0.46708894  0.97163556  0.18639878  1
  S  S18  1  0.93140260  0.01397299  0.79158707  1
  S  S19  1  0.06945296  0.98582126  0.20058693  1
  S  S20  1  0.42130469  0.96660523  0.98625271  1
  S  S21  1  0.59088146  0.99406955  0.02357733  1
  S  S22  1  0.18681418  0.01858308  0.91295993  1
  S  S23  1  0.82357178  0.02577701  0.10140769  1
  S  S24  1  0.10341483  0.45693251  0.66068205  1
  S  S25  1  0.89265478  0.46671086  0.34239777  1
  S  S26  1  0.74024525  0.97253797  0.31866749  1
  S  S27  1  0.25560511  0.93895045  0.68882935  1
  S  S28  1  0.16192755  0.44432129  0.44264972  1
  S  S29  1  0.83897634  0.51547103  0.55158693  1
  S  S30  1  0.45558882  0.47436811  0.83219239  1
  S  S31  1  0.56636280  0.53664437  0.19422248  1
  S  S32  1  0.91725637  0.48287492  0.98654818  1
  S  S33  1  0.07110096  0.44356389  0.00339284  1
  S  S34  1  0.68035913  0.47601404  0.89473280  1
  S  S35  1  0.33576962  0.52408602  0.10466543  1
  S  S36  1  0.59627975  0.96112786  0.66601623  1
  S  S37  1  0.43032595  0.99202482  0.37250621  1
  S  S38  1  0.25603892  0.46741687  0.29177988  1
  S  S39  1  0.76270341  0.46141501  0.66909240  1
  S  S40  1  0.66385363  0.99713421  0.44081294  1
  S  S41  1  0.31858785  0.01742790  0.52223067  1
