# generated using pymatgen
data_Pr2Mn3(SbS3)4
_symmetry_space_group_name_H-M   'P 1'
_cell_length_a   20.02960800
_cell_length_b   3.90410600
_cell_length_c   14.95364829
_cell_angle_alpha   90.00000000
_cell_angle_beta   126.33350609
_cell_angle_gamma   90.00000000
_symmetry_Int_Tables_number   1
_chemical_formula_structural   Pr2Mn3(SbS3)4
_chemical_formula_sum   'Pr4 Mn6 Sb8 S24'
_cell_volume   942.00006694
_cell_formula_units_Z   2
loop_
 _symmetry_equiv_pos_site_id
 _symmetry_equiv_pos_as_xyz
  1  'x, y, z'
loop_
 _atom_site_type_symbol
 _atom_site_label
 _atom_site_symmetry_multiplicity
 _atom_site_fract_x
 _atom_site_fract_y
 _atom_site_fract_z
 _atom_site_occupancy
  Pr  Pr0  1  0.26254627  0.50743979  0.86284616  1
  Pr  Pr1  1  0.73032397  0.53771427  0.13007152  1
  Pr  Pr2  1  0.77521380  0.97364300  0.88015571  1
  Pr  Pr3  1  0.23874380  0.95761687  0.14168323  1
  Mn  Mn4  1  0.28622308  0.58909380  0.57676146  1
  Mn  Mn5  1  0.70813962  0.51258544  0.39094526  1
  Mn  Mn6  1  0.98787272  0.96401067  0.97926843  1
  Mn  Mn7  1  0.78797737  0.04897273  0.58688244  1
  Mn  Mn8  1  0.18411292  0.94111468  0.39147145  1
  Mn  Mn9  1  0.51906733  0.50464792  0.01388175  1
  Sb  Sb10  1  0.89191762  0.96754109  0.45717572  1
  Sb  Sb11  1  0.10599041  0.98976993  0.54672701  1
  Sb  Sb12  1  0.02468775  0.52133529  0.80452073  1
  Sb  Sb13  1  0.97093516  0.47715266  0.19293350  1
  Sb  Sb14  1  0.40795923  0.49144111  0.46080125  1
  Sb  Sb15  1  0.59943667  0.45960732  0.56182755  1
  Sb  Sb16  1  0.52658728  0.01786721  0.81796608  1
  Sb  Sb17  1  0.46724721  0.97118692  0.18653054  1
  S  S18  1  0.93105716  0.01306753  0.79150255  1
  S  S19  1  0.06917878  0.98626498  0.19976216  1
  S  S20  1  0.42196175  0.96824876  0.98686656  1
  S  S21  1  0.59051997  0.99490761  0.02327739  1
  S  S22  1  0.18682478  0.01865316  0.91249382  1
  S  S23  1  0.82356164  0.02782003  0.10128187  1
  S  S24  1  0.10379861  0.45633279  0.66056158  1
  S  S25  1  0.89287757  0.46632347  0.34248085  1
  S  S26  1  0.74009844  0.97327359  0.31873394  1
  S  S27  1  0.25559778  0.93947795  0.68865110  1
  S  S28  1  0.16171813  0.44463756  0.44194544  1
  S  S29  1  0.83930013  0.51601617  0.55150779  1
  S  S30  1  0.45546374  0.47434787  0.83244213  1
  S  S31  1  0.56656880  0.53744465  0.19411890  1
  S  S32  1  0.91699463  0.48295123  0.98652973  1
  S  S33  1  0.07110893  0.44432640  0.00385932  1
  S  S34  1  0.68062868  0.47535661  0.89466507  1
  S  S35  1  0.33549541  0.52482954  0.10458442  1
  S  S36  1  0.59550394  0.96199671  0.66575477  1
  S  S37  1  0.43031103  0.99084009  0.37253328  1
  S  S38  1  0.25612403  0.46826028  0.29197891  1
  S  S39  1  0.76259155  0.46030188  0.66934831  1
  S  S40  1  0.66387482  0.99608925  0.44067811  1
  S  S41  1  0.31865550  0.01893313  0.52228307  1
