# generated using pymatgen
data_Pr2Mn3(SbS3)4
_symmetry_space_group_name_H-M   'P 1'
_cell_length_a   20.02960800
_cell_length_b   3.90410600
_cell_length_c   14.95364829
_cell_angle_alpha   90.00000000
_cell_angle_beta   126.33350609
_cell_angle_gamma   90.00000000
_symmetry_Int_Tables_number   1
_chemical_formula_structural   Pr2Mn3(SbS3)4
_chemical_formula_sum   'Pr4 Mn6 Sb8 S24'
_cell_volume   942.00006694
_cell_formula_units_Z   2
loop_
 _symmetry_equiv_pos_site_id
 _symmetry_equiv_pos_as_xyz
  1  'x, y, z'
loop_
 _atom_site_type_symbol
 _atom_site_label
 _atom_site_symmetry_multiplicity
 _atom_site_fract_x
 _atom_site_fract_y
 _atom_site_fract_z
 _atom_site_occupancy
  Pr  Pr0  1  0.26983989  0.50120541  0.86763277  1
  Pr  Pr1  1  0.73331896  0.51400148  0.13296502  1
  Pr  Pr2  1  0.76557242  0.02682727  0.86582632  1
  Pr  Pr3  1  0.23256216  0.99073581  0.13203863  1
  Mn  Mn4  1  0.29941871  0.46946747  0.60440022  1
  Mn  Mn5  1  0.68460110  0.46228331  0.36096181  1
  Mn  Mn6  1  0.00283988  0.98925606  0.01021160  1
  Mn  Mn7  1  0.79597746  0.01481844  0.61791654  1
  Mn  Mn8  1  0.19403989  0.98323404  0.36627882  1
  Mn  Mn9  1  0.48479495  0.47033899  0.98457521  1
  Sb  Sb10  1  0.88996732  0.98529315  0.44938254  1
  Sb  Sb11  1  0.10990534  0.98253914  0.54591230  1
  Sb  Sb12  1  0.03561028  0.53299144  0.82094569  1
  Sb  Sb13  1  0.96674120  0.49909972  0.18868943  1
  Sb  Sb14  1  0.39342152  0.50058655  0.44925083  1
  Sb  Sb15  1  0.60847354  0.47857939  0.54663392  1
  Sb  Sb16  1  0.53309002  0.97692668  0.80690129  1
  Sb  Sb17  1  0.46533385  0.02190279  0.18846851  1
  S  S18  1  0.93579783  0.01530615  0.80863051  1
  S  S19  1  0.06613839  0.01410394  0.20292640  1
  S  S20  1  0.41641362  0.97081741  0.98718251  1
  S  S21  1  0.58667934  0.04043189  0.01700321  1
  S  S22  1  0.16989999  0.04832613  0.90111331  1
  S  S23  1  0.82686662  0.03168473  0.10419089  1
  S  S24  1  0.08912322  0.49592378  0.64384256  1
  S  S25  1  0.91394484  0.48485963  0.35352565  1
  S  S26  1  0.73968687  0.99829709  0.30159606  1
  S  S27  1  0.25672587  0.01046410  0.70393449  1
  S  S28  1  0.16841344  0.52021343  0.43559181  1
  S  S29  1  0.81031281  0.50225504  0.53870129  1
  S  S30  1  0.43043900  0.46634559  0.79582078  1
  S  S31  1  0.55291342  0.51758437  0.18157925  1
  S  S32  1  0.92220052  0.50190003  0.99460330  1
  S  S33  1  0.08950417  0.49595215  0.02680065  1
  S  S34  1  0.66588805  0.55698843  0.89652368  1
  S  S35  1  0.32880905  0.47718245  0.09380259  1
  S  S36  1  0.58826340  0.98863113  0.64893924  1
  S  S37  1  0.39749293  0.97867564  0.34027209  1
  S  S38  1  0.24611139  0.47580197  0.31824841  1
  S  S39  1  0.75855467  0.53025515  0.68668207  1
  S  S40  1  0.66453013  0.99121885  0.44670895  1
  S  S41  1  0.33080475  0.98689767  0.55640584  1
