# generated using pymatgen
data_Pr2Mn3(SbS3)4
_symmetry_space_group_name_H-M   'P 1'
_cell_length_a   20.02960800
_cell_length_b   3.90410600
_cell_length_c   14.95364829
_cell_angle_alpha   90.00000000
_cell_angle_beta   126.33350609
_cell_angle_gamma   90.00000000
_symmetry_Int_Tables_number   1
_chemical_formula_structural   Pr2Mn3(SbS3)4
_chemical_formula_sum   'Pr4 Mn6 Sb8 S24'
_cell_volume   942.00006694
_cell_formula_units_Z   2
loop_
 _symmetry_equiv_pos_site_id
 _symmetry_equiv_pos_as_xyz
  1  'x, y, z'
loop_
 _atom_site_type_symbol
 _atom_site_label
 _atom_site_symmetry_multiplicity
 _atom_site_fract_x
 _atom_site_fract_y
 _atom_site_fract_z
 _atom_site_occupancy
  Pr  Pr0  1  0.26262076  0.50722548  0.86298959  1
  Pr  Pr1  1  0.73035115  0.53788665  0.13012919  1
  Pr  Pr2  1  0.77534116  0.97317345  0.88012687  1
  Pr  Pr3  1  0.23867041  0.95832494  0.14153464  1
  Mn  Mn4  1  0.28655225  0.58924705  0.57686608  1
  Mn  Mn5  1  0.70846897  0.51350417  0.39112716  1
  Mn  Mn6  1  0.98803263  0.96360682  0.97915531  1
  Mn  Mn7  1  0.78781084  0.04818617  0.58694353  1
  Mn  Mn8  1  0.18431700  0.94129457  0.39174566  1
  Mn  Mn9  1  0.51909598  0.50376660  0.01413191  1
  Sb  Sb10  1  0.89205938  0.96864144  0.45724941  1
  Sb  Sb11  1  0.10575196  0.98977805  0.54641710  1
  Sb  Sb12  1  0.02476590  0.52097206  0.80471358  1
  Sb  Sb13  1  0.97104163  0.47702310  0.19306549  1
  Sb  Sb14  1  0.40791124  0.49172522  0.46081841  1
  Sb  Sb15  1  0.59946324  0.45901868  0.56162612  1
  Sb  Sb16  1  0.52674598  0.01804815  0.81833396  1
  Sb  Sb17  1  0.46732055  0.97068156  0.18657878  1
  S  S18  1  0.93079089  0.01215179  0.79151300  1
  S  S19  1  0.06895305  0.98640967  0.19913451  1
  S  S20  1  0.42260832  0.97007546  0.98756826  1
  S  S21  1  0.59017352  0.99539828  0.02283171  1
  S  S22  1  0.18691193  0.01855252  0.91216528  1
  S  S23  1  0.82359558  0.02985678  0.10108873  1
  S  S24  1  0.10409098  0.45602446  0.66033470  1
  S  S25  1  0.89300001  0.46594201  0.34268485  1
  S  S26  1  0.74003639  0.97377879  0.31877076  1
  S  S27  1  0.25552190  0.94060732  0.68841151  1
  S  S28  1  0.16146195  0.44467192  0.44119633  1
  S  S29  1  0.83965800  0.51596198  0.55158163  1
  S  S30  1  0.45532070  0.47469649  0.83273246  1
  S  S31  1  0.56661072  0.53837012  0.19414185  1
  S  S32  1  0.91683002  0.48272960  0.98660452  1
  S  S33  1  0.07124993  0.44515632  0.00423445  1
  S  S34  1  0.68100207  0.47503471  0.89471828  1
  S  S35  1  0.33504823  0.52576859  0.10445774  1
  S  S36  1  0.59476094  0.96298819  0.66548790  1
  S  S37  1  0.43041839  0.98971797  0.37283828  1
  S  S38  1  0.25630767  0.46946287  0.29228982  1
  S  S39  1  0.76240283  0.45902970  0.66954970  1
  S  S40  1  0.66396976  0.99526205  0.44065868  1
  S  S41  1  0.31870052  0.02036926  0.52208641  1
