# generated using pymatgen
data_Pr2Mn3(SbS3)4
_symmetry_space_group_name_H-M   'P 1'
_cell_length_a   20.02960800
_cell_length_b   3.90410600
_cell_length_c   14.95364829
_cell_angle_alpha   90.00000000
_cell_angle_beta   126.33350609
_cell_angle_gamma   90.00000000
_symmetry_Int_Tables_number   1
_chemical_formula_structural   Pr2Mn3(SbS3)4
_chemical_formula_sum   'Pr4 Mn6 Sb8 S24'
_cell_volume   942.00006694
_cell_formula_units_Z   2
loop_
 _symmetry_equiv_pos_site_id
 _symmetry_equiv_pos_as_xyz
  1  'x, y, z'
loop_
 _atom_site_type_symbol
 _atom_site_label
 _atom_site_symmetry_multiplicity
 _atom_site_fract_x
 _atom_site_fract_y
 _atom_site_fract_z
 _atom_site_occupancy
  Pr  Pr0  1  0.26267773  0.50712824  0.86308966  1
  Pr  Pr1  1  0.73035299  0.53766517  0.13010576  1
  Pr  Pr2  1  0.77543361  0.97246101  0.88007047  1
  Pr  Pr3  1  0.23853211  0.95882382  0.14133586  1
  Mn  Mn4  1  0.28682634  0.58965557  0.57697061  1
  Mn  Mn5  1  0.70875277  0.51463406  0.39119075  1
  Mn  Mn6  1  0.98822701  0.96305017  0.97906809  1
  Mn  Mn7  1  0.78766338  0.04814308  0.58698694  1
  Mn  Mn8  1  0.18450141  0.94141041  0.39204871  1
  Mn  Mn9  1  0.51911584  0.50340821  0.01438466  1
  Sb  Sb10  1  0.89218313  0.96952068  0.45722346  1
  Sb  Sb11  1  0.10561093  0.98997964  0.54618458  1
  Sb  Sb12  1  0.02497644  0.52046352  0.80510417  1
  Sb  Sb13  1  0.97114112  0.47694837  0.19321200  1
  Sb  Sb14  1  0.40784898  0.49195952  0.46077926  1
  Sb  Sb15  1  0.59940454  0.45864750  0.56139041  1
  Sb  Sb16  1  0.52684187  0.01812986  0.81860921  1
  Sb  Sb17  1  0.46734510  0.97050559  0.18659479  1
  S  S18  1  0.93052286  0.01070011  0.79149410  1
  S  S19  1  0.06872544  0.98643471  0.19860378  1
  S  S20  1  0.42314546  0.97194816  0.98810905  1
  S  S21  1  0.58985943  0.99625344  0.02251507  1
  S  S22  1  0.18701469  0.01813664  0.91200302  1
  S  S23  1  0.82381598  0.03217881  0.10085960  1
  S  S24  1  0.10438287  0.45601306  0.66030551  1
  S  S25  1  0.89317855  0.46561897  0.34296337  1
  S  S26  1  0.73999547  0.97396273  0.31890232  1
  S  S27  1  0.25540834  0.94231364  0.68807547  1
  S  S28  1  0.16113104  0.44433274  0.44044859  1
  S  S29  1  0.83996576  0.51574073  0.55163568  1
  S  S30  1  0.45522710  0.47468923  0.83300938  1
  S  S31  1  0.56663562  0.53951663  0.19388658  1
  S  S32  1  0.91683995  0.48235942  0.98694310  1
  S  S33  1  0.07128935  0.44665972  0.00467786  1
  S  S34  1  0.68133501  0.47484749  0.89487805  1
  S  S35  1  0.33463738  0.52664703  0.10455608  1
  S  S36  1  0.59421407  0.96405519  0.66537155  1
  S  S37  1  0.43052845  0.98879493  0.37322497  1
  S  S38  1  0.25644749  0.47079053  0.29256352  1
  S  S39  1  0.76234473  0.45778673  0.66976818  1
  S  S40  1  0.66409722  0.99471284  0.44064260  1
  S  S41  1  0.31882054  0.02170215  0.52203120  1
