# generated using pymatgen
data_Pr2Mn3(SbS3)4
_symmetry_space_group_name_H-M   'P 1'
_cell_length_a   20.02960800
_cell_length_b   3.90410600
_cell_length_c   14.95364829
_cell_angle_alpha   90.00000000
_cell_angle_beta   126.33350609
_cell_angle_gamma   90.00000000
_symmetry_Int_Tables_number   1
_chemical_formula_structural   Pr2Mn3(SbS3)4
_chemical_formula_sum   'Pr4 Mn6 Sb8 S24'
_cell_volume   942.00006694
_cell_formula_units_Z   2
loop_
 _symmetry_equiv_pos_site_id
 _symmetry_equiv_pos_as_xyz
  1  'x, y, z'
loop_
 _atom_site_type_symbol
 _atom_site_label
 _atom_site_symmetry_multiplicity
 _atom_site_fract_x
 _atom_site_fract_y
 _atom_site_fract_z
 _atom_site_occupancy
  Pr  Pr0  1  0.26278254  0.50724470  0.86318282  1
  Pr  Pr1  1  0.73032304  0.53760224  0.13009914  1
  Pr  Pr2  1  0.77539342  0.97183135  0.87985086  1
  Pr  Pr3  1  0.23845669  0.95983019  0.14116898  1
  Mn  Mn4  1  0.28711899  0.58996313  0.57714126  1
  Mn  Mn5  1  0.70889840  0.51559794  0.39110540  1
  Mn  Mn6  1  0.98829906  0.96226431  0.97893857  1
  Mn  Mn7  1  0.78770422  0.04836746  0.58709599  1
  Mn  Mn8  1  0.18458063  0.94148994  0.39231964  1
  Mn  Mn9  1  0.51904230  0.50317758  0.01454975  1
  Sb  Sb10  1  0.89226639  0.97047390  0.45718899  1
  Sb  Sb11  1  0.10546907  0.99034150  0.54593650  1
  Sb  Sb12  1  0.02525810  0.52012745  0.80552739  1
  Sb  Sb13  1  0.97120992  0.47651156  0.19324760  1
  Sb  Sb14  1  0.40778287  0.49192810  0.46073504  1
  Sb  Sb15  1  0.59939059  0.45847591  0.56125750  1
  Sb  Sb16  1  0.52697417  0.01798180  0.81889526  1
  Sb  Sb17  1  0.46737619  0.97028845  0.18669343  1
  S  S18  1  0.93031672  0.00932578  0.79155749  1
  S  S19  1  0.06856531  0.98616915  0.19809210  1
  S  S20  1  0.42354735  0.97429001  0.98846145  1
  S  S21  1  0.58961700  0.99659085  0.02228383  1
  S  S22  1  0.18708551  0.01769634  0.91180932  1
  S  S23  1  0.82400545  0.03354289  0.10063372  1
  S  S24  1  0.10469692  0.45627247  0.66015185  1
  S  S25  1  0.89338033  0.46570144  0.34330784  1
  S  S26  1  0.73986906  0.97419355  0.31885133  1
  S  S27  1  0.25526533  0.94435526  0.68760951  1
  S  S28  1  0.16078590  0.44373294  0.43960201  1
  S  S29  1  0.84036927  0.51559293  0.55166903  1
  S  S30  1  0.45508462  0.47393847  0.83335041  1
  S  S31  1  0.56664244  0.54068010  0.19357173  1
  S  S32  1  0.91693610  0.48192604  0.98718729  1
  S  S33  1  0.07142671  0.44765391  0.00518020  1
  S  S34  1  0.68180006  0.47505578  0.89510315  1
  S  S35  1  0.33426898  0.52745031  0.10462954  1
  S  S36  1  0.59372893  0.96473032  0.66531878  1
  S  S37  1  0.43073364  0.98760511  0.37371730  1
  S  S38  1  0.25664846  0.47294383  0.29293990  1
  S  S39  1  0.76229619  0.45640974  0.66991955  1
  S  S40  1  0.66405122  0.99374561  0.44046371  1
  S  S41  1  0.31885853  0.02305251  0.52212799  1
