# generated using pymatgen
data_Pr2Mn3(SbS3)4
_symmetry_space_group_name_H-M   'P 1'
_cell_length_a   20.02960800
_cell_length_b   3.90410600
_cell_length_c   14.95364829
_cell_angle_alpha   90.00000000
_cell_angle_beta   126.33350609
_cell_angle_gamma   90.00000000
_symmetry_Int_Tables_number   1
_chemical_formula_structural   Pr2Mn3(SbS3)4
_chemical_formula_sum   'Pr4 Mn6 Sb8 S24'
_cell_volume   942.00006694
_cell_formula_units_Z   2
loop_
 _symmetry_equiv_pos_site_id
 _symmetry_equiv_pos_as_xyz
  1  'x, y, z'
loop_
 _atom_site_type_symbol
 _atom_site_label
 _atom_site_symmetry_multiplicity
 _atom_site_fract_x
 _atom_site_fract_y
 _atom_site_fract_z
 _atom_site_occupancy
  Pr  Pr0  1  0.26296076  0.50725876  0.86334068  1
  Pr  Pr1  1  0.73021621  0.53724970  0.13003962  1
  Pr  Pr2  1  0.77539794  0.97107541  0.87965878  1
  Pr  Pr3  1  0.23833556  0.96088192  0.14093838  1
  Mn  Mn4  1  0.28733589  0.59065970  0.57721203  1
  Mn  Mn5  1  0.70895697  0.51579681  0.39107206  1
  Mn  Mn6  1  0.98846591  0.96250966  0.97887082  1
  Mn  Mn7  1  0.78755488  0.04880957  0.58690478  1
  Mn  Mn8  1  0.18464471  0.94162925  0.39259672  1
  Mn  Mn9  1  0.51895826  0.50294506  0.01479666  1
  Sb  Sb10  1  0.89232612  0.97149453  0.45712972  1
  Sb  Sb11  1  0.10527430  0.99083127  0.54560338  1
  Sb  Sb12  1  0.02545272  0.51986075  0.80581934  1
  Sb  Sb13  1  0.97125699  0.47613747  0.19332541  1
  Sb  Sb14  1  0.40775555  0.49176485  0.46071506  1
  Sb  Sb15  1  0.59939842  0.45797144  0.56117933  1
  Sb  Sb16  1  0.52718665  0.01782625  0.81928007  1
  Sb  Sb17  1  0.46731448  0.97003985  0.18666562  1
  S  S18  1  0.93005577  0.00837595  0.79141672  1
  S  S19  1  0.06852009  0.98604121  0.19767276  1
  S  S20  1  0.42380621  0.97604328  0.98872967  1
  S  S21  1  0.58928656  0.99702393  0.02208601  1
  S  S22  1  0.18714488  0.01735216  0.91164260  1
  S  S23  1  0.82420330  0.03500603  0.10066621  1
  S  S24  1  0.10496456  0.45708684  0.66006321  1
  S  S25  1  0.89346601  0.46650909  0.34331734  1
  S  S26  1  0.73971828  0.97412921  0.31851531  1
  S  S27  1  0.25524093  0.94602347  0.68734151  1
  S  S28  1  0.16050078  0.44311716  0.43892767  1
  S  S29  1  0.84079674  0.51554043  0.55198102  1
  S  S30  1  0.45493450  0.47358097  0.83357724  1
  S  S31  1  0.56694052  0.54172856  0.19361864  1
  S  S32  1  0.91699701  0.48120312  0.98737277  1
  S  S33  1  0.07143903  0.44886625  0.00541223  1
  S  S34  1  0.68237204  0.47486674  0.89545279  1
  S  S35  1  0.33405287  0.52894218  0.10475838  1
  S  S36  1  0.59323118  0.96523683  0.66501304  1
  S  S37  1  0.43084897  0.98642290  0.37407818  1
  S  S38  1  0.25698422  0.47462986  0.29331604  1
  S  S39  1  0.76214551  0.45569705  0.67015200  1
  S  S40  1  0.66403253  0.99297860  0.44038037  1
  S  S41  1  0.31886614  0.02490898  0.52224107  1
