# generated using pymatgen
data_Pr2Mn3(SbS3)4
_symmetry_space_group_name_H-M   'P 1'
_cell_length_a   20.02960800
_cell_length_b   3.90410600
_cell_length_c   14.95364829
_cell_angle_alpha   90.00000000
_cell_angle_beta   126.33350609
_cell_angle_gamma   90.00000000
_symmetry_Int_Tables_number   1
_chemical_formula_structural   Pr2Mn3(SbS3)4
_chemical_formula_sum   'Pr4 Mn6 Sb8 S24'
_cell_volume   942.00006694
_cell_formula_units_Z   2
loop_
 _symmetry_equiv_pos_site_id
 _symmetry_equiv_pos_as_xyz
  1  'x, y, z'
loop_
 _atom_site_type_symbol
 _atom_site_label
 _atom_site_symmetry_multiplicity
 _atom_site_fract_x
 _atom_site_fract_y
 _atom_site_fract_z
 _atom_site_occupancy
  Pr  Pr0  1  0.26308353  0.50699141  0.86340460  1
  Pr  Pr1  1  0.73013035  0.53696980  0.12993405  1
  Pr  Pr2  1  0.77535872  0.97035847  0.87944748  1
  Pr  Pr3  1  0.23820776  0.96220806  0.14079219  1
  Mn  Mn4  1  0.28756200  0.59087930  0.57737290  1
  Mn  Mn5  1  0.70905145  0.51613555  0.39108488  1
  Mn  Mn6  1  0.98864241  0.96264173  0.97875424  1
  Mn  Mn7  1  0.78746663  0.04894641  0.58688423  1
  Mn  Mn8  1  0.18459001  0.94120555  0.39271141  1
  Mn  Mn9  1  0.51882603  0.50281681  0.01505207  1
  Sb  Sb10  1  0.89241547  0.97246397  0.45711584  1
  Sb  Sb11  1  0.10511401  0.99104225  0.54527175  1
  Sb  Sb12  1  0.02562269  0.51957248  0.80611595  1
  Sb  Sb13  1  0.97141206  0.47567663  0.19352088  1
  Sb  Sb14  1  0.40775802  0.49153772  0.46070996  1
  Sb  Sb15  1  0.59943927  0.45715307  0.56109255  1
  Sb  Sb16  1  0.52735814  0.01790206  0.81965973  1
  Sb  Sb17  1  0.46725987  0.96981666  0.18666324  1
  S  S18  1  0.92995546  0.00728850  0.79134301  1
  S  S19  1  0.06867303  0.98619017  0.19752851  1
  S  S20  1  0.42396097  0.97733744  0.98909122  1
  S  S21  1  0.58875965  0.99706672  0.02172208  1
  S  S22  1  0.18735505  0.01709717  0.91168669  1
  S  S23  1  0.82428862  0.03612343  0.10049831  1
  S  S24  1  0.10518779  0.45821576  0.65971135  1
  S  S25  1  0.89357238  0.46695651  0.34336486  1
  S  S26  1  0.73955456  0.97348302  0.31811116  1
  S  S27  1  0.25514369  0.94743588  0.68702358  1
  S  S28  1  0.16011194  0.44287545  0.43836883  1
  S  S29  1  0.84117856  0.51528203  0.55215152  1
  S  S30  1  0.45499393  0.47282743  0.83385315  1
  S  S31  1  0.56727396  0.54271506  0.19375444  1
  S  S32  1  0.91695590  0.48077250  0.98737374  1
  S  S33  1  0.07148731  0.45050773  0.00549632  1
  S  S34  1  0.68284094  0.47417979  0.89579767  1
  S  S35  1  0.33401462  0.53090682  0.10481443  1
  S  S36  1  0.59274744  0.96599922  0.66471775  1
  S  S37  1  0.43087985  0.98544781  0.37408432  1
  S  S38  1  0.25726431  0.47573393  0.29366063  1
  S  S39  1  0.76218959  0.45507488  0.67045407  1
  S  S40  1  0.66415043  0.99258706  0.44053598  1
  S  S41  1  0.31890998  0.02630055  0.52217979  1
