# generated using pymatgen
data_Pr2Mn3(SbS3)4
_symmetry_space_group_name_H-M   'P 1'
_cell_length_a   20.02960800
_cell_length_b   3.90410600
_cell_length_c   14.95364829
_cell_angle_alpha   90.00000000
_cell_angle_beta   126.33350609
_cell_angle_gamma   90.00000000
_symmetry_Int_Tables_number   1
_chemical_formula_structural   Pr2Mn3(SbS3)4
_chemical_formula_sum   'Pr4 Mn6 Sb8 S24'
_cell_volume   942.00006694
_cell_formula_units_Z   2
loop_
 _symmetry_equiv_pos_site_id
 _symmetry_equiv_pos_as_xyz
  1  'x, y, z'
loop_
 _atom_site_type_symbol
 _atom_site_label
 _atom_site_symmetry_multiplicity
 _atom_site_fract_x
 _atom_site_fract_y
 _atom_site_fract_z
 _atom_site_occupancy
  Pr  Pr0  1  0.26316978  0.50626487  0.86350747  1
  Pr  Pr1  1  0.73006599  0.53717369  0.12973541  1
  Pr  Pr2  1  0.77533048  0.96978644  0.87930172  1
  Pr  Pr3  1  0.23814031  0.96316806  0.14070723  1
  Mn  Mn4  1  0.28777077  0.59100105  0.57754979  1
  Mn  Mn5  1  0.70921411  0.51579016  0.39114840  1
  Mn  Mn6  1  0.98879485  0.96301658  0.97868177  1
  Mn  Mn7  1  0.78738312  0.04837371  0.58687831  1
  Mn  Mn8  1  0.18455310  0.94116493  0.39284828  1
  Mn  Mn9  1  0.51867478  0.50275807  0.01521333  1
  Sb  Sb10  1  0.89245372  0.97328067  0.45700062  1
  Sb  Sb11  1  0.10496960  0.99110146  0.54499074  1
  Sb  Sb12  1  0.02573904  0.51912081  0.80634236  1
  Sb  Sb13  1  0.97154340  0.47550633  0.19368263  1
  Sb  Sb14  1  0.40784956  0.49113477  0.46071252  1
  Sb  Sb15  1  0.59951182  0.45604606  0.56103433  1
  Sb  Sb16  1  0.52757238  0.01785369  0.82005591  1
  Sb  Sb17  1  0.46717221  0.96976758  0.18658110  1
  S  S18  1  0.92991393  0.00607533  0.79127084  1
  S  S19  1  0.06861386  0.98609028  0.19737191  1
  S  S20  1  0.42398800  0.97782779  0.98956778  1
  S  S21  1  0.58838384  0.99719658  0.02146407  1
  S  S22  1  0.18747255  0.01629481  0.91152176  1
  S  S23  1  0.82443517  0.03710746  0.10028126  1
  S  S24  1  0.10543351  0.45924692  0.65959692  1
  S  S25  1  0.89361838  0.46726316  0.34329849  1
  S  S26  1  0.73933090  0.97336279  0.31771414  1
  S  S27  1  0.25507075  0.94829334  0.68666741  1
  S  S28  1  0.15975897  0.44257606  0.43776853  1
  S  S29  1  0.84134513  0.51472450  0.55214614  1
  S  S30  1  0.45488131  0.47207948  0.83402036  1
  S  S31  1  0.56749784  0.54347646  0.19385915  1
  S  S32  1  0.91689741  0.48073768  0.98738803  1
  S  S33  1  0.07145264  0.45134127  0.00560031  1
  S  S34  1  0.68320298  0.47365389  0.89603038  1
  S  S35  1  0.33375257  0.53272504  0.10450787  1
  S  S36  1  0.59226975  0.96683286  0.66465301  1
  S  S37  1  0.43097421  0.98453367  0.37423603  1
  S  S38  1  0.25752341  0.47674372  0.29399065  1
  S  S39  1  0.76228465  0.45492983  0.67067124  1
  S  S40  1  0.66409850  0.99272921  0.44040107  1
  S  S41  1  0.31899392  0.02709807  0.52226893  1
