# generated using pymatgen
data_Pr2Mn3(SbS3)4
_symmetry_space_group_name_H-M   'P 1'
_cell_length_a   20.02960800
_cell_length_b   3.90410600
_cell_length_c   14.95364829
_cell_angle_alpha   90.00000000
_cell_angle_beta   126.33350609
_cell_angle_gamma   90.00000000
_symmetry_Int_Tables_number   1
_chemical_formula_structural   Pr2Mn3(SbS3)4
_chemical_formula_sum   'Pr4 Mn6 Sb8 S24'
_cell_volume   942.00006694
_cell_formula_units_Z   2
loop_
 _symmetry_equiv_pos_site_id
 _symmetry_equiv_pos_as_xyz
  1  'x, y, z'
loop_
 _atom_site_type_symbol
 _atom_site_label
 _atom_site_symmetry_multiplicity
 _atom_site_fract_x
 _atom_site_fract_y
 _atom_site_fract_z
 _atom_site_occupancy
  Pr  Pr0  1  0.26323149  0.50554393  0.86362718  1
  Pr  Pr1  1  0.73004932  0.53728564  0.12959809  1
  Pr  Pr2  1  0.77529119  0.96977627  0.87915633  1
  Pr  Pr3  1  0.23811083  0.96413257  0.14060043  1
  Mn  Mn4  1  0.28789931  0.59150897  0.57757704  1
  Mn  Mn5  1  0.70931994  0.51576013  0.39127602  1
  Mn  Mn6  1  0.98895975  0.96303718  0.97863347  1
  Mn  Mn7  1  0.78728613  0.04762335  0.58696887  1
  Mn  Mn8  1  0.18455757  0.94083985  0.39314483  1
  Mn  Mn9  1  0.51858124  0.50241960  0.01544133  1
  Sb  Sb10  1  0.89247487  0.97434772  0.45690410  1
  Sb  Sb11  1  0.10492176  0.99133432  0.54486852  1
  Sb  Sb12  1  0.02597724  0.51865903  0.80669237  1
  Sb  Sb13  1  0.97166756  0.47526536  0.19389056  1
  Sb  Sb14  1  0.40793560  0.49059095  0.46075948  1
  Sb  Sb15  1  0.59955726  0.45499252  0.56089166  1
  Sb  Sb16  1  0.52776178  0.01781025  0.82039815  1
  Sb  Sb17  1  0.46711925  0.96976571  0.18655964  1
  S  S18  1  0.92978179  0.00563287  0.79099938  1
  S  S19  1  0.06866944  0.98565960  0.19721763  1
  S  S20  1  0.42388887  0.97790491  0.98998751  1
  S  S21  1  0.58794812  0.99751372  0.02111466  1
  S  S22  1  0.18754604  0.01581106  0.91130631  1
  S  S23  1  0.82461002  0.03825454  0.10000461  1
  S  S24  1  0.10570848  0.46019844  0.65944511  1
  S  S25  1  0.89379393  0.46759617  0.34353775  1
  S  S26  1  0.73895395  0.97321737  0.31723860  1
  S  S27  1  0.25504843  0.94858928  0.68627264  1
  S  S28  1  0.15962687  0.44247275  0.43722598  1
  S  S29  1  0.84132027  0.51351824  0.55195520  1
  S  S30  1  0.45480037  0.47080717  0.83430038  1
  S  S31  1  0.56764224  0.54428390  0.19398613  1
  S  S32  1  0.91688594  0.48035328  0.98728828  1
  S  S33  1  0.07136730  0.45177925  0.00541635  1
  S  S34  1  0.68362778  0.47307421  0.89625326  1
  S  S35  1  0.33362194  0.53417661  0.10437704  1
  S  S36  1  0.59180092  0.96794075  0.66446899  1
  S  S37  1  0.43103842  0.98359404  0.37435099  1
  S  S38  1  0.25797663  0.47731095  0.29442878  1
  S  S39  1  0.76240231  0.45507834  0.67102220  1
  S  S40  1  0.66387004  0.99342852  0.44005997  1
  S  S41  1  0.31902810  0.02677811  0.52243100  1
