# generated using pymatgen
data_Pr2Mn3(SbS3)4
_symmetry_space_group_name_H-M   'P 1'
_cell_length_a   20.02960800
_cell_length_b   3.90410600
_cell_length_c   14.95364829
_cell_angle_alpha   90.00000000
_cell_angle_beta   126.33350609
_cell_angle_gamma   90.00000000
_symmetry_Int_Tables_number   1
_chemical_formula_structural   Pr2Mn3(SbS3)4
_chemical_formula_sum   'Pr4 Mn6 Sb8 S24'
_cell_volume   942.00006694
_cell_formula_units_Z   2
loop_
 _symmetry_equiv_pos_site_id
 _symmetry_equiv_pos_as_xyz
  1  'x, y, z'
loop_
 _atom_site_type_symbol
 _atom_site_label
 _atom_site_symmetry_multiplicity
 _atom_site_fract_x
 _atom_site_fract_y
 _atom_site_fract_z
 _atom_site_occupancy
  Pr  Pr0  1  0.26325506  0.50479605  0.86372190  1
  Pr  Pr1  1  0.73002927  0.53720487  0.12948506  1
  Pr  Pr2  1  0.77529274  0.96977437  0.87898328  1
  Pr  Pr3  1  0.23813978  0.96509226  0.14051141  1
  Mn  Mn4  1  0.28810736  0.59196976  0.57770858  1
  Mn  Mn5  1  0.70940578  0.51607182  0.39125506  1
  Mn  Mn6  1  0.98914061  0.96302739  0.97873268  1
  Mn  Mn7  1  0.78712002  0.04722807  0.58704613  1
  Mn  Mn8  1  0.18449409  0.94103091  0.39342395  1
  Mn  Mn9  1  0.51838398  0.50173989  0.01568168  1
  Sb  Sb10  1  0.89252364  0.97525569  0.45685881  1
  Sb  Sb11  1  0.10489510  0.99123694  0.54470322  1
  Sb  Sb12  1  0.02624840  0.51857421  0.80706367  1
  Sb  Sb13  1  0.97174282  0.47496693  0.19403865  1
  Sb  Sb14  1  0.40804296  0.48987979  0.46085294  1
  Sb  Sb15  1  0.59957022  0.45397582  0.56077188  1
  Sb  Sb16  1  0.52801466  0.01740084  0.82071208  1
  Sb  Sb17  1  0.46710003  0.96949971  0.18652558  1
  S  S18  1  0.92972552  0.00502818  0.79079348  1
  S  S19  1  0.06894117  0.98485758  0.19734811  1
  S  S20  1  0.42385803  0.97819177  0.99060741  1
  S  S21  1  0.58765001  0.99730176  0.02084629  1
  S  S22  1  0.18772472  0.01450810  0.91132656  1
  S  S23  1  0.82488387  0.03905805  0.09985778  1
  S  S24  1  0.10612831  0.46142625  0.65945833  1
  S  S25  1  0.89408669  0.46789096  0.34385836  1
  S  S26  1  0.73872702  0.97331341  0.31703866  1
  S  S27  1  0.25504227  0.94905962  0.68574733  1
  S  S28  1  0.15958468  0.44204477  0.43694866  1
  S  S29  1  0.84119285  0.51321056  0.55173429  1
  S  S30  1  0.45454100  0.46979359  0.83449013  1
  S  S31  1  0.56776446  0.54507146  0.19399459  1
  S  S32  1  0.91668620  0.48005804  0.98703033  1
  S  S33  1  0.07125390  0.45186610  0.00527624  1
  S  S34  1  0.68388792  0.47294898  0.89637292  1
  S  S35  1  0.33338795  0.53520692  0.10409639  1
  S  S36  1  0.59128392  0.96814505  0.66417824  1
  S  S37  1  0.43104942  0.98320461  0.37452860  1
  S  S38  1  0.25853396  0.47849745  0.29494284  1
  S  S39  1  0.76255492  0.45507424  0.67120188  1
  S  S40  1  0.66353802  0.99507065  0.43963171  1
  S  S41  1  0.31914994  0.02744008  0.52268746  1
