# generated using pymatgen
data_Pr2Mn3(SbS3)4
_symmetry_space_group_name_H-M   'P 1'
_cell_length_a   20.02960800
_cell_length_b   3.90410600
_cell_length_c   14.95364829
_cell_angle_alpha   90.00000000
_cell_angle_beta   126.33350609
_cell_angle_gamma   90.00000000
_symmetry_Int_Tables_number   1
_chemical_formula_structural   Pr2Mn3(SbS3)4
_chemical_formula_sum   'Pr4 Mn6 Sb8 S24'
_cell_volume   942.00006694
_cell_formula_units_Z   2
loop_
 _symmetry_equiv_pos_site_id
 _symmetry_equiv_pos_as_xyz
  1  'x, y, z'
loop_
 _atom_site_type_symbol
 _atom_site_label
 _atom_site_symmetry_multiplicity
 _atom_site_fract_x
 _atom_site_fract_y
 _atom_site_fract_z
 _atom_site_occupancy
  Pr  Pr0  1  0.26321741  0.50426978  0.86373929  1
  Pr  Pr1  1  0.73006096  0.53697244  0.12947763  1
  Pr  Pr2  1  0.77518420  0.96977975  0.87883074  1
  Pr  Pr3  1  0.23816700  0.96593655  0.14050490  1
  Mn  Mn4  1  0.28825764  0.59245490  0.57771903  1
  Mn  Mn5  1  0.70954404  0.51606059  0.39129998  1
  Mn  Mn6  1  0.98930987  0.96269514  0.97888996  1
  Mn  Mn7  1  0.78696997  0.04715619  0.58727280  1
  Mn  Mn8  1  0.18450782  0.94127180  0.39370196  1
  Mn  Mn9  1  0.51825267  0.50106950  0.01586979  1
  Sb  Sb10  1  0.89261500  0.97630939  0.45685933  1
  Sb  Sb11  1  0.10490553  0.99120692  0.54455855  1
  Sb  Sb12  1  0.02645603  0.51852053  0.80748896  1
  Sb  Sb13  1  0.97185694  0.47493858  0.19421376  1
  Sb  Sb14  1  0.40811337  0.48929139  0.46088820  1
  Sb  Sb15  1  0.59960857  0.45296207  0.56067181  1
  Sb  Sb16  1  0.52816566  0.01711782  0.82085501  1
  Sb  Sb17  1  0.46698332  0.96917388  0.18649194  1
  S  S18  1  0.92977104  0.00369972  0.79055491  1
  S  S19  1  0.06920408  0.98425474  0.19750894  1
  S  S20  1  0.42379909  0.97846538  0.99110970  1
  S  S21  1  0.58749703  0.99712541  0.02059560  1
  S  S22  1  0.18777814  0.01293045  0.91127762  1
  S  S23  1  0.82502116  0.03922051  0.09971201  1
  S  S24  1  0.10648489  0.46294651  0.65928214  1
  S  S25  1  0.89433573  0.46757128  0.34415907  1
  S  S26  1  0.73843563  0.97348915  0.31666626  1
  S  S27  1  0.25534015  0.94891737  0.68554085  1
  S  S28  1  0.15941553  0.44213066  0.43671875  1
  S  S29  1  0.84117720  0.51212325  0.55178768  1
  S  S30  1  0.45414401  0.46874971  0.83457447  1
  S  S31  1  0.56811067  0.54615392  0.19427200  1
  S  S32  1  0.91657246  0.48007589  0.98677390  1
  S  S33  1  0.07101604  0.45168711  0.00512535  1
  S  S34  1  0.68405211  0.47307957  0.89636521  1
  S  S35  1  0.33321775  0.53619992  0.10381445  1
  S  S36  1  0.59070850  0.96859874  0.66386177  1
  S  S37  1  0.43109514  0.98368185  0.37474368  1
  S  S38  1  0.25907637  0.47929517  0.29533611  1
  S  S39  1  0.76263739  0.45423408  0.67132726  1
  S  S40  1  0.66309855  0.99649651  0.43916200  1
  S  S41  1  0.31921437  0.02811618  0.52304942  1
