# generated using pymatgen
data_Pr2Mn3(SbS3)4
_symmetry_space_group_name_H-M   'P 1'
_cell_length_a   20.02960800
_cell_length_b   3.90410600
_cell_length_c   14.95364829
_cell_angle_alpha   90.00000000
_cell_angle_beta   126.33350609
_cell_angle_gamma   90.00000000
_symmetry_Int_Tables_number   1
_chemical_formula_structural   Pr2Mn3(SbS3)4
_chemical_formula_sum   'Pr4 Mn6 Sb8 S24'
_cell_volume   942.00006694
_cell_formula_units_Z   2
loop_
 _symmetry_equiv_pos_site_id
 _symmetry_equiv_pos_as_xyz
  1  'x, y, z'
loop_
 _atom_site_type_symbol
 _atom_site_label
 _atom_site_symmetry_multiplicity
 _atom_site_fract_x
 _atom_site_fract_y
 _atom_site_fract_z
 _atom_site_occupancy
  Pr  Pr0  1  0.26324010  0.50389474  0.86384506  1
  Pr  Pr1  1  0.73009941  0.53700907  0.12953824  1
  Pr  Pr2  1  0.77513247  0.97013845  0.87876066  1
  Pr  Pr3  1  0.23814390  0.96637289  0.14045878  1
  Mn  Mn4  1  0.28843594  0.59286489  0.57771392  1
  Mn  Mn5  1  0.70961542  0.51605354  0.39128805  1
  Mn  Mn6  1  0.98934253  0.96180853  0.97905750  1
  Mn  Mn7  1  0.78668814  0.04711601  0.58742632  1
  Mn  Mn8  1  0.18456415  0.94144431  0.39401204  1
  Mn  Mn9  1  0.51808624  0.50035493  0.01609129  1
  Sb  Sb10  1  0.89280223  0.97748262  0.45684739  1
  Sb  Sb11  1  0.10482154  0.99139758  0.54436254  1
  Sb  Sb12  1  0.02665040  0.51834568  0.80787665  1
  Sb  Sb13  1  0.97196165  0.47468116  0.19439354  1
  Sb  Sb14  1  0.40814798  0.48883432  0.46095838  1
  Sb  Sb15  1  0.59965164  0.45155815  0.56053357  1
  Sb  Sb16  1  0.52832406  0.01678639  0.82103836  1
  Sb  Sb17  1  0.46683051  0.96850634  0.18642288  1
  S  S18  1  0.92981273  0.00270683  0.79048427  1
  S  S19  1  0.06953250  0.98334065  0.19787088  1
  S  S20  1  0.42364415  0.97922040  0.99152222  1
  S  S21  1  0.58720044  0.99645486  0.02025387  1
  S  S22  1  0.18780352  0.01170543  0.91105480  1
  S  S23  1  0.82518845  0.03853655  0.09960775  1
  S  S24  1  0.10682961  0.46380959  0.65908787  1
  S  S25  1  0.89456581  0.46724050  0.34443315  1
  S  S26  1  0.73804673  0.97481446  0.31632826  1
  S  S27  1  0.25564097  0.94846454  0.68527790  1
  S  S28  1  0.15934230  0.44191879  0.43647967  1
  S  S29  1  0.84112127  0.51074781  0.55166232  1
  S  S30  1  0.45373618  0.46779437  0.83466961  1
  S  S31  1  0.56844834  0.54676358  0.19468653  1
  S  S32  1  0.91640956  0.47999128  0.98638909  1
  S  S33  1  0.07080280  0.45234125  0.00501542  1
  S  S34  1  0.68417494  0.47293946  0.89635427  1
  S  S35  1  0.33304436  0.53639235  0.10357862  1
  S  S36  1  0.59029854  0.96941155  0.66372493  1
  S  S37  1  0.43110776  0.98414365  0.37479833  1
  S  S38  1  0.25959639  0.47969323  0.29593934  1
  S  S39  1  0.76282527  0.45316036  0.67157484  1
  S  S40  1  0.66275857  0.99794559  0.43866281  1
  S  S41  1  0.31946191  0.02852845  0.52339133  1
