# generated using pymatgen
data_Pr2Mn3(SbS3)4
_symmetry_space_group_name_H-M   'P 1'
_cell_length_a   20.02960800
_cell_length_b   3.90410600
_cell_length_c   14.95364829
_cell_angle_alpha   90.00000000
_cell_angle_beta   126.33350609
_cell_angle_gamma   90.00000000
_symmetry_Int_Tables_number   1
_chemical_formula_structural   Pr2Mn3(SbS3)4
_chemical_formula_sum   'Pr4 Mn6 Sb8 S24'
_cell_volume   942.00006694
_cell_formula_units_Z   2
loop_
 _symmetry_equiv_pos_site_id
 _symmetry_equiv_pos_as_xyz
  1  'x, y, z'
loop_
 _atom_site_type_symbol
 _atom_site_label
 _atom_site_symmetry_multiplicity
 _atom_site_fract_x
 _atom_site_fract_y
 _atom_site_fract_z
 _atom_site_occupancy
  Pr  Pr0  1  0.26983457  0.50162332  0.86767483  1
  Pr  Pr1  1  0.73327831  0.51405871  0.13296566  1
  Pr  Pr2  1  0.76552956  0.02719375  0.86604706  1
  Pr  Pr3  1  0.23252626  0.99066440  0.13200888  1
  Mn  Mn4  1  0.29965231  0.46971482  0.60477547  1
  Mn  Mn5  1  0.68475912  0.46270526  0.36116026  1
  Mn  Mn6  1  0.00272985  0.98909346  0.01023251  1
  Mn  Mn7  1  0.79587649  0.01525392  0.61789554  1
  Mn  Mn8  1  0.19397566  0.98412194  0.36620054  1
  Mn  Mn9  1  0.48456323  0.47049874  0.98435224  1
  Sb  Sb10  1  0.88996525  0.98485004  0.44920856  1
  Sb  Sb11  1  0.10992159  0.98222246  0.54589544  1
  Sb  Sb12  1  0.03549321  0.53304990  0.82092482  1
  Sb  Sb13  1  0.96671806  0.49871734  0.18863446  1
  Sb  Sb14  1  0.39358119  0.50060397  0.44927114  1
  Sb  Sb15  1  0.60858778  0.47872055  0.54673380  1
  Sb  Sb16  1  0.53301139  0.97677130  0.80671907  1
  Sb  Sb17  1  0.46519988  0.02212191  0.18823595  1
  S  S18  1  0.93591858  0.01588608  0.80877890  1
  S  S19  1  0.06631053  0.01435682  0.20374911  1
  S  S20  1  0.41645269  0.97068826  0.98691260  1
  S  S21  1  0.58676458  0.04042890  0.01686254  1
  S  S22  1  0.16961688  0.04740023  0.90104663  1
  S  S23  1  0.82687111  0.03063332  0.10446861  1
  S  S24  1  0.08890451  0.49657794  0.64374793  1
  S  S25  1  0.91382851  0.48412342  0.35327158  1
  S  S26  1  0.73918933  0.99850766  0.30099687  1
  S  S27  1  0.25659394  0.01121118  0.70370710  1
  S  S28  1  0.16858597  0.51998996  0.43592350  1
  S  S29  1  0.81012646  0.50258760  0.53867138  1
  S  S30  1  0.43047040  0.46593560  0.79584403  1
  S  S31  1  0.55270666  0.51703395  0.18126676  1
  S  S32  1  0.92233864  0.50234872  0.99460073  1
  S  S33  1  0.08955383  0.49598239  0.02658018  1
  S  S34  1  0.66596142  0.55768515  0.89687314  1
  S  S35  1  0.32891382  0.47604529  0.09397922  1
  S  S36  1  0.58790643  0.98935199  0.64836871  1
  S  S37  1  0.39737831  0.97859477  0.33973754  1
  S  S38  1  0.24630131  0.47634522  0.31803525  1
  S  S39  1  0.75867279  0.53019175  0.68698502  1
  S  S40  1  0.66456548  0.99126759  0.44677763  1
  S  S41  1  0.33069262  0.98665344  0.55629429  1
