# generated using pymatgen
data_Pr2Mn3(SbS3)4
_symmetry_space_group_name_H-M   'P 1'
_cell_length_a   20.02960800
_cell_length_b   3.90410600
_cell_length_c   14.95364829
_cell_angle_alpha   90.00000000
_cell_angle_beta   126.33350609
_cell_angle_gamma   90.00000000
_symmetry_Int_Tables_number   1
_chemical_formula_structural   Pr2Mn3(SbS3)4
_chemical_formula_sum   'Pr4 Mn6 Sb8 S24'
_cell_volume   942.00006694
_cell_formula_units_Z   2
loop_
 _symmetry_equiv_pos_site_id
 _symmetry_equiv_pos_as_xyz
  1  'x, y, z'
loop_
 _atom_site_type_symbol
 _atom_site_label
 _atom_site_symmetry_multiplicity
 _atom_site_fract_x
 _atom_site_fract_y
 _atom_site_fract_z
 _atom_site_occupancy
  Pr  Pr0  1  0.26314109  0.50341299  0.86378999  1
  Pr  Pr1  1  0.73017098  0.53705559  0.12961739  1
  Pr  Pr2  1  0.77511896  0.97053203  0.87868732  1
  Pr  Pr3  1  0.23811474  0.96670677  0.14037947  1
  Mn  Mn4  1  0.28851769  0.59311900  0.57771246  1
  Mn  Mn5  1  0.70962251  0.51578841  0.39125408  1
  Mn  Mn6  1  0.98949698  0.96099496  0.97924746  1
  Mn  Mn7  1  0.78636901  0.04710969  0.58751007  1
  Mn  Mn8  1  0.18467005  0.94182259  0.39434774  1
  Mn  Mn9  1  0.51792709  0.49998935  0.01622071  1
  Sb  Sb10  1  0.89299853  0.97877696  0.45687550  1
  Sb  Sb11  1  0.10476232  0.99168353  0.54416959  1
  Sb  Sb12  1  0.02687280  0.51834698  0.80827845  1
  Sb  Sb13  1  0.97211828  0.47468587  0.19460040  1
  Sb  Sb14  1  0.40815245  0.48888380  0.46095669  1
  Sb  Sb15  1  0.59971934  0.45027564  0.56037948  1
  Sb  Sb16  1  0.52852746  0.01619139  0.82130831  1
  Sb  Sb17  1  0.46672651  0.96789887  0.18640976  1
  S  S18  1  0.92991799  0.00220553  0.79041200  1
  S  S19  1  0.06988732  0.98249187  0.19839954  1
  S  S20  1  0.42343423  0.97988216  0.99177724  1
  S  S21  1  0.58699781  0.99585524  0.02000170  1
  S  S22  1  0.18780975  0.01050755  0.91077964  1
  S  S23  1  0.82529011  0.03820892  0.09933222  1
  S  S24  1  0.10710986  0.46536271  0.65901413  1
  S  S25  1  0.89464413  0.46664409  0.34443732  1
  S  S26  1  0.73767053  0.97576137  0.31632907  1
  S  S27  1  0.25594211  0.94807579  0.68508566  1
  S  S28  1  0.15917992  0.44254766  0.43616227  1
  S  S29  1  0.84086371  0.50935816  0.55147599  1
  S  S30  1  0.45345692  0.46698984  0.83480870  1
  S  S31  1  0.56872613  0.54760928  0.19501993  1
  S  S32  1  0.91629128  0.47900386  0.98594536  1
  S  S33  1  0.07056221  0.45287524  0.00487463  1
  S  S34  1  0.68424966  0.47315352  0.89639246  1
  S  S35  1  0.33295201  0.53635361  0.10339496  1
  S  S36  1  0.58992087  0.97013238  0.66351055  1
  S  S37  1  0.43096994  0.98478471  0.37466891  1
  S  S38  1  0.25999281  0.48003401  0.29633894  1
  S  S39  1  0.76290202  0.45179066  0.67173209  1
  S  S40  1  0.66227478  0.99997605  0.43812644  1
  S  S41  1  0.31966860  0.02833652  0.52374777  1
