# generated using pymatgen
data_Pr2Mn3(SbS3)4
_symmetry_space_group_name_H-M   'P 1'
_cell_length_a   20.02960800
_cell_length_b   3.90410600
_cell_length_c   14.95364829
_cell_angle_alpha   90.00000000
_cell_angle_beta   126.33350609
_cell_angle_gamma   90.00000000
_symmetry_Int_Tables_number   1
_chemical_formula_structural   Pr2Mn3(SbS3)4
_chemical_formula_sum   'Pr4 Mn6 Sb8 S24'
_cell_volume   942.00006694
_cell_formula_units_Z   2
loop_
 _symmetry_equiv_pos_site_id
 _symmetry_equiv_pos_as_xyz
  1  'x, y, z'
loop_
 _atom_site_type_symbol
 _atom_site_label
 _atom_site_symmetry_multiplicity
 _atom_site_fract_x
 _atom_site_fract_y
 _atom_site_fract_z
 _atom_site_occupancy
  Pr  Pr0  1  0.26300993  0.50283879  0.86367628  1
  Pr  Pr1  1  0.73023965  0.53706924  0.12969887  1
  Pr  Pr2  1  0.77508286  0.97059992  0.87862888  1
  Pr  Pr3  1  0.23801751  0.96712619  0.14021116  1
  Mn  Mn4  1  0.28854201  0.59336068  0.57769865  1
  Mn  Mn5  1  0.70955439  0.51557826  0.39124002  1
  Mn  Mn6  1  0.98974360  0.96069203  0.97946184  1
  Mn  Mn7  1  0.78611320  0.04723581  0.58760359  1
  Mn  Mn8  1  0.18468010  0.94238688  0.39456009  1
  Mn  Mn9  1  0.51784540  0.49939258  0.01632524  1
  Sb  Sb10  1  0.89310596  0.97982175  0.45679118  1
  Sb  Sb11  1  0.10468234  0.99204138  0.54391601  1
  Sb  Sb12  1  0.02709996  0.51840711  0.80864759  1
  Sb  Sb13  1  0.97222219  0.47476102  0.19465876  1
  Sb  Sb14  1  0.40817067  0.48877538  0.46094827  1
  Sb  Sb15  1  0.59976934  0.44894478  0.56028359  1
  Sb  Sb16  1  0.52872437  0.01562819  0.82155514  1
  Sb  Sb17  1  0.46665253  0.96736930  0.18634992  1
  S  S18  1  0.92996147  0.00187856  0.79012524  1
  S  S19  1  0.07016536  0.98177950  0.19884764  1
  S  S20  1  0.42318436  0.98016163  0.99198765  1
  S  S21  1  0.58677820  0.99534479  0.01965805  1
  S  S22  1  0.18761776  0.00897615  0.91035351  1
  S  S23  1  0.82524826  0.03787759  0.09919962  1
  S  S24  1  0.10737858  0.46607110  0.65899338  1
  S  S25  1  0.89469606  0.46650279  0.34457993  1
  S  S26  1  0.73724126  0.97643224  0.31635308  1
  S  S27  1  0.25612750  0.94731531  0.68497634  1
  S  S28  1  0.15901164  0.44339539  0.43593717  1
  S  S29  1  0.84052054  0.50756212  0.55129618  1
  S  S30  1  0.45327519  0.46644731  0.83491065  1
  S  S31  1  0.56905272  0.54828995  0.19551944  1
  S  S32  1  0.91634360  0.47804142  0.98577158  1
  S  S33  1  0.07043920  0.45359706  0.00490186  1
  S  S34  1  0.68433633  0.47344724  0.89650865  1
  S  S35  1  0.33288169  0.53599113  0.10308585  1
  S  S36  1  0.58951558  0.97007229  0.66328440  1
  S  S37  1  0.43089179  0.98528660  0.37451496  1
  S  S38  1  0.26047647  0.47984767  0.29687380  1
  S  S39  1  0.76305653  0.45143874  0.67189136  1
  S  S40  1  0.66175257  0.00195571  0.43738164  1
  S  S41  1  0.31994738  0.02786757  0.52416106  1
