# generated using pymatgen
data_Pr2Mn3(SbS3)4
_symmetry_space_group_name_H-M   'P 1'
_cell_length_a   20.02960800
_cell_length_b   3.90410600
_cell_length_c   14.95364829
_cell_angle_alpha   90.00000000
_cell_angle_beta   126.33350609
_cell_angle_gamma   90.00000000
_symmetry_Int_Tables_number   1
_chemical_formula_structural   Pr2Mn3(SbS3)4
_chemical_formula_sum   'Pr4 Mn6 Sb8 S24'
_cell_volume   942.00006694
_cell_formula_units_Z   2
loop_
 _symmetry_equiv_pos_site_id
 _symmetry_equiv_pos_as_xyz
  1  'x, y, z'
loop_
 _atom_site_type_symbol
 _atom_site_label
 _atom_site_symmetry_multiplicity
 _atom_site_fract_x
 _atom_site_fract_y
 _atom_site_fract_z
 _atom_site_occupancy
  Pr  Pr0  1  0.26285540  0.50190613  0.86357138  1
  Pr  Pr1  1  0.73031825  0.53702274  0.12980133  1
  Pr  Pr2  1  0.77498329  0.97041520  0.87853034  1
  Pr  Pr3  1  0.23796366  0.96746965  0.14012551  1
  Mn  Mn4  1  0.28851926  0.59329727  0.57765067  1
  Mn  Mn5  1  0.70957892  0.51534239  0.39132578  1
  Mn  Mn6  1  0.98990289  0.96035330  0.97955360  1
  Mn  Mn7  1  0.78594012  0.04707522  0.58777125  1
  Mn  Mn8  1  0.18476078  0.94309417  0.39465074  1
  Mn  Mn9  1  0.51778105  0.49875158  0.01631943  1
  Sb  Sb10  1  0.89325960  0.98072932  0.45676775  1
  Sb  Sb11  1  0.10470468  0.99258439  0.54370528  1
  Sb  Sb12  1  0.02728166  0.51848904  0.80891207  1
  Sb  Sb13  1  0.97228926  0.47493754  0.19459770  1
  Sb  Sb14  1  0.40806152  0.48862263  0.46091789  1
  Sb  Sb15  1  0.59980526  0.44777939  0.56013409  1
  Sb  Sb16  1  0.52892879  0.01546336  0.82178252  1
  Sb  Sb17  1  0.46661068  0.96674735  0.18639239  1
  S  S18  1  0.93004399  0.00207702  0.78984877  1
  S  S19  1  0.07038875  0.98103251  0.19921285  1
  S  S20  1  0.42302927  0.98108155  0.99220906  1
  S  S21  1  0.58676381  0.99521816  0.01958611  1
  S  S22  1  0.18725966  0.00802762  0.90982460  1
  S  S23  1  0.82529459  0.03702878  0.09904983  1
  S  S24  1  0.10753506  0.46643841  0.65871218  1
  S  S25  1  0.89488633  0.46657443  0.34482780  1
  S  S26  1  0.73682486  0.97733807  0.31638335  1
  S  S27  1  0.25647953  0.94669462  0.68508729  1
  S  S28  1  0.15889991  0.44428318  0.43568571  1
  S  S29  1  0.84028529  0.50582603  0.55123487  1
  S  S30  1  0.45321813  0.46520768  0.83511743  1
  S  S31  1  0.56951464  0.54918614  0.19601410  1
  S  S32  1  0.91625893  0.47666555  0.98555013  1
  S  S33  1  0.07030109  0.45410192  0.00490088  1
  S  S34  1  0.68419056  0.47411454  0.89659538  1
  S  S35  1  0.33284249  0.53558392  0.10289679  1
  S  S36  1  0.58924760  0.96976946  0.66326874  1
  S  S37  1  0.43066576  0.98580375  0.37433726  1
  S  S38  1  0.26078676  0.48015559  0.29727506  1
  S  S39  1  0.76339360  0.45155228  0.67214582  1
  S  S40  1  0.66106479  0.00349042  0.43645153  1
  S  S41  1  0.32018254  0.02762522  0.52452083  1
