# generated using pymatgen
data_Pr2Mn3(SbS3)4
_symmetry_space_group_name_H-M   'P 1'
_cell_length_a   20.02960800
_cell_length_b   3.90410600
_cell_length_c   14.95364829
_cell_angle_alpha   90.00000000
_cell_angle_beta   126.33350609
_cell_angle_gamma   90.00000000
_symmetry_Int_Tables_number   1
_chemical_formula_structural   Pr2Mn3(SbS3)4
_chemical_formula_sum   'Pr4 Mn6 Sb8 S24'
_cell_volume   942.00006694
_cell_formula_units_Z   2
loop_
 _symmetry_equiv_pos_site_id
 _symmetry_equiv_pos_as_xyz
  1  'x, y, z'
loop_
 _atom_site_type_symbol
 _atom_site_label
 _atom_site_symmetry_multiplicity
 _atom_site_fract_x
 _atom_site_fract_y
 _atom_site_fract_z
 _atom_site_occupancy
  Pr  Pr0  1  0.26275208  0.50107383  0.86355714  1
  Pr  Pr1  1  0.73040100  0.53685360  0.12989664  1
  Pr  Pr2  1  0.77488333  0.97028153  0.87839426  1
  Pr  Pr3  1  0.23778792  0.96798548  0.13997557  1
  Mn  Mn4  1  0.28850090  0.59328296  0.57758085  1
  Mn  Mn5  1  0.70955143  0.51545794  0.39139676  1
  Mn  Mn6  1  0.99007661  0.96017373  0.97973425  1
  Mn  Mn7  1  0.78576569  0.04713373  0.58783951  1
  Mn  Mn8  1  0.18478140  0.94413895  0.39465794  1
  Mn  Mn9  1  0.51780201  0.49835589  0.01633814  1
  Sb  Sb10  1  0.89347783  0.98187673  0.45678513  1
  Sb  Sb11  1  0.10462251  0.99315667  0.54347465  1
  Sb  Sb12  1  0.02749757  0.51839262  0.80924083  1
  Sb  Sb13  1  0.97231690  0.47548040  0.19450233  1
  Sb  Sb14  1  0.40796555  0.48854222  0.46086996  1
  Sb  Sb15  1  0.59996777  0.44599847  0.56001902  1
  Sb  Sb16  1  0.52909726  0.01504010  0.82199977  1
  Sb  Sb17  1  0.46664497  0.96643141  0.18650902  1
  S  S18  1  0.93003986  0.00173170  0.78938781  1
  S  S19  1  0.07061955  0.98050363  0.19952603  1
  S  S20  1  0.42276847  0.98214908  0.99233127  1
  S  S21  1  0.58677988  0.99494493  0.01948618  1
  S  S22  1  0.18703596  0.00711377  0.90955177  1
  S  S23  1  0.82536689  0.03618521  0.09896764  1
  S  S24  1  0.10756744  0.46678435  0.65822491  1
  S  S25  1  0.89502209  0.46666935  0.34491473  1
  S  S26  1  0.73655376  0.97804866  0.31638903  1
  S  S27  1  0.25678498  0.94666233  0.68505991  1
  S  S28  1  0.15911790  0.44527050  0.43576800  1
  S  S29  1  0.84014350  0.50460860  0.55115900  1
  S  S30  1  0.45319084  0.46424960  0.83544156  1
  S  S31  1  0.56985066  0.54964943  0.19644988  1
  S  S32  1  0.91621484  0.47562966  0.98539985  1
  S  S33  1  0.07018966  0.45444247  0.00484451  1
  S  S34  1  0.68405716  0.47469868  0.89678300  1
  S  S35  1  0.33303320  0.53476653  0.10294384  1
  S  S36  1  0.58902271  0.96994568  0.66313265  1
  S  S37  1  0.43037274  0.98695462  0.37410738  1
  S  S38  1  0.26105456  0.48045213  0.29750571  1
  S  S39  1  0.76384578  0.45191175  0.67237847  1
  S  S40  1  0.66032310  0.00478839  0.43553502  1
  S  S41  1  0.32043779  0.02763254  0.52493272  1
