# generated using pymatgen
data_Pr2Mn3(SbS3)4
_symmetry_space_group_name_H-M   'P 1'
_cell_length_a   20.02960800
_cell_length_b   3.90410600
_cell_length_c   14.95364829
_cell_angle_alpha   90.00000000
_cell_angle_beta   126.33350609
_cell_angle_gamma   90.00000000
_symmetry_Int_Tables_number   1
_chemical_formula_structural   Pr2Mn3(SbS3)4
_chemical_formula_sum   'Pr4 Mn6 Sb8 S24'
_cell_volume   942.00006694
_cell_formula_units_Z   2
loop_
 _symmetry_equiv_pos_site_id
 _symmetry_equiv_pos_as_xyz
  1  'x, y, z'
loop_
 _atom_site_type_symbol
 _atom_site_label
 _atom_site_symmetry_multiplicity
 _atom_site_fract_x
 _atom_site_fract_y
 _atom_site_fract_z
 _atom_site_occupancy
  Pr  Pr0  1  0.26256640  0.50033761  0.86346864  1
  Pr  Pr1  1  0.73052895  0.53642069  0.13001857  1
  Pr  Pr2  1  0.77472104  0.97028962  0.87819398  1
  Pr  Pr3  1  0.23758289  0.96854958  0.13985292  1
  Mn  Mn4  1  0.28843734  0.59258093  0.57749696  1
  Mn  Mn5  1  0.70943563  0.51554327  0.39153547  1
  Mn  Mn6  1  0.99021764  0.96037665  0.97993348  1
  Mn  Mn7  1  0.78564821  0.04735929  0.58787593  1
  Mn  Mn8  1  0.18477585  0.94466594  0.39451005  1
  Mn  Mn9  1  0.51776187  0.49790706  0.01642521  1
  Sb  Sb10  1  0.89372499  0.98287998  0.45678623  1
  Sb  Sb11  1  0.10459619  0.99375554  0.54323407  1
  Sb  Sb12  1  0.02775070  0.51794474  0.80953979  1
  Sb  Sb13  1  0.97234533  0.47568889  0.19432022  1
  Sb  Sb14  1  0.40800492  0.48875191  0.46098568  1
  Sb  Sb15  1  0.60006511  0.44395244  0.55991420  1
  Sb  Sb16  1  0.52928141  0.01442984  0.82217731  1
  Sb  Sb17  1  0.46668518  0.96577661  0.18657152  1
  S  S18  1  0.93008548  0.00147770  0.78893662  1
  S  S19  1  0.07082015  0.97958203  0.19985899  1
  S  S20  1  0.42234932  0.98291429  0.99232167  1
  S  S21  1  0.58672094  0.99474930  0.01928922  1
  S  S22  1  0.18684221  0.00662443  0.90923146  1
  S  S23  1  0.82563217  0.03510850  0.09922882  1
  S  S24  1  0.10761114  0.46666254  0.65780655  1
  S  S25  1  0.89511642  0.46656718  0.34495169  1
  S  S26  1  0.73623961  0.97847684  0.31623840  1
  S  S27  1  0.25725415  0.94707791  0.68523276  1
  S  S28  1  0.15936036  0.44603381  0.43578772  1
  S  S29  1  0.83977538  0.50355546  0.55102835  1
  S  S30  1  0.45311401  0.46360223  0.83588561  1
  S  S31  1  0.57014116  0.55025615  0.19678132  1
  S  S32  1  0.91619447  0.47525239  0.98538631  1
  S  S33  1  0.07022958  0.45501318  0.00495168  1
  S  S34  1  0.68386149  0.47522031  0.89698401  1
  S  S35  1  0.33328314  0.53361149  0.10315655  1
  S  S36  1  0.58876556  0.97028089  0.66293318  1
  S  S37  1  0.42996164  0.98770578  0.37395329  1
  S  S38  1  0.26127881  0.48047012  0.29772331  1
  S  S39  1  0.76441280  0.45273824  0.67288868  1
  S  S40  1  0.65974035  0.00621392  0.43481239  1
  S  S41  1  0.32058438  0.02752716  0.52520728  1
