# generated using pymatgen
data_Pr2Mn3(SbS3)4
_symmetry_space_group_name_H-M   'P 1'
_cell_length_a   20.02960800
_cell_length_b   3.90410600
_cell_length_c   14.95364829
_cell_angle_alpha   90.00000000
_cell_angle_beta   126.33350609
_cell_angle_gamma   90.00000000
_symmetry_Int_Tables_number   1
_chemical_formula_structural   Pr2Mn3(SbS3)4
_chemical_formula_sum   'Pr4 Mn6 Sb8 S24'
_cell_volume   942.00006694
_cell_formula_units_Z   2
loop_
 _symmetry_equiv_pos_site_id
 _symmetry_equiv_pos_as_xyz
  1  'x, y, z'
loop_
 _atom_site_type_symbol
 _atom_site_label
 _atom_site_symmetry_multiplicity
 _atom_site_fract_x
 _atom_site_fract_y
 _atom_site_fract_z
 _atom_site_occupancy
  Pr  Pr0  1  0.26242392  0.50001664  0.86340937  1
  Pr  Pr1  1  0.73064648  0.53592881  0.13007320  1
  Pr  Pr2  1  0.77461173  0.97043585  0.87806302  1
  Pr  Pr3  1  0.23739645  0.96919386  0.13971355  1
  Mn  Mn4  1  0.28829122  0.59179647  0.57744564  1
  Mn  Mn5  1  0.70928516  0.51585199  0.39159652  1
  Mn  Mn6  1  0.99028067  0.95947198  0.98009845  1
  Mn  Mn7  1  0.78556159  0.04778009  0.58786550  1
  Mn  Mn8  1  0.18471839  0.94481746  0.39438845  1
  Mn  Mn9  1  0.51772139  0.49716501  0.01649322  1
  Sb  Sb10  1  0.89393965  0.98364281  0.45673644  1
  Sb  Sb11  1  0.10460034  0.99422263  0.54294701  1
  Sb  Sb12  1  0.02801757  0.51754867  0.80988089  1
  Sb  Sb13  1  0.97243390  0.47591974  0.19414700  1
  Sb  Sb14  1  0.40815342  0.48890632  0.46113067  1
  Sb  Sb15  1  0.60007660  0.44211011  0.55974915  1
  Sb  Sb16  1  0.52945474  0.01421094  0.82226941  1
  Sb  Sb17  1  0.46672922  0.96534915  0.18659339  1
  S  S18  1  0.93018871  0.00178686  0.78853304  1
  S  S19  1  0.07107938  0.97822745  0.20033803  1
  S  S20  1  0.42191425  0.98330315  0.99228123  1
  S  S21  1  0.58657863  0.99486520  0.01912444  1
  S  S22  1  0.18644764  0.00689022  0.90876336  1
  S  S23  1  0.82597407  0.03380502  0.09947328  1
  S  S24  1  0.10776963  0.46630060  0.65740710  1
  S  S25  1  0.89527936  0.46684156  0.34504956  1
  S  S26  1  0.73597170  0.97857019  0.31601486  1
  S  S27  1  0.25773218  0.94773274  0.68530639  1
  S  S28  1  0.15957479  0.44702058  0.43599281  1
  S  S29  1  0.83947881  0.50245134  0.55100930  1
  S  S30  1  0.45304135  0.46316595  0.83622192  1
  S  S31  1  0.57067846  0.55084014  0.19722521  1
  S  S32  1  0.91622564  0.47479860  0.98542840  1
  S  S33  1  0.07025635  0.45529409  0.00501047  1
  S  S34  1  0.68372007  0.47637377  0.89725194  1
  S  S35  1  0.33370614  0.53252090  0.10345339  1
  S  S36  1  0.58852427  0.96972129  0.66272539  1
  S  S37  1  0.42954167  0.98890248  0.37386120  1
  S  S38  1  0.26158161  0.48067003  0.29782686  1
  S  S39  1  0.76486224  0.45343962  0.67334168  1
  S  S40  1  0.65921801  0.00735805  0.43422096  1
  S  S41  1  0.32086594  0.02673771  0.52552984  1
