# generated using pymatgen
data_Pr2Mn3(SbS3)4
_symmetry_space_group_name_H-M   'P 1'
_cell_length_a   20.02960800
_cell_length_b   3.90410600
_cell_length_c   14.95364829
_cell_angle_alpha   90.00000000
_cell_angle_beta   126.33350609
_cell_angle_gamma   90.00000000
_symmetry_Int_Tables_number   1
_chemical_formula_structural   Pr2Mn3(SbS3)4
_chemical_formula_sum   'Pr4 Mn6 Sb8 S24'
_cell_volume   942.00006694
_cell_formula_units_Z   2
loop_
 _symmetry_equiv_pos_site_id
 _symmetry_equiv_pos_as_xyz
  1  'x, y, z'
loop_
 _atom_site_type_symbol
 _atom_site_label
 _atom_site_symmetry_multiplicity
 _atom_site_fract_x
 _atom_site_fract_y
 _atom_site_fract_z
 _atom_site_occupancy
  Pr  Pr0  1  0.26221717  0.49960394  0.86331752  1
  Pr  Pr1  1  0.73074059  0.53548035  0.13009520  1
  Pr  Pr2  1  0.77453343  0.97063849  0.87791228  1
  Pr  Pr3  1  0.23725639  0.96952804  0.13952970  1
  Mn  Mn4  1  0.28814380  0.59095320  0.57730127  1
  Mn  Mn5  1  0.70913267  0.51630971  0.39170587  1
  Mn  Mn6  1  0.99027237  0.95831513  0.98021191  1
  Mn  Mn7  1  0.78551961  0.04865980  0.58785907  1
  Mn  Mn8  1  0.18474078  0.94496647  0.39430106  1
  Mn  Mn9  1  0.51773837  0.49677561  0.01664814  1
  Sb  Sb10  1  0.89422548  0.98405000  0.45669178  1
  Sb  Sb11  1  0.10450682  0.99465183  0.54256888  1
  Sb  Sb12  1  0.02832673  0.51722602  0.81032512  1
  Sb  Sb13  1  0.97252305  0.47595144  0.19403509  1
  Sb  Sb14  1  0.40827863  0.48889467  0.46127387  1
  Sb  Sb15  1  0.60008759  0.44017944  0.55961228  1
  Sb  Sb16  1  0.52959028  0.01396032  0.82238276  1
  Sb  Sb17  1  0.46680400  0.96477871  0.18659866  1
  S  S18  1  0.92998430  0.00201313  0.78794850  1
  S  S19  1  0.07126018  0.97711699  0.20079749  1
  S  S20  1  0.42154379  0.98353768  0.99237926  1
  S  S21  1  0.58646696  0.99487255  0.01888325  1
  S  S22  1  0.18612563  0.00674806  0.90821890  1
  S  S23  1  0.82634637  0.03195271  0.09978791  1
  S  S24  1  0.10793675  0.46649925  0.65712962  1
  S  S25  1  0.89556131  0.46737866  0.34508839  1
  S  S26  1  0.73574766  0.97900536  0.31574917  1
  S  S27  1  0.25805473  0.94858528  0.68520807  1
  S  S28  1  0.15972590  0.44783761  0.43619999  1
  S  S29  1  0.83919275  0.50142623  0.55100138  1
  S  S30  1  0.45304396  0.46232032  0.83653456  1
  S  S31  1  0.57124339  0.55106889  0.19764090  1
  S  S32  1  0.91603888  0.47389007  0.98524160  1
  S  S33  1  0.07024344  0.45545635  0.00508107  1
  S  S34  1  0.68365917  0.47710304  0.89749794  1
  S  S35  1  0.33406188  0.53222899  0.10365946  1
  S  S36  1  0.58837882  0.96908184  0.66262252  1
  S  S37  1  0.42914972  0.98994396  0.37376026  1
  S  S38  1  0.26208009  0.48120112  0.29792099  1
  S  S39  1  0.76525926  0.45448991  0.67383962  1
  S  S40  1  0.65875158  0.00863459  0.43365412  1
  S  S41  1  0.32112818  0.02616295  0.52573848  1
