# generated using pymatgen
data_Pr2Mn3(SbS3)4
_symmetry_space_group_name_H-M   'P 1'
_cell_length_a   20.02960800
_cell_length_b   3.90410600
_cell_length_c   14.95364829
_cell_angle_alpha   90.00000000
_cell_angle_beta   126.33350609
_cell_angle_gamma   90.00000000
_symmetry_Int_Tables_number   1
_chemical_formula_structural   Pr2Mn3(SbS3)4
_chemical_formula_sum   'Pr4 Mn6 Sb8 S24'
_cell_volume   942.00006694
_cell_formula_units_Z   2
loop_
 _symmetry_equiv_pos_site_id
 _symmetry_equiv_pos_as_xyz
  1  'x, y, z'
loop_
 _atom_site_type_symbol
 _atom_site_label
 _atom_site_symmetry_multiplicity
 _atom_site_fract_x
 _atom_site_fract_y
 _atom_site_fract_z
 _atom_site_occupancy
  Pr  Pr0  1  0.26202781  0.49922450  0.86328026  1
  Pr  Pr1  1  0.73080133  0.53499373  0.13007028  1
  Pr  Pr2  1  0.77442034  0.97069037  0.87783169  1
  Pr  Pr3  1  0.23708167  0.96983363  0.13924021  1
  Mn  Mn4  1  0.28806046  0.58989899  0.57718285  1
  Mn  Mn5  1  0.70901730  0.51638656  0.39173612  1
  Mn  Mn6  1  0.99034213  0.95742881  0.98045963  1
  Mn  Mn7  1  0.78550279  0.04951324  0.58799361  1
  Mn  Mn8  1  0.18481098  0.94461304  0.39421191  1
  Mn  Mn9  1  0.51775346  0.49657408  0.01691025  1
  Sb  Sb10  1  0.89441411  0.98425450  0.45659617  1
  Sb  Sb11  1  0.10436705  0.99503801  0.54217030  1
  Sb  Sb12  1  0.02861194  0.51701168  0.81065359  1
  Sb  Sb13  1  0.97259867  0.47605926  0.19389551  1
  Sb  Sb14  1  0.40829211  0.48892117  0.46125972  1
  Sb  Sb15  1  0.60007789  0.43851797  0.55953897  1
  Sb  Sb16  1  0.52972111  0.01346527  0.82248026  1
  Sb  Sb17  1  0.46678745  0.96393495  0.18657390  1
  S  S18  1  0.92984949  0.00162212  0.78751054  1
  S  S19  1  0.07122300  0.97596160  0.20124787  1
  S  S20  1  0.42118770  0.98384874  0.99237795  1
  S  S21  1  0.58654363  0.99479817  0.01881856  1
  S  S22  1  0.18585065  0.00637640  0.90779669  1
  S  S23  1  0.82654866  0.03107611  0.10014404  1
  S  S24  1  0.10816656  0.46688653  0.65691042  1
  S  S25  1  0.89582582  0.46726448  0.34513766  1
  S  S26  1  0.73556208  0.97911737  0.31540532  1
  S  S27  1  0.25840873  0.94942123  0.68513672  1
  S  S28  1  0.15992981  0.44808922  0.43662998  1
  S  S29  1  0.83885950  0.50041909  0.55077045  1
  S  S30  1  0.45295554  0.46117209  0.83662199  1
  S  S31  1  0.57172896  0.55124337  0.19797378  1
  S  S32  1  0.91597779  0.47317402  0.98507729  1
  S  S33  1  0.07031772  0.45546827  0.00514129  1
  S  S34  1  0.68355910  0.47813721  0.89761752  1
  S  S35  1  0.33442796  0.53141373  0.10386210  1
  S  S36  1  0.58809678  0.96861399  0.66242948  1
  S  S37  1  0.42886394  0.99137477  0.37388342  1
  S  S38  1  0.26246795  0.48200125  0.29784047  1
  S  S39  1  0.76561419  0.45518252  0.67414999  1
  S  S40  1  0.65822537  0.00955905  0.43314564  1
  S  S41  1  0.32127976  0.02562636  0.52571673  1
