# generated using pymatgen
data_Pr2Mn3(SbS3)4
_symmetry_space_group_name_H-M   'P 1'
_cell_length_a   20.02960800
_cell_length_b   3.90410600
_cell_length_c   14.95364829
_cell_angle_alpha   90.00000000
_cell_angle_beta   126.33350609
_cell_angle_gamma   90.00000000
_symmetry_Int_Tables_number   1
_chemical_formula_structural   Pr2Mn3(SbS3)4
_chemical_formula_sum   'Pr4 Mn6 Sb8 S24'
_cell_volume   942.00006694
_cell_formula_units_Z   2
loop_
 _symmetry_equiv_pos_site_id
 _symmetry_equiv_pos_as_xyz
  1  'x, y, z'
loop_
 _atom_site_type_symbol
 _atom_site_label
 _atom_site_symmetry_multiplicity
 _atom_site_fract_x
 _atom_site_fract_y
 _atom_site_fract_z
 _atom_site_occupancy
  Pr  Pr0  1  0.26194541  0.49884792  0.86331471  1
  Pr  Pr1  1  0.73082445  0.53424450  0.12996919  1
  Pr  Pr2  1  0.77437246  0.97101238  0.87787534  1
  Pr  Pr3  1  0.23692620  0.97009650  0.13897002  1
  Mn  Mn4  1  0.28801899  0.58874020  0.57706942  1
  Mn  Mn5  1  0.70889953  0.51656726  0.39185204  1
  Mn  Mn6  1  0.99038673  0.95667768  0.98060447  1
  Mn  Mn7  1  0.78554419  0.05035556  0.58806631  1
  Mn  Mn8  1  0.18495487  0.94403381  0.39408449  1
  Mn  Mn9  1  0.51785014  0.49659396  0.01720071  1
  Sb  Sb10  1  0.89462263  0.98439053  0.45644195  1
  Sb  Sb11  1  0.10425902  0.99550446  0.54185773  1
  Sb  Sb12  1  0.02881151  0.51696782  0.81096639  1
  Sb  Sb13  1  0.97262684  0.47571965  0.19368861  1
  Sb  Sb14  1  0.40833523  0.48865024  0.46126363  1
  Sb  Sb15  1  0.60009958  0.43669380  0.55947755  1
  Sb  Sb16  1  0.52988928  0.01281614  0.82251894  1
  Sb  Sb17  1  0.46676199  0.96322539  0.18653979  1
  S  S18  1  0.92960007  0.00068434  0.78702125  1
  S  S19  1  0.07123344  0.97488117  0.20170151  1
  S  S20  1  0.42082991  0.98408391  0.99231772  1
  S  S21  1  0.58660745  0.99479172  0.01864208  1
  S  S22  1  0.18565061  0.00575673  0.90736773  1
  S  S23  1  0.82669502  0.02991925  0.10042076  1
  S  S24  1  0.10850625  0.46747780  0.65682000  1
  S  S25  1  0.89612309  0.46729050  0.34523908  1
  S  S26  1  0.73563967  0.97959269  0.31530711  1
  S  S27  1  0.25888586  0.94958571  0.68525658  1
  S  S28  1  0.16015406  0.44829527  0.43705884  1
  S  S29  1  0.83848984  0.49900675  0.55066428  1
  S  S30  1  0.45258901  0.46051360  0.83643266  1
  S  S31  1  0.57232510  0.55082790  0.19850647  1
  S  S32  1  0.91581713  0.47260550  0.98477451  1
  S  S33  1  0.07038129  0.45478737  0.00523907  1
  S  S34  1  0.68357069  0.47800302  0.89777931  1
  S  S35  1  0.33475883  0.53028348  0.10397644  1
  S  S36  1  0.58791668  0.96863105  0.66230917  1
  S  S37  1  0.42864260  0.99249076  0.37403773  1
  S  S38  1  0.26276517  0.48296556  0.29754050  1
  S  S39  1  0.76587306  0.45583609  0.67433013  1
  S  S40  1  0.65776555  0.01085465  0.43268440  1
  S  S41  1  0.32135963  0.02506462  0.52579196  1
