# generated using pymatgen
data_Pr2Mn3(SbS3)4
_symmetry_space_group_name_H-M   'P 1'
_cell_length_a   20.02960800
_cell_length_b   3.90410600
_cell_length_c   14.95364829
_cell_angle_alpha   90.00000000
_cell_angle_beta   126.33350609
_cell_angle_gamma   90.00000000
_symmetry_Int_Tables_number   1
_chemical_formula_structural   Pr2Mn3(SbS3)4
_chemical_formula_sum   'Pr4 Mn6 Sb8 S24'
_cell_volume   942.00006694
_cell_formula_units_Z   2
loop_
 _symmetry_equiv_pos_site_id
 _symmetry_equiv_pos_as_xyz
  1  'x, y, z'
loop_
 _atom_site_type_symbol
 _atom_site_label
 _atom_site_symmetry_multiplicity
 _atom_site_fract_x
 _atom_site_fract_y
 _atom_site_fract_z
 _atom_site_occupancy
  Pr  Pr0  1  0.26192678  0.49856473  0.86343384  1
  Pr  Pr1  1  0.73086034  0.53347144  0.12978792  1
  Pr  Pr2  1  0.77433562  0.97144439  0.87788322  1
  Pr  Pr3  1  0.23677075  0.97048668  0.13873461  1
  Mn  Mn4  1  0.28796003  0.58726887  0.57689050  1
  Mn  Mn5  1  0.70881007  0.51642252  0.39186409  1
  Mn  Mn6  1  0.99045858  0.95561559  0.98086521  1
  Mn  Mn7  1  0.78554929  0.05111850  0.58805414  1
  Mn  Mn8  1  0.18509112  0.94335576  0.39377900  1
  Mn  Mn9  1  0.51793934  0.49671802  0.01736184  1
  Sb  Sb10  1  0.89482124  0.98462806  0.45621548  1
  Sb  Sb11  1  0.10417961  0.99615358  0.54158421  1
  Sb  Sb12  1  0.02896278  0.51691985  0.81114891  1
  Sb  Sb13  1  0.97272616  0.47527306  0.19350460  1
  Sb  Sb14  1  0.40838412  0.48814132  0.46121266  1
  Sb  Sb15  1  0.60011189  0.43500495  0.55935123  1
  Sb  Sb16  1  0.53007629  0.01205651  0.82250940  1
  Sb  Sb17  1  0.46669418  0.96255670  0.18647670  1
  S  S18  1  0.92932297  0.99917792  0.78651338  1
  S  S19  1  0.07119968  0.97396874  0.20200557  1
  S  S20  1  0.42060354  0.98412318  0.99230141  1
  S  S21  1  0.58674072  0.99546955  0.01863530  1
  S  S22  1  0.18566313  0.00590921  0.90712248  1
  S  S23  1  0.82701013  0.02854567  0.10084042  1
  S  S24  1  0.10899070  0.46791278  0.65705598  1
  S  S25  1  0.89635211  0.46746508  0.34523315  1
  S  S26  1  0.73577408  0.98091831  0.31510125  1
  S  S27  1  0.25914814  0.94987228  0.68537750  1
  S  S28  1  0.16020960  0.44823530  0.43754420  1
  S  S29  1  0.83817299  0.49801651  0.55066537  1
  S  S30  1  0.45228882  0.46015835  0.83627965  1
  S  S31  1  0.57305679  0.54991926  0.19899495  1
  S  S32  1  0.91571499  0.47165969  0.98449179  1
  S  S33  1  0.07042069  0.45336716  0.00535473  1
  S  S34  1  0.68353207  0.47727296  0.89780543  1
  S  S35  1  0.33509619  0.52921356  0.10414110  1
  S  S36  1  0.58764084  0.96912374  0.66222059  1
  S  S37  1  0.42855653  0.99329189  0.37436825  1
  S  S38  1  0.26306078  0.48370074  0.29723911  1
  S  S39  1  0.76614965  0.45650881  0.67476880  1
  S  S40  1  0.65735483  0.01242321  0.43223633  1
  S  S41  1  0.32151001  0.02510429  0.52593863  1
