# generated using pymatgen
data_Pr2Mn3(SbS3)4
_symmetry_space_group_name_H-M   'P 1'
_cell_length_a   20.02960800
_cell_length_b   3.90410600
_cell_length_c   14.95364829
_cell_angle_alpha   90.00000000
_cell_angle_beta   126.33350609
_cell_angle_gamma   90.00000000
_symmetry_Int_Tables_number   1
_chemical_formula_structural   Pr2Mn3(SbS3)4
_chemical_formula_sum   'Pr4 Mn6 Sb8 S24'
_cell_volume   942.00006694
_cell_formula_units_Z   2
loop_
 _symmetry_equiv_pos_site_id
 _symmetry_equiv_pos_as_xyz
  1  'x, y, z'
loop_
 _atom_site_type_symbol
 _atom_site_label
 _atom_site_symmetry_multiplicity
 _atom_site_fract_x
 _atom_site_fract_y
 _atom_site_fract_z
 _atom_site_occupancy
  Pr  Pr0  1  0.26982675  0.50172630  0.86771935  1
  Pr  Pr1  1  0.73326361  0.51416690  0.13297030  1
  Pr  Pr2  1  0.76552307  0.02763733  0.86629043  1
  Pr  Pr3  1  0.23244378  0.99078608  0.13193123  1
  Mn  Mn4  1  0.29984067  0.46989168  0.60511708  1
  Mn  Mn5  1  0.68495142  0.46286057  0.36145400  1
  Mn  Mn6  1  0.00271893  0.98891979  0.01033660  1
  Mn  Mn7  1  0.79582907  0.01581055  0.61784455  1
  Mn  Mn8  1  0.19397252  0.98487562  0.36615771  1
  Mn  Mn9  1  0.48430545  0.47084525  0.98410589  1
  Sb  Sb10  1  0.88992467  0.98458573  0.44894289  1
  Sb  Sb11  1  0.10991469  0.98180669  0.54583760  1
  Sb  Sb12  1  0.03542377  0.53296148  0.82094558  1
  Sb  Sb13  1  0.96672168  0.49828321  0.18863662  1
  Sb  Sb14  1  0.39374157  0.50056854  0.44933368  1
  Sb  Sb15  1  0.60870453  0.47885978  0.54680988  1
  Sb  Sb16  1  0.53291955  0.97640993  0.80655051  1
  Sb  Sb17  1  0.46511389  0.02242102  0.18803690  1
  S  S18  1  0.93614028  0.01632483  0.80888523  1
  S  S19  1  0.06644129  0.01450402  0.20441139  1
  S  S20  1  0.41656511  0.97080939  0.98654911  1
  S  S21  1  0.58684969  0.04046577  0.01663600  1
  S  S22  1  0.16950085  0.04657358  0.90117666  1
  S  S23  1  0.82682197  0.02938803  0.10465132  1
  S  S24  1  0.08863402  0.49708340  0.64350104  1
  S  S25  1  0.91371965  0.48362086  0.35298213  1
  S  S26  1  0.73877971  0.99855746  0.30037854  1
  S  S27  1  0.25649314  0.01175438  0.70350771  1
  S  S28  1  0.16870579  0.51948318  0.43617177  1
  S  S29  1  0.80989024  0.50325145  0.53864912  1
  S  S30  1  0.43046996  0.46633804  0.79576093  1
  S  S31  1  0.55252030  0.51614798  0.18095654  1
  S  S32  1  0.92249873  0.50296935  0.99466163  1
  S  S33  1  0.08958733  0.49601669  0.02640992  1
  S  S34  1  0.66607750  0.55819175  0.89724277  1
  S  S35  1  0.32903935  0.47507450  0.09416129  1
  S  S36  1  0.58750322  0.98982736  0.64792398  1
  S  S37  1  0.39714533  0.97881459  0.33912027  1
  S  S38  1  0.24654487  0.47615750  0.31780140  1
  S  S39  1  0.75873550  0.53032104  0.68722566  1
  S  S40  1  0.66452750  0.99095696  0.44675385  1
  S  S41  1  0.33054371  0.98594231  0.55613631  1
