# generated using pymatgen
data_Pr2Mn3(SbS3)4
_symmetry_space_group_name_H-M   'P 1'
_cell_length_a   20.02960800
_cell_length_b   3.90410600
_cell_length_c   14.95364829
_cell_angle_alpha   90.00000000
_cell_angle_beta   126.33350609
_cell_angle_gamma   90.00000000
_symmetry_Int_Tables_number   1
_chemical_formula_structural   Pr2Mn3(SbS3)4
_chemical_formula_sum   'Pr4 Mn6 Sb8 S24'
_cell_volume   942.00006694
_cell_formula_units_Z   2
loop_
 _symmetry_equiv_pos_site_id
 _symmetry_equiv_pos_as_xyz
  1  'x, y, z'
loop_
 _atom_site_type_symbol
 _atom_site_label
 _atom_site_symmetry_multiplicity
 _atom_site_fract_x
 _atom_site_fract_y
 _atom_site_fract_z
 _atom_site_occupancy
  Pr  Pr0  1  0.26191896  0.49830312  0.86354352  1
  Pr  Pr1  1  0.73087446  0.53257169  0.12951175  1
  Pr  Pr2  1  0.77429701  0.97190570  0.87786320  1
  Pr  Pr3  1  0.23659458  0.97081836  0.13849967  1
  Mn  Mn4  1  0.28783503  0.58574440  0.57682709  1
  Mn  Mn5  1  0.70885691  0.51615456  0.39203840  1
  Mn  Mn6  1  0.99051978  0.95433727  0.98112144  1
  Mn  Mn7  1  0.78553609  0.05189404  0.58802470  1
  Mn  Mn8  1  0.18524736  0.94250318  0.39355449  1
  Mn  Mn9  1  0.51806365  0.49659950  0.01760540  1
  Sb  Sb10  1  0.89494299  0.98481996  0.45597425  1
  Sb  Sb11  1  0.10409621  0.99663475  0.54130910  1
  Sb  Sb12  1  0.02900473  0.51687517  0.81132730  1
  Sb  Sb13  1  0.97278956  0.47466069  0.19332862  1
  Sb  Sb14  1  0.40853776  0.48775265  0.46126571  1
  Sb  Sb15  1  0.60013786  0.43354393  0.55937025  1
  Sb  Sb16  1  0.53018825  0.01146963  0.82249125  1
  Sb  Sb17  1  0.46661726  0.96177321  0.18642373  1
  S  S18  1  0.92903304  0.99824361  0.78627937  1
  S  S19  1  0.07101595  0.97279092  0.20208797  1
  S  S20  1  0.42049468  0.98438726  0.99238765  1
  S  S21  1  0.58698515  0.99611141  0.01878365  1
  S  S22  1  0.18566950  0.00614770  0.90707486  1
  S  S23  1  0.82715876  0.02681363  0.10104322  1
  S  S24  1  0.10928242  0.46868017  0.65710330  1
  S  S25  1  0.89660988  0.46707966  0.34537270  1
  S  S26  1  0.73602982  0.98259599  0.31510373  1
  S  S27  1  0.25945536  0.95008410  0.68564964  1
  S  S28  1  0.16020250  0.44750117  0.43795868  1
  S  S29  1  0.83790913  0.49703799  0.55063141  1
  S  S30  1  0.45194704  0.45976338  0.83602431  1
  S  S31  1  0.57372519  0.54931713  0.19965770  1
  S  S32  1  0.91581785  0.47135834  0.98447422  1
  S  S33  1  0.07058886  0.45267810  0.00564145  1
  S  S34  1  0.68333741  0.47701128  0.89776928  1
  S  S35  1  0.33529660  0.52837172  0.10399955  1
  S  S36  1  0.58740311  0.96938847  0.66213280  1
  S  S37  1  0.42843682  0.99413328  0.37476261  1
  S  S38  1  0.26325278  0.48436930  0.29686314  1
  S  S39  1  0.76635065  0.45702508  0.67532062  1
  S  S40  1  0.65706136  0.01381322  0.43178740  1
  S  S41  1  0.32180414  0.02544744  0.52607320  1
