# generated using pymatgen
data_Pr2Mn3(SbS3)4
_symmetry_space_group_name_H-M   'P 1'
_cell_length_a   20.02960800
_cell_length_b   3.90410600
_cell_length_c   14.95364829
_cell_angle_alpha   90.00000000
_cell_angle_beta   126.33350609
_cell_angle_gamma   90.00000000
_symmetry_Int_Tables_number   1
_chemical_formula_structural   Pr2Mn3(SbS3)4
_chemical_formula_sum   'Pr4 Mn6 Sb8 S24'
_cell_volume   942.00006694
_cell_formula_units_Z   2
loop_
 _symmetry_equiv_pos_site_id
 _symmetry_equiv_pos_as_xyz
  1  'x, y, z'
loop_
 _atom_site_type_symbol
 _atom_site_label
 _atom_site_symmetry_multiplicity
 _atom_site_fract_x
 _atom_site_fract_y
 _atom_site_fract_z
 _atom_site_occupancy
  Pr  Pr0  1  0.26183306  0.49790586  0.86363762  1
  Pr  Pr1  1  0.73089159  0.53152748  0.12926401  1
  Pr  Pr2  1  0.77422100  0.97256368  0.87779128  1
  Pr  Pr3  1  0.23643550  0.97117334  0.13830119  1
  Mn  Mn4  1  0.28767521  0.58444440  0.57680228  1
  Mn  Mn5  1  0.70890410  0.51557396  0.39219799  1
  Mn  Mn6  1  0.99062769  0.95307193  0.98138010  1
  Mn  Mn7  1  0.78556476  0.05254493  0.58790312  1
  Mn  Mn8  1  0.18533098  0.94225780  0.39341929  1
  Mn  Mn9  1  0.51810219  0.49658825  0.01771374  1
  Sb  Sb10  1  0.89508328  0.98475075  0.45573562  1
  Sb  Sb11  1  0.10404339  0.99696043  0.54114677  1
  Sb  Sb12  1  0.02907270  0.51706414  0.81153380  1
  Sb  Sb13  1  0.97285914  0.47439258  0.19320348  1
  Sb  Sb14  1  0.40865838  0.48759187  0.46139005  1
  Sb  Sb15  1  0.60015062  0.43238414  0.55937131  1
  Sb  Sb16  1  0.53029822  0.01099744  0.82240119  1
  Sb  Sb17  1  0.46662397  0.96115332  0.18643736  1
  S  S18  1  0.92879436  0.99748938  0.78620501  1
  S  S19  1  0.07065402  0.97167052  0.20194214  1
  S  S20  1  0.42037868  0.98448359  0.99271328  1
  S  S21  1  0.58698515  0.99591026  0.01900642  1
  S  S22  1  0.18576298  0.00671029  0.90714102  1
  S  S23  1  0.82748498  0.02438095  0.10131556  1
  S  S24  1  0.10959440  0.46973318  0.65725260  1
  S  S25  1  0.89689043  0.46705947  0.34557341  1
  S  S26  1  0.73627680  0.98441391  0.31507059  1
  S  S27  1  0.25987878  0.94956778  0.68591617  1
  S  S28  1  0.16011116  0.44725392  0.43810626  1
  S  S29  1  0.83781831  0.49595458  0.55067968  1
  S  S30  1  0.45163553  0.45857797  0.83582812  1
  S  S31  1  0.57437872  0.54902255  0.20029914  1
  S  S32  1  0.91595060  0.47118731  0.98454826  1
  S  S33  1  0.07075031  0.45248486  0.00582304  1
  S  S34  1  0.68304531  0.47712773  0.89780010  1
  S  S35  1  0.33543751  0.52753326  0.10377642  1
  S  S36  1  0.58734428  0.96929216  0.66206649  1
  S  S37  1  0.42847523  0.99486073  0.37532866  1
  S  S38  1  0.26318056  0.48464334  0.29642593  1
  S  S39  1  0.76653652  0.45764420  0.67582827  1
  S  S40  1  0.65684096  0.01496779  0.43145277  1
  S  S41  1  0.32197996  0.02534121  0.52609178  1
