# generated using pymatgen
data_Pr2Mn3(SbS3)4
_symmetry_space_group_name_H-M   'P 1'
_cell_length_a   20.02960800
_cell_length_b   3.90410600
_cell_length_c   14.95364829
_cell_angle_alpha   90.00000000
_cell_angle_beta   126.33350609
_cell_angle_gamma   90.00000000
_symmetry_Int_Tables_number   1
_chemical_formula_structural   Pr2Mn3(SbS3)4
_chemical_formula_sum   'Pr4 Mn6 Sb8 S24'
_cell_volume   942.00006694
_cell_formula_units_Z   2
loop_
 _symmetry_equiv_pos_site_id
 _symmetry_equiv_pos_as_xyz
  1  'x, y, z'
loop_
 _atom_site_type_symbol
 _atom_site_label
 _atom_site_symmetry_multiplicity
 _atom_site_fract_x
 _atom_site_fract_y
 _atom_site_fract_z
 _atom_site_occupancy
  Pr  Pr0  1  0.26173681  0.49728291  0.86359821  1
  Pr  Pr1  1  0.73087204  0.53055691  0.12902445  1
  Pr  Pr2  1  0.77416053  0.97296413  0.87774710  1
  Pr  Pr3  1  0.23627191  0.97165560  0.13807842  1
  Mn  Mn4  1  0.28743105  0.58289967  0.57675758  1
  Mn  Mn5  1  0.70902078  0.51498420  0.39243813  1
  Mn  Mn6  1  0.99065572  0.95168956  0.98152719  1
  Mn  Mn7  1  0.78561214  0.05308380  0.58785409  1
  Mn  Mn8  1  0.18544955  0.94251510  0.39327471  1
  Mn  Mn9  1  0.51798941  0.49681890  0.01757083  1
  Sb  Sb10  1  0.89519732  0.98504565  0.45549384  1
  Sb  Sb11  1  0.10403567  0.99739269  0.54107000  1
  Sb  Sb12  1  0.02906632  0.51743382  0.81173759  1
  Sb  Sb13  1  0.97294419  0.47375394  0.19304367  1
  Sb  Sb14  1  0.40880472  0.48743863  0.46152629  1
  Sb  Sb15  1  0.60015194  0.43144362  0.55926868  1
  Sb  Sb16  1  0.53034969  0.01068863  0.82221114  1
  Sb  Sb17  1  0.46671616  0.96034162  0.18641356  1
  S  S18  1  0.92860214  0.99668106  0.78619515  1
  S  S19  1  0.07035807  0.97046418  0.20205407  1
  S  S20  1  0.42009795  0.98496644  0.99298303  1
  S  S21  1  0.58693538  0.99538152  0.01902307  1
  S  S22  1  0.18562078  0.00723734  0.90700466  1
  S  S23  1  0.82764362  0.02214706  0.10161954  1
  S  S24  1  0.10975510  0.47128684  0.65744243  1
  S  S25  1  0.89717431  0.46693833  0.34581744  1
  S  S26  1  0.73648971  0.98621498  0.31525409  1
  S  S27  1  0.26042160  0.95006593  0.68634935  1
  S  S28  1  0.15998691  0.44685025  0.43820257  1
  S  S29  1  0.83760663  0.49480193  0.55063860  1
  S  S30  1  0.45148557  0.45709548  0.83588587  1
  S  S31  1  0.57490554  0.54885942  0.20088687  1
  S  S32  1  0.91596769  0.47109342  0.98449557  1
  S  S33  1  0.07088290  0.45197667  0.00600136  1
  S  S34  1  0.68279659  0.47690656  0.89759586  1
  S  S35  1  0.33572790  0.52717413  0.10360099  1
  S  S36  1  0.58729105  0.96894417  0.66205114  1
  S  S37  1  0.42840255  0.99561595  0.37553400  1
  S  S38  1  0.26308318  0.48450345  0.29594852  1
  S  S39  1  0.76677283  0.45809889  0.67636601  1
  S  S40  1  0.65667328  0.01571248  0.43136924  1
  S  S41  1  0.32208166  0.02483678  0.52604948  1
