# generated using pymatgen
data_Pr2Mn3(SbS3)4
_symmetry_space_group_name_H-M   'P 1'
_cell_length_a   20.02960800
_cell_length_b   3.90410600
_cell_length_c   14.95364829
_cell_angle_alpha   90.00000000
_cell_angle_beta   126.33350609
_cell_angle_gamma   90.00000000
_symmetry_Int_Tables_number   1
_chemical_formula_structural   Pr2Mn3(SbS3)4
_chemical_formula_sum   'Pr4 Mn6 Sb8 S24'
_cell_volume   942.00006694
_cell_formula_units_Z   2
loop_
 _symmetry_equiv_pos_site_id
 _symmetry_equiv_pos_as_xyz
  1  'x, y, z'
loop_
 _atom_site_type_symbol
 _atom_site_label
 _atom_site_symmetry_multiplicity
 _atom_site_fract_x
 _atom_site_fract_y
 _atom_site_fract_z
 _atom_site_occupancy
  Pr  Pr0  1  0.26164928  0.49667991  0.86350751  1
  Pr  Pr1  1  0.73084598  0.52967593  0.12882685  1
  Pr  Pr2  1  0.77408732  0.97325870  0.87759342  1
  Pr  Pr3  1  0.23607448  0.97239121  0.13789479  1
  Mn  Mn4  1  0.28709991  0.58163098  0.57670446  1
  Mn  Mn5  1  0.70904416  0.51411850  0.39257288  1
  Mn  Mn6  1  0.99073538  0.95062629  0.98167696  1
  Mn  Mn7  1  0.78572723  0.05384335  0.58772920  1
  Mn  Mn8  1  0.18562036  0.94306514  0.39324993  1
  Mn  Mn9  1  0.51794118  0.49737472  0.01752151  1
  Sb  Sb10  1  0.89527116  0.98518399  0.45531351  1
  Sb  Sb11  1  0.10409228  0.99803454  0.54103779  1
  Sb  Sb12  1  0.02909393  0.51772855  0.81194218  1
  Sb  Sb13  1  0.97299837  0.47340076  0.19291186  1
  Sb  Sb14  1  0.40891940  0.48750252  0.46169557  1
  Sb  Sb15  1  0.60023378  0.43063693  0.55917992  1
  Sb  Sb16  1  0.53031222  0.01039223  0.82203594  1
  Sb  Sb17  1  0.46685107  0.95959518  0.18643087  1
  S  S18  1  0.92853011  0.99514799  0.78626666  1
  S  S19  1  0.06999496  0.96961409  0.20212686  1
  S  S20  1  0.41994187  0.98555629  0.99311809  1
  S  S21  1  0.58681768  0.99506136  0.01905770  1
  S  S22  1  0.18542475  0.00646160  0.90676558  1
  S  S23  1  0.82781293  0.02008623  0.10195182  1
  S  S24  1  0.10999362  0.47230498  0.65770836  1
  S  S25  1  0.89737389  0.46691039  0.34600882  1
  S  S26  1  0.73667259  0.98744381  0.31532070  1
  S  S27  1  0.26105612  0.95021335  0.68681022  1
  S  S28  1  0.15976375  0.44681675  0.43831028  1
  S  S29  1  0.83735001  0.49377807  0.55073805  1
  S  S30  1  0.45141622  0.45565362  0.83601266  1
  S  S31  1  0.57537086  0.54904559  0.20135729  1
  S  S32  1  0.91595198  0.47066370  0.98452445  1
  S  S33  1  0.07099698  0.45130480  0.00598616  1
  S  S34  1  0.68250294  0.47663124  0.89729851  1
  S  S35  1  0.33583215  0.52727089  0.10310496  1
  S  S36  1  0.58733706  0.96843251  0.66196284  1
  S  S37  1  0.42844250  0.99655572  0.37572637  1
  S  S38  1  0.26300046  0.48460184  0.29530098  1
  S  S39  1  0.76696984  0.45916526  0.67695510  1
  S  S40  1  0.65651917  0.01596196  0.43111514  1
  S  S41  1  0.32218730  0.02393504  0.52616814  1
