# generated using pymatgen
data_Pr2Mn3(SbS3)4
_symmetry_space_group_name_H-M   'P 1'
_cell_length_a   20.02960800
_cell_length_b   3.90410600
_cell_length_c   14.95364829
_cell_angle_alpha   90.00000000
_cell_angle_beta   126.33350609
_cell_angle_gamma   90.00000000
_symmetry_Int_Tables_number   1
_chemical_formula_structural   Pr2Mn3(SbS3)4
_chemical_formula_sum   'Pr4 Mn6 Sb8 S24'
_cell_volume   942.00006694
_cell_formula_units_Z   2
loop_
 _symmetry_equiv_pos_site_id
 _symmetry_equiv_pos_as_xyz
  1  'x, y, z'
loop_
 _atom_site_type_symbol
 _atom_site_label
 _atom_site_symmetry_multiplicity
 _atom_site_fract_x
 _atom_site_fract_y
 _atom_site_fract_z
 _atom_site_occupancy
  Pr  Pr0  1  0.26156470  0.49611903  0.86346236  1
  Pr  Pr1  1  0.73088791  0.52891824  0.12858163  1
  Pr  Pr2  1  0.77398358  0.97351347  0.87734277  1
  Pr  Pr3  1  0.23592366  0.97314277  0.13778982  1
  Mn  Mn4  1  0.28671661  0.58005077  0.57648657  1
  Mn  Mn5  1  0.70913299  0.51300569  0.39262679  1
  Mn  Mn6  1  0.99082908  0.94995513  0.98185144  1
  Mn  Mn7  1  0.78582179  0.05427095  0.58756952  1
  Mn  Mn8  1  0.18568758  0.94391400  0.39315255  1
  Mn  Mn9  1  0.51795856  0.49814922  0.01754570  1
  Sb  Sb10  1  0.89534814  0.98518062  0.45522564  1
  Sb  Sb11  1  0.10419597  0.99850618  0.54106291  1
  Sb  Sb12  1  0.02918148  0.51783670  0.81212367  1
  Sb  Sb13  1  0.97301066  0.47315457  0.19284229  1
  Sb  Sb14  1  0.40908561  0.48764657  0.46184820  1
  Sb  Sb15  1  0.60027073  0.43003555  0.55906546  1
  Sb  Sb16  1  0.53022959  0.01027938  0.82181301  1
  Sb  Sb17  1  0.46694243  0.95910351  0.18638228  1
  S  S18  1  0.92851083  0.99412708  0.78625629  1
  S  S19  1  0.06964286  0.96843087  0.20204431  1
  S  S20  1  0.41958036  0.98636315  0.99308682  1
  S  S21  1  0.58679766  0.99400786  0.01930471  1
  S  S22  1  0.18520072  0.00531938  0.90642246  1
  S  S23  1  0.82796403  0.01798781  0.10236345  1
  S  S24  1  0.11015912  0.47356013  0.65791764  1
  S  S25  1  0.89755109  0.46729178  0.34622217  1
  S  S26  1  0.73677260  0.98867074  0.31541089  1
  S  S27  1  0.26158015  0.95025086  0.68734497  1
  S  S28  1  0.15951035  0.44707047  0.43839105  1
  S  S29  1  0.83716239  0.49268232  0.55103390  1
  S  S30  1  0.45113208  0.45435524  0.83602523  1
  S  S31  1  0.57565410  0.54980457  0.20170500  1
  S  S32  1  0.91587818  0.47083153  0.98442693  1
  S  S33  1  0.07113552  0.45089991  0.00605697  1
  S  S34  1  0.68225071  0.47697700  0.89715475  1
  S  S35  1  0.33587701  0.52728168  0.10255730  1
  S  S36  1  0.58734666  0.96750972  0.66186688  1
  S  S37  1  0.42825361  0.99730515  0.37565260  1
  S  S38  1  0.26284237  0.48524572  0.29468779  1
  S  S39  1  0.76708689  0.46025617  0.67752523  1
  S  S40  1  0.65637419  0.01560076  0.43093991  1
  S  S41  1  0.32232924  0.02344411  0.52612909  1
