# generated using pymatgen
data_Pr2Mn3(SbS3)4
_symmetry_space_group_name_H-M   'P 1'
_cell_length_a   20.02960800
_cell_length_b   3.90410600
_cell_length_c   14.95364829
_cell_angle_alpha   90.00000000
_cell_angle_beta   126.33350609
_cell_angle_gamma   90.00000000
_symmetry_Int_Tables_number   1
_chemical_formula_structural   Pr2Mn3(SbS3)4
_chemical_formula_sum   'Pr4 Mn6 Sb8 S24'
_cell_volume   942.00006694
_cell_formula_units_Z   2
loop_
 _symmetry_equiv_pos_site_id
 _symmetry_equiv_pos_as_xyz
  1  'x, y, z'
loop_
 _atom_site_type_symbol
 _atom_site_label
 _atom_site_symmetry_multiplicity
 _atom_site_fract_x
 _atom_site_fract_y
 _atom_site_fract_z
 _atom_site_occupancy
  Pr  Pr0  1  0.26147073  0.49540537  0.86337397  1
  Pr  Pr1  1  0.73098120  0.52824392  0.12836950  1
  Pr  Pr2  1  0.77391472  0.97385566  0.87715160  1
  Pr  Pr3  1  0.23571305  0.97412346  0.13765495  1
  Mn  Mn4  1  0.28628775  0.57927570  0.57626061  1
  Mn  Mn5  1  0.70922577  0.51176393  0.39267144  1
  Mn  Mn6  1  0.99092911  0.94943013  0.98209083  1
  Mn  Mn7  1  0.78608991  0.05492660  0.58741501  1
  Mn  Mn8  1  0.18584998  0.94503476  0.39310462  1
  Mn  Mn9  1  0.51804543  0.49872556  0.01754243  1
  Sb  Sb10  1  0.89541126  0.98546197  0.45511430  1
  Sb  Sb11  1  0.10426965  0.99878077  0.54105238  1
  Sb  Sb12  1  0.02927003  0.51768158  0.81220762  1
  Sb  Sb13  1  0.97299111  0.47244832  0.19274670  1
  Sb  Sb14  1  0.40920582  0.48757800  0.46200956  1
  Sb  Sb15  1  0.60037155  0.42969529  0.55898408  1
  Sb  Sb16  1  0.53012260  0.00991389  0.82153753  1
  Sb  Sb17  1  0.46700971  0.95876603  0.18636384  1
  S  S18  1  0.92855398  0.99373975  0.78628270  1
  S  S19  1  0.06950143  0.96731256  0.20201681  1
  S  S20  1  0.41928555  0.98706964  0.99316827  1
  S  S21  1  0.58690368  0.99334697  0.01962961  1
  S  S22  1  0.18491387  0.00439283  0.90588631  1
  S  S23  1  0.82817780  0.01550266  0.10271480  1
  S  S24  1  0.11029648  0.47509290  0.65821014  1
  S  S25  1  0.89780299  0.46763250  0.34634743  1
  S  S26  1  0.73690643  0.98983772  0.31571290  1
  S  S27  1  0.26208651  0.95075781  0.68797439  1
  S  S28  1  0.15927525  0.44773592  0.43857349  1
  S  S29  1  0.83703762  0.49143197  0.55142262  1
  S  S30  1  0.45079653  0.45255416  0.83600228  1
  S  S31  1  0.57563371  0.55046418  0.20167504  1
  S  S32  1  0.91582108  0.47059033  0.98415733  1
  S  S33  1  0.07124297  0.45067850  0.00613155  1
  S  S34  1  0.68215873  0.47766681  0.89719517  1
  S  S35  1  0.33583391  0.52722200  0.10194171  1
  S  S36  1  0.58726851  0.96681352  0.66163789  1
  S  S37  1  0.42811379  0.99834126  0.37562830  1
  S  S38  1  0.26287508  0.48522182  0.29427445  1
  S  S39  1  0.76723473  0.46118390  0.67807657  1
  S  S40  1  0.65619815  0.01525241  0.43060216  1
  S  S41  1  0.32250899  0.02316309  0.52602422  1
