# generated using pymatgen
data_Pr2Mn3(SbS3)4
_symmetry_space_group_name_H-M   'P 1'
_cell_length_a   20.02960800
_cell_length_b   3.90410600
_cell_length_c   14.95364829
_cell_angle_alpha   90.00000000
_cell_angle_beta   126.33350609
_cell_angle_gamma   90.00000000
_symmetry_Int_Tables_number   1
_chemical_formula_structural   Pr2Mn3(SbS3)4
_chemical_formula_sum   'Pr4 Mn6 Sb8 S24'
_cell_volume   942.00006694
_cell_formula_units_Z   2
loop_
 _symmetry_equiv_pos_site_id
 _symmetry_equiv_pos_as_xyz
  1  'x, y, z'
loop_
 _atom_site_type_symbol
 _atom_site_label
 _atom_site_symmetry_multiplicity
 _atom_site_fract_x
 _atom_site_fract_y
 _atom_site_fract_z
 _atom_site_occupancy
  Pr  Pr0  1  0.26133934  0.49469367  0.86333595  1
  Pr  Pr1  1  0.73107118  0.52778404  0.12821606  1
  Pr  Pr2  1  0.77387608  0.97424495  0.87697259  1
  Pr  Pr3  1  0.23547250  0.97505443  0.13749099  1
  Mn  Mn4  1  0.28577003  0.57862117  0.57592176  1
  Mn  Mn5  1  0.70925580  0.51052040  0.39271776  1
  Mn  Mn6  1  0.99098050  0.94929753  0.98235498  1
  Mn  Mn7  1  0.78638984  0.05525425  0.58738294  1
  Mn  Mn8  1  0.18600499  0.94624562  0.39301498  1
  Mn  Mn9  1  0.51811181  0.49873151  0.01753813  1
  Sb  Sb10  1  0.89544894  0.98596307  0.45501405  1
  Sb  Sb11  1  0.10434722  0.99893679  0.54102017  1
  Sb  Sb12  1  0.02939750  0.51748415  0.81234069  1
  Sb  Sb13  1  0.97294862  0.47193674  0.19273151  1
  Sb  Sb14  1  0.40940129  0.48749607  0.46229642  1
  Sb  Sb15  1  0.60042682  0.42913373  0.55887601  1
  Sb  Sb16  1  0.53002820  0.00948783  0.82135175  1
  Sb  Sb17  1  0.46708365  0.95841632  0.18635459  1
  S  S18  1  0.92855872  0.99364891  0.78623743  1
  S  S19  1  0.06934118  0.96647535  0.20196443  1
  S  S20  1  0.41894064  0.98775680  0.99319664  1
  S  S21  1  0.58711231  0.99199138  0.01992770  1
  S  S22  1  0.18465843  0.00387585  0.90549818  1
  S  S23  1  0.82839275  0.01325702  0.10292400  1
  S  S24  1  0.11053161  0.47665495  0.65866345  1
  S  S25  1  0.89814252  0.46805982  0.34658833  1
  S  S26  1  0.73722097  0.99096927  0.31596685  1
  S  S27  1  0.26250720  0.95115078  0.68833222  1
  S  S28  1  0.15887194  0.44874158  0.43863066  1
  S  S29  1  0.83673559  0.49042004  0.55185617  1
  S  S30  1  0.45044368  0.45040945  0.83596602  1
  S  S31  1  0.57569201  0.55200921  0.20161197  1
  S  S32  1  0.91583649  0.47080143  0.98382386  1
  S  S33  1  0.07129603  0.45051344  0.00608105  1
  S  S34  1  0.68201082  0.47778462  0.89707500  1
  S  S35  1  0.33579880  0.52732237  0.10123362  1
  S  S36  1  0.58728302  0.96595716  0.66153363  1
  S  S37  1  0.42811427  0.99941406  0.37563614  1
  S  S38  1  0.26287681  0.48455998  0.29401480  1
  S  S39  1  0.76729351  0.46219598  0.67862369  1
  S  S40  1  0.65613317  0.01457517  0.43050667  1
  S  S41  1  0.32268288  0.02302693  0.52608913  1
