# generated using pymatgen
data_Pr2Mn3(SbS3)4
_symmetry_space_group_name_H-M   'P 1'
_cell_length_a   20.02960800
_cell_length_b   3.90410600
_cell_length_c   14.95364829
_cell_angle_alpha   90.00000000
_cell_angle_beta   126.33350609
_cell_angle_gamma   90.00000000
_symmetry_Int_Tables_number   1
_chemical_formula_structural   Pr2Mn3(SbS3)4
_chemical_formula_sum   'Pr4 Mn6 Sb8 S24'
_cell_volume   942.00006694
_cell_formula_units_Z   2
loop_
 _symmetry_equiv_pos_site_id
 _symmetry_equiv_pos_as_xyz
  1  'x, y, z'
loop_
 _atom_site_type_symbol
 _atom_site_label
 _atom_site_symmetry_multiplicity
 _atom_site_fract_x
 _atom_site_fract_y
 _atom_site_fract_z
 _atom_site_occupancy
  Pr  Pr0  1  0.26132102  0.49413316  0.86329592  1
  Pr  Pr1  1  0.73123572  0.52739360  0.12815153  1
  Pr  Pr2  1  0.77382941  0.97451414  0.87675872  1
  Pr  Pr3  1  0.23525582  0.97574616  0.13735793  1
  Mn  Mn4  1  0.28533281  0.57802964  0.57572550  1
  Mn  Mn5  1  0.70922241  0.50980303  0.39268950  1
  Mn  Mn6  1  0.99098614  0.94943024  0.98260707  1
  Mn  Mn7  1  0.78663833  0.05586584  0.58739443  1
  Mn  Mn8  1  0.18609345  0.94773548  0.39282995  1
  Mn  Mn9  1  0.51809400  0.49851816  0.01745477  1
  Sb  Sb10  1  0.89556304  0.98654084  0.45499464  1
  Sb  Sb11  1  0.10431930  0.99880425  0.54097555  1
  Sb  Sb12  1  0.02958715  0.51731039  0.81248921  1
  Sb  Sb13  1  0.97293497  0.47152623  0.19264176  1
  Sb  Sb14  1  0.40961625  0.48749175  0.46264070  1
  Sb  Sb15  1  0.60056865  0.42879583  0.55886781  1
  Sb  Sb16  1  0.52992668  0.00897629  0.82116909  1
  Sb  Sb17  1  0.46719075  0.95813244  0.18636540  1
  S  S18  1  0.92858908  0.99393754  0.78631098  1
  S  S19  1  0.06924182  0.96594124  0.20209822  1
  S  S20  1  0.41855119  0.98827584  0.99321434  1
  S  S21  1  0.58736638  0.99091782  0.02024754  1
  S  S22  1  0.18425774  0.00326764  0.90494612  1
  S  S23  1  0.82873858  0.01145975  0.10314827  1
  S  S24  1  0.11088158  0.47806857  0.65906582  1
  S  S25  1  0.89858853  0.46857795  0.34687211  1
  S  S26  1  0.73742629  0.99235116  0.31605669  1
  S  S27  1  0.26289314  0.95163204  0.68873097  1
  S  S28  1  0.15856563  0.45012215  0.43872606  1
  S  S29  1  0.83643253  0.48939439  0.55226837  1
  S  S30  1  0.44988487  0.44887881  0.83589508  1
  S  S31  1  0.57575754  0.55242445  0.20150287  1
  S  S32  1  0.91583934  0.47081968  0.98347118  1
  S  S33  1  0.07123998  0.45063872  0.00595363  1
  S  S34  1  0.68182746  0.47809056  0.89691929  1
  S  S35  1  0.33562325  0.52745359  0.10048681  1
  S  S36  1  0.58729673  0.96472688  0.66158948  1
  S  S37  1  0.42819132  0.00103170  0.37575079  1
  S  S38  1  0.26274184  0.48429742  0.29383907  1
  S  S39  1  0.76735709  0.46311563  0.67921883  1
  S  S40  1  0.65595924  0.01450509  0.43021178  1
  S  S41  1  0.32288784  0.02230474  0.52634920  1
