# generated using pymatgen
data_Pr2Mn3(SbS3)4
_symmetry_space_group_name_H-M   'P 1'
_cell_length_a   20.02960800
_cell_length_b   3.90410600
_cell_length_c   14.95364829
_cell_angle_alpha   90.00000000
_cell_angle_beta   126.33350609
_cell_angle_gamma   90.00000000
_symmetry_Int_Tables_number   1
_chemical_formula_structural   Pr2Mn3(SbS3)4
_chemical_formula_sum   'Pr4 Mn6 Sb8 S24'
_cell_volume   942.00006694
_cell_formula_units_Z   2
loop_
 _symmetry_equiv_pos_site_id
 _symmetry_equiv_pos_as_xyz
  1  'x, y, z'
loop_
 _atom_site_type_symbol
 _atom_site_label
 _atom_site_symmetry_multiplicity
 _atom_site_fract_x
 _atom_site_fract_y
 _atom_site_fract_z
 _atom_site_occupancy
  Pr  Pr0  1  0.26135010  0.49344655  0.86321339  1
  Pr  Pr1  1  0.73132906  0.52734371  0.12811899  1
  Pr  Pr2  1  0.77383467  0.97463175  0.87664610  1
  Pr  Pr3  1  0.23508215  0.97638753  0.13719275  1
  Mn  Mn4  1  0.28494654  0.57737397  0.57555963  1
  Mn  Mn5  1  0.70936106  0.50925311  0.39270158  1
  Mn  Mn6  1  0.99095136  0.94938720  0.98280759  1
  Mn  Mn7  1  0.78685173  0.05628857  0.58734838  1
  Mn  Mn8  1  0.18618117  0.94945060  0.39265845  1
  Mn  Mn9  1  0.51806041  0.49823055  0.01748300  1
  Sb  Sb10  1  0.89568331  0.98682518  0.45503292  1
  Sb  Sb11  1  0.10437072  0.99862546  0.54098125  1
  Sb  Sb12  1  0.02981412  0.51672354  0.81269124  1
  Sb  Sb13  1  0.97297940  0.47103410  0.19264639  1
  Sb  Sb14  1  0.40978960  0.48755869  0.46289468  1
  Sb  Sb15  1  0.60080488  0.42852122  0.55885862  1
  Sb  Sb16  1  0.52985971  0.00840980  0.82104519  1
  Sb  Sb17  1  0.46722679  0.95821348  0.18632042  1
  S  S18  1  0.92869310  0.99377868  0.78637199  1
  S  S19  1  0.06911590  0.96579979  0.20207936  1
  S  S20  1  0.41807930  0.98871489  0.99317721  1
  S  S21  1  0.58749101  0.99028872  0.02040956  1
  S  S22  1  0.18384641  0.00209547  0.90442641  1
  S  S23  1  0.82897144  0.01021936  0.10326713  1
  S  S24  1  0.11122675  0.47799823  0.65928112  1
  S  S25  1  0.89891712  0.47029002  0.34706302  1
  S  S26  1  0.73764556  0.99396971  0.31610692  1
  S  S27  1  0.26315997  0.95175854  0.68900663  1
  S  S28  1  0.15834557  0.45194246  0.43899938  1
  S  S29  1  0.83623818  0.48961732  0.55275727  1
  S  S30  1  0.44952797  0.44723860  0.83592724  1
  S  S31  1  0.57591256  0.55299529  0.20151635  1
  S  S32  1  0.91596282  0.47032374  0.98329338  1
  S  S33  1  0.07114836  0.45162787  0.00590604  1
  S  S34  1  0.68149493  0.47743035  0.89668059  1
  S  S35  1  0.33553173  0.52749482  0.09972306  1
  S  S36  1  0.58734350  0.96348219  0.66176242  1
  S  S37  1  0.42831285  0.00286860  0.37564495  1
  S  S38  1  0.26245694  0.48324629  0.29342204  1
  S  S39  1  0.76743758  0.46400666  0.67982120  1
  S  S40  1  0.65593805  0.01361935  0.43019890  1
  S  S41  1  0.32321522  0.02190434  0.52654184  1
