# generated using pymatgen
data_Pr2Mn3(SbS3)4
_symmetry_space_group_name_H-M   'P 1'
_cell_length_a   20.02960800
_cell_length_b   3.90410600
_cell_length_c   14.95364829
_cell_angle_alpha   90.00000000
_cell_angle_beta   126.33350609
_cell_angle_gamma   90.00000000
_symmetry_Int_Tables_number   1
_chemical_formula_structural   Pr2Mn3(SbS3)4
_chemical_formula_sum   'Pr4 Mn6 Sb8 S24'
_cell_volume   942.00006694
_cell_formula_units_Z   2
loop_
 _symmetry_equiv_pos_site_id
 _symmetry_equiv_pos_as_xyz
  1  'x, y, z'
loop_
 _atom_site_type_symbol
 _atom_site_label
 _atom_site_symmetry_multiplicity
 _atom_site_fract_x
 _atom_site_fract_y
 _atom_site_fract_z
 _atom_site_occupancy
  Pr  Pr0  1  0.26132474  0.49292545  0.86316909  1
  Pr  Pr1  1  0.73144453  0.52770321  0.12817580  1
  Pr  Pr2  1  0.77388168  0.97492321  0.87662433  1
  Pr  Pr3  1  0.23498220  0.97709084  0.13714851  1
  Mn  Mn4  1  0.28463271  0.57715849  0.57550743  1
  Mn  Mn5  1  0.70952197  0.50867925  0.39274395  1
  Mn  Mn6  1  0.99075875  0.94965201  0.98284051  1
  Mn  Mn7  1  0.78703555  0.05649910  0.58732163  1
  Mn  Mn8  1  0.18636720  0.95110493  0.39254874  1
  Mn  Mn9  1  0.51787142  0.49780028  0.01727534  1
  Sb  Sb10  1  0.89565783  0.98738112  0.45501258  1
  Sb  Sb11  1  0.10437781  0.99829931  0.54090558  1
  Sb  Sb12  1  0.03002102  0.51591799  0.81280109  1
  Sb  Sb13  1  0.97299237  0.47055422  0.19265666  1
  Sb  Sb14  1  0.41001051  0.48737580  0.46324279  1
  Sb  Sb15  1  0.60097636  0.42824600  0.55876537  1
  Sb  Sb16  1  0.52981705  0.00805461  0.82098608  1
  Sb  Sb17  1  0.46717682  0.95843099  0.18624866  1
  S  S18  1  0.92889913  0.99358328  0.78673907  1
  S  S19  1  0.06912159  0.96600591  0.20221162  1
  S  S20  1  0.41779613  0.98853211  0.99327947  1
  S  S21  1  0.58750793  0.98975517  0.02053696  1
  S  S22  1  0.18342096  0.00092490  0.90397412  1
  S  S23  1  0.82921048  0.00837206  0.10333663  1
  S  S24  1  0.11161092  0.47756728  0.65941475  1
  S  S25  1  0.89903292  0.47138008  0.34704219  1
  S  S26  1  0.73787184  0.99568692  0.31635201  1
  S  S27  1  0.26348525  0.95182497  0.68955494  1
  S  S28  1  0.15825462  0.45382201  0.43942797  1
  S  S29  1  0.83617465  0.48965276  0.55321943  1
  S  S30  1  0.44918215  0.44602329  0.83574656  1
  S  S31  1  0.57612499  0.55292291  0.20177487  1
  S  S32  1  0.91593435  0.47038399  0.98296592  1
  S  S33  1  0.07100211  0.45288522  0.00562054  1
  S  S34  1  0.68128728  0.47667403  0.89661693  1
  S  S35  1  0.33537882  0.52743584  0.09893185  1
  S  S36  1  0.58745904  0.96310272  0.66196300  1
  S  S37  1  0.42830528  0.00458867  0.37537612  1
  S  S38  1  0.26220521  0.48214284  0.29305984  1
  S  S39  1  0.76753067  0.46512646  0.68027244  1
  S  S40  1  0.65582852  0.01320452  0.43035531  1
  S  S41  1  0.32364943  0.02177467  0.52682775  1
