# generated using pymatgen
data_Pr2Mn3(SbS3)4
_symmetry_space_group_name_H-M   'P 1'
_cell_length_a   20.02960800
_cell_length_b   3.90410600
_cell_length_c   14.95364829
_cell_angle_alpha   90.00000000
_cell_angle_beta   126.33350609
_cell_angle_gamma   90.00000000
_symmetry_Int_Tables_number   1
_chemical_formula_structural   Pr2Mn3(SbS3)4
_chemical_formula_sum   'Pr4 Mn6 Sb8 S24'
_cell_volume   942.00006694
_cell_formula_units_Z   2
loop_
 _symmetry_equiv_pos_site_id
 _symmetry_equiv_pos_as_xyz
  1  'x, y, z'
loop_
 _atom_site_type_symbol
 _atom_site_label
 _atom_site_symmetry_multiplicity
 _atom_site_fract_x
 _atom_site_fract_y
 _atom_site_fract_z
 _atom_site_occupancy
  Pr  Pr0  1  0.26978338  0.50191691  0.86779542  1
  Pr  Pr1  1  0.73329389  0.51402872  0.13303430  1
  Pr  Pr2  1  0.76547901  0.02806357  0.86648706  1
  Pr  Pr3  1  0.23235612  0.99098452  0.13184395  1
  Mn  Mn4  1  0.30012847  0.47058428  0.60554550  1
  Mn  Mn5  1  0.68512618  0.46327297  0.36170444  1
  Mn  Mn6  1  0.00264676  0.98876075  0.01043915  1
  Mn  Mn7  1  0.79572614  0.01624217  0.61766294  1
  Mn  Mn8  1  0.19380767  0.98585801  0.36599200  1
  Mn  Mn9  1  0.48411888  0.47125471  0.98388297  1
  Sb  Sb10  1  0.88988420  0.98431600  0.44873061  1
  Sb  Sb11  1  0.10990057  0.98144996  0.54575962  1
  Sb  Sb12  1  0.03529345  0.53279202  0.82089229  1
  Sb  Sb13  1  0.96677931  0.49787000  0.18872303  1
  Sb  Sb14  1  0.39389988  0.50049555  0.44935035  1
  Sb  Sb15  1  0.60887162  0.47902193  0.54680362  1
  Sb  Sb16  1  0.53285350  0.97605975  0.80651356  1
  Sb  Sb17  1  0.46495035  0.02273260  0.18783189  1
  S  S18  1  0.93644651  0.01681041  0.80905510  1
  S  S19  1  0.06651984  0.01424113  0.20491650  1
  S  S20  1  0.41674075  0.97071613  0.98632269  1
  S  S21  1  0.58699831  0.04023304  0.01657916  1
  S  S22  1  0.16934958  0.04567656  0.90118575  1
  S  S23  1  0.82677162  0.02741964  0.10480199  1
  S  S24  1  0.08837839  0.49793191  0.64325675  1
  S  S25  1  0.91359074  0.48292714  0.35268139  1
  S  S26  1  0.73845562  0.99897688  0.29973369  1
  S  S27  1  0.25639887  0.01246691  0.70342414  1
  S  S28  1  0.16880975  0.51855033  0.43643612  1
  S  S29  1  0.80958313  0.50368576  0.53854298  1
  S  S30  1  0.43048044  0.46654686  0.79570098  1
  S  S31  1  0.55240500  0.51596288  0.18062381  1
  S  S32  1  0.92268094  0.50318164  0.99479520  1
  S  S33  1  0.08955618  0.49591182  0.02620513  1
  S  S34  1  0.66622311  0.55823028  0.89774312  1
  S  S35  1  0.32911459  0.47451691  0.09431109  1
  S  S36  1  0.58718999  0.99039744  0.64750478  1
  S  S37  1  0.39693079  0.97903177  0.33848271  1
  S  S38  1  0.24678259  0.47644555  0.31766904  1
  S  S39  1  0.75890623  0.53025752  0.68749914  1
  S  S40  1  0.66454215  0.99028588  0.44668197  1
  S  S41  1  0.33023718  0.98453955  0.55576097  1
