# generated using pymatgen
data_Pr2Mn3(SbS3)4
_symmetry_space_group_name_H-M   'P 1'
_cell_length_a   20.02960800
_cell_length_b   3.90410600
_cell_length_c   14.95364829
_cell_angle_alpha   90.00000000
_cell_angle_beta   126.33350609
_cell_angle_gamma   90.00000000
_symmetry_Int_Tables_number   1
_chemical_formula_structural   Pr2Mn3(SbS3)4
_chemical_formula_sum   'Pr4 Mn6 Sb8 S24'
_cell_volume   942.00006694
_cell_formula_units_Z   2
loop_
 _symmetry_equiv_pos_site_id
 _symmetry_equiv_pos_as_xyz
  1  'x, y, z'
loop_
 _atom_site_type_symbol
 _atom_site_label
 _atom_site_symmetry_multiplicity
 _atom_site_fract_x
 _atom_site_fract_y
 _atom_site_fract_z
 _atom_site_occupancy
  Pr  Pr0  1  0.26128301  0.49232760  0.86311391  1
  Pr  Pr1  1  0.73154347  0.52802509  0.12819340  1
  Pr  Pr2  1  0.77393698  0.97513417  0.87665399  1
  Pr  Pr3  1  0.23489192  0.97771284  0.13705787  1
  Mn  Mn4  1  0.28431339  0.57695806  0.57548318  1
  Mn  Mn5  1  0.70963302  0.50815377  0.39293746  1
  Mn  Mn6  1  0.99064220  0.94961727  0.98296433  1
  Mn  Mn7  1  0.78728245  0.05709049  0.58736120  1
  Mn  Mn8  1  0.18638365  0.95276316  0.39232626  1
  Mn  Mn9  1  0.51769589  0.49737454  0.01703869  1
  Sb  Sb10  1  0.89561770  0.98783133  0.45499767  1
  Sb  Sb11  1  0.10441909  0.99801391  0.54082598  1
  Sb  Sb12  1  0.03017603  0.51530374  0.81287819  1
  Sb  Sb13  1  0.97305487  0.46962650  0.19268986  1
  Sb  Sb14  1  0.41020376  0.48753179  0.46353745  1
  Sb  Sb15  1  0.60106131  0.42809870  0.55861169  1
  Sb  Sb16  1  0.52983119  0.00765657  0.82095236  1
  Sb  Sb17  1  0.46713262  0.95837074  0.18609880  1
  S  S18  1  0.92892610  0.99294579  0.78690389  1
  S  S19  1  0.06908793  0.96561837  0.20226289  1
  S  S20  1  0.41754107  0.98915413  0.99330492  1
  S  S21  1  0.58746146  0.98939827  0.02054594  1
  S  S22  1  0.18294570  0.99950965  0.90336329  1
  S  S23  1  0.82945677  0.00689798  0.10348680  1
  S  S24  1  0.11186177  0.47755859  0.65950710  1
  S  S25  1  0.89928522  0.47168691  0.34718345  1
  S  S26  1  0.73798155  0.99681930  0.31655226  1
  S  S27  1  0.26379272  0.95162544  0.68993738  1
  S  S28  1  0.15811199  0.45562299  0.43998231  1
  S  S29  1  0.83606272  0.48928782  0.55367861  1
  S  S30  1  0.44894051  0.44444226  0.83553870  1
  S  S31  1  0.57623601  0.55321334  0.20192110  1
  S  S32  1  0.91593046  0.47023981  0.98263463  1
  S  S33  1  0.07085519  0.45377098  0.00537318  1
  S  S34  1  0.68109031  0.47594833  0.89663814  1
  S  S35  1  0.33527961  0.52727698  0.09836912  1
  S  S36  1  0.58769695  0.96221838  0.66228210  1
  S  S37  1  0.42833004  0.00614502  0.37517129  1
  S  S38  1  0.26206598  0.48118968  0.29272208  1
  S  S39  1  0.76756703  0.46593656  0.68085193  1
  S  S40  1  0.65581532  0.01174480  0.43050244  1
  S  S41  1  0.32408151  0.02124805  0.52727318  1
