# generated using pymatgen
data_Pr2Mn3(SbS3)4
_symmetry_space_group_name_H-M   'P 1'
_cell_length_a   20.02960800
_cell_length_b   3.90410600
_cell_length_c   14.95364829
_cell_angle_alpha   90.00000000
_cell_angle_beta   126.33350609
_cell_angle_gamma   90.00000000
_symmetry_Int_Tables_number   1
_chemical_formula_structural   Pr2Mn3(SbS3)4
_chemical_formula_sum   'Pr4 Mn6 Sb8 S24'
_cell_volume   942.00006694
_cell_formula_units_Z   2
loop_
 _symmetry_equiv_pos_site_id
 _symmetry_equiv_pos_as_xyz
  1  'x, y, z'
loop_
 _atom_site_type_symbol
 _atom_site_label
 _atom_site_symmetry_multiplicity
 _atom_site_fract_x
 _atom_site_fract_y
 _atom_site_fract_z
 _atom_site_occupancy
  Pr  Pr0  1  0.26121626  0.49126610  0.86308989  1
  Pr  Pr1  1  0.73162287  0.52823043  0.12813989  1
  Pr  Pr2  1  0.77402086  0.97518384  0.87660441  1
  Pr  Pr3  1  0.23480324  0.97846131  0.13696567  1
  Mn  Mn4  1  0.28402825  0.57653780  0.57554777  1
  Mn  Mn5  1  0.70986172  0.50755267  0.39329545  1
  Mn  Mn6  1  0.99051085  0.94977919  0.98302435  1
  Mn  Mn7  1  0.78747452  0.05743398  0.58730048  1
  Mn  Mn8  1  0.18640341  0.95423213  0.39212150  1
  Mn  Mn9  1  0.51757039  0.49643730  0.01674040  1
  Sb  Sb10  1  0.89553765  0.98821718  0.45491518  1
  Sb  Sb11  1  0.10443795  0.99762934  0.54073556  1
  Sb  Sb12  1  0.03015629  0.51490214  0.81277827  1
  Sb  Sb13  1  0.97316034  0.46886034  0.19273808  1
  Sb  Sb14  1  0.41031843  0.48760864  0.46377815  1
  Sb  Sb15  1  0.60116218  0.42780405  0.55849536  1
  Sb  Sb16  1  0.52982495  0.00710933  0.82091207  1
  Sb  Sb17  1  0.46708229  0.95831483  0.18591896  1
  S  S18  1  0.92900677  0.99278595  0.78709144  1
  S  S19  1  0.06904283  0.96543229  0.20230970  1
  S  S20  1  0.41744267  0.98966505  0.99340892  1
  S  S21  1  0.58751309  0.98843438  0.02070128  1
  S  S22  1  0.18262508  0.99853338  0.90290558  1
  S  S23  1  0.82976072  0.00510650  0.10362745  1
  S  S24  1  0.11194569  0.47780697  0.65949259  1
  S  S25  1  0.89946305  0.47216370  0.34713022  1
  S  S26  1  0.73804865  0.99764026  0.31653201  1
  S  S27  1  0.26402034  0.95144032  0.69022042  1
  S  S28  1  0.15796542  0.45757488  0.44063274  1
  S  S29  1  0.83591928  0.48876765  0.55379080  1
  S  S30  1  0.44876241  0.44359281  0.83520582  1
  S  S31  1  0.57624119  0.55438511  0.20206734  1
  S  S32  1  0.91593193  0.47060434  0.98226763  1
  S  S33  1  0.07077719  0.45455574  0.00522004  1
  S  S34  1  0.68085776  0.47537688  0.89679762  1
  S  S35  1  0.33520285  0.52672944  0.09793724  1
  S  S36  1  0.58791680  0.96156655  0.66253937  1
  S  S37  1  0.42827572  0.00741207  0.37480696  1
  S  S38  1  0.26204327  0.48027111  0.29218244  1
  S  S39  1  0.76761747  0.46690408  0.68129081  1
  S  S40  1  0.65592967  0.01031374  0.43063224  1
  S  S41  1  0.32436645  0.02103305  0.52747890  1
