# generated using pymatgen
data_Pr2Mn3(SbS3)4
_symmetry_space_group_name_H-M   'P 1'
_cell_length_a   20.02960800
_cell_length_b   3.90410600
_cell_length_c   14.95364829
_cell_angle_alpha   90.00000000
_cell_angle_beta   126.33350609
_cell_angle_gamma   90.00000000
_symmetry_Int_Tables_number   1
_chemical_formula_structural   Pr2Mn3(SbS3)4
_chemical_formula_sum   'Pr4 Mn6 Sb8 S24'
_cell_volume   942.00006694
_cell_formula_units_Z   2
loop_
 _symmetry_equiv_pos_site_id
 _symmetry_equiv_pos_as_xyz
  1  'x, y, z'
loop_
 _atom_site_type_symbol
 _atom_site_label
 _atom_site_symmetry_multiplicity
 _atom_site_fract_x
 _atom_site_fract_y
 _atom_site_fract_z
 _atom_site_occupancy
  Pr  Pr0  1  0.26119457  0.49000545  0.86321337  1
  Pr  Pr1  1  0.73165173  0.52828928  0.12810535  1
  Pr  Pr2  1  0.77413858  0.97508240  0.87659423  1
  Pr  Pr3  1  0.23468357  0.97898516  0.13687120  1
  Mn  Mn4  1  0.28375974  0.57654638  0.57567631  1
  Mn  Mn5  1  0.71003880  0.50688954  0.39351384  1
  Mn  Mn6  1  0.99042817  0.94980161  0.98314577  1
  Mn  Mn7  1  0.78761652  0.05691231  0.58710879  1
  Mn  Mn8  1  0.18640496  0.95559128  0.39184017  1
  Mn  Mn9  1  0.51733523  0.49565368  0.01632979  1
  Sb  Sb10  1  0.89547246  0.98882119  0.45481503  1
  Sb  Sb11  1  0.10448606  0.99709624  0.54060885  1
  Sb  Sb12  1  0.03014974  0.51459510  0.81263797  1
  Sb  Sb13  1  0.97319879  0.46801774  0.19283627  1
  Sb  Sb14  1  0.41046978  0.48762814  0.46394267  1
  Sb  Sb15  1  0.60126161  0.42768940  0.55836211  1
  Sb  Sb16  1  0.52980776  0.00665496  0.82076834  1
  Sb  Sb17  1  0.46696098  0.95830337  0.18567828  1
  S  S18  1  0.92910492  0.99303192  0.78730040  1
  S  S19  1  0.06905928  0.96537483  0.20235949  1
  S  S20  1  0.41731610  0.99030989  0.99330081  1
  S  S21  1  0.58733589  0.98787356  0.02063130  1
  S  S22  1  0.18231935  0.99813348  0.90248134  1
  S  S23  1  0.83016231  0.00295288  0.10395761  1
  S  S24  1  0.11197901  0.47818213  0.65949105  1
  S  S25  1  0.89966411  0.47263571  0.34710722  1
  S  S26  1  0.73805622  0.99860860  0.31649451  1
  S  S27  1  0.26409644  0.95077865  0.69034589  1
  S  S28  1  0.15783701  0.45966883  0.44121837  1
  S  S29  1  0.83595093  0.48861485  0.55416755  1
  S  S30  1  0.44843645  0.44295664  0.83496330  1
  S  S31  1  0.57618769  0.55588619  0.20223849  1
  S  S32  1  0.91585890  0.47166698  0.98186718  1
  S  S33  1  0.07081542  0.45448244  0.00523155  1
  S  S34  1  0.68052394  0.47492542  0.89692570  1
  S  S35  1  0.33526804  0.52619889  0.09769568  1
  S  S36  1  0.58831223  0.96103413  0.66286772  1
  S  S37  1  0.42818056  0.00838038  0.37454349  1
  S  S38  1  0.26201395  0.47957274  0.29151601  1
  S  S39  1  0.76771773  0.46730869  0.68179945  1
  S  S40  1  0.65601731  0.00954810  0.43083011  1
  S  S41  1  0.32460884  0.02017902  0.52757740  1
