# generated using pymatgen
data_Pr2Mn3(SbS3)4
_symmetry_space_group_name_H-M   'P 1'
_cell_length_a   20.02960800
_cell_length_b   3.90410600
_cell_length_c   14.95364829
_cell_angle_alpha   90.00000000
_cell_angle_beta   126.33350609
_cell_angle_gamma   90.00000000
_symmetry_Int_Tables_number   1
_chemical_formula_structural   Pr2Mn3(SbS3)4
_chemical_formula_sum   'Pr4 Mn6 Sb8 S24'
_cell_volume   942.00006694
_cell_formula_units_Z   2
loop_
 _symmetry_equiv_pos_site_id
 _symmetry_equiv_pos_as_xyz
  1  'x, y, z'
loop_
 _atom_site_type_symbol
 _atom_site_label
 _atom_site_symmetry_multiplicity
 _atom_site_fract_x
 _atom_site_fract_y
 _atom_site_fract_z
 _atom_site_occupancy
  Pr  Pr0  1  0.26116398  0.48862278  0.86329788  1
  Pr  Pr1  1  0.73165684  0.52851725  0.12815052  1
  Pr  Pr2  1  0.77422118  0.97511648  0.87644918  1
  Pr  Pr3  1  0.23453683  0.97969169  0.13670128  1
  Mn  Mn4  1  0.28346664  0.57706549  0.57574590  1
  Mn  Mn5  1  0.71027195  0.50663332  0.39379912  1
  Mn  Mn6  1  0.99030882  0.94963666  0.98329791  1
  Mn  Mn7  1  0.78779836  0.05659725  0.58705750  1
  Mn  Mn8  1  0.18637219  0.95679543  0.39147985  1
  Mn  Mn9  1  0.51714687  0.49487866  0.01594987  1
  Sb  Sb10  1  0.89541060  0.98939960  0.45480583  1
  Sb  Sb11  1  0.10455588  0.99660522  0.54050576  1
  Sb  Sb12  1  0.03010395  0.51418834  0.81247244  1
  Sb  Sb13  1  0.97326197  0.46740992  0.19295423  1
  Sb  Sb14  1  0.41060138  0.48761591  0.46402130  1
  Sb  Sb15  1  0.60137445  0.42780724  0.55822767  1
  Sb  Sb16  1  0.52979943  0.00621640  0.82055489  1
  Sb  Sb17  1  0.46677706  0.95821556  0.18541708  1
  S  S18  1  0.92932071  0.99253698  0.78780113  1
  S  S19  1  0.06910203  0.96478889  0.20233251  1
  S  S20  1  0.41718268  0.99049657  0.99334742  1
  S  S21  1  0.58724731  0.98747981  0.02051163  1
  S  S22  1  0.18198406  0.99800096  0.90193177  1
  S  S23  1  0.83042990  0.00068417  0.10418722  1
  S  S24  1  0.11191429  0.47809962  0.65938936  1
  S  S25  1  0.89999303  0.47281656  0.34720616  1
  S  S26  1  0.73821209  0.99975884  0.31664600  1
  S  S27  1  0.26405076  0.94969399  0.69015154  1
  S  S28  1  0.15765385  0.46155526  0.44178170  1
  S  S29  1  0.83593412  0.48831249  0.55439150  1
  S  S30  1  0.44805521  0.44273763  0.83471576  1
  S  S31  1  0.57604786  0.55672368  0.20233079  1
  S  S32  1  0.91555933  0.47191764  0.98134646  1
  S  S33  1  0.07079191  0.45419599  0.00511831  1
  S  S34  1  0.68028264  0.47447988  0.89702276  1
  S  S35  1  0.33527279  0.52553776  0.09751804  1
  S  S36  1  0.58865773  0.96055075  0.66324973  1
  S  S37  1  0.42822707  0.00903897  0.37437918  1
  S  S38  1  0.26184960  0.47893498  0.29078431  1
  S  S39  1  0.76776437  0.46852513  0.68215627  1
  S  S40  1  0.65620476  0.00901665  0.43091094  1
  S  S41  1  0.32477583  0.01947893  0.52764689  1
