# generated using pymatgen
data_Pr2Mn3(SbS3)4
_symmetry_space_group_name_H-M   'P 1'
_cell_length_a   20.02960800
_cell_length_b   3.90410600
_cell_length_c   14.95364829
_cell_angle_alpha   90.00000000
_cell_angle_beta   126.33350609
_cell_angle_gamma   90.00000000
_symmetry_Int_Tables_number   1
_chemical_formula_structural   Pr2Mn3(SbS3)4
_chemical_formula_sum   'Pr4 Mn6 Sb8 S24'
_cell_volume   942.00006694
_cell_formula_units_Z   2
loop_
 _symmetry_equiv_pos_site_id
 _symmetry_equiv_pos_as_xyz
  1  'x, y, z'
loop_
 _atom_site_type_symbol
 _atom_site_label
 _atom_site_symmetry_multiplicity
 _atom_site_fract_x
 _atom_site_fract_y
 _atom_site_fract_z
 _atom_site_occupancy
  Pr  Pr0  1  0.26113173  0.48723147  0.86330298  1
  Pr  Pr1  1  0.73163242  0.52889136  0.12821710  1
  Pr  Pr2  1  0.77431705  0.97493831  0.87632786  1
  Pr  Pr3  1  0.23431859  0.98029138  0.13654426  1
  Mn  Mn4  1  0.28322479  0.57736891  0.57592052  1
  Mn  Mn5  1  0.71046440  0.50653448  0.39399341  1
  Mn  Mn6  1  0.99009167  0.94958021  0.98336476  1
  Mn  Mn7  1  0.78789724  0.05609379  0.58698811  1
  Mn  Mn8  1  0.18636124  0.95799909  0.39116310  1
  Mn  Mn9  1  0.51709833  0.49433694  0.01571693  1
  Sb  Sb10  1  0.89540742  0.98993434  0.45486669  1
  Sb  Sb11  1  0.10459599  0.99632484  0.54043726  1
  Sb  Sb12  1  0.03005383  0.51347355  0.81236680  1
  Sb  Sb13  1  0.97336427  0.46691529  0.19308838  1
  Sb  Sb14  1  0.41065906  0.48766273  0.46409033  1
  Sb  Sb15  1  0.60141420  0.42773302  0.55797155  1
  Sb  Sb16  1  0.52977924  0.00553804  0.82032420  1
  Sb  Sb17  1  0.46651872  0.95801919  0.18507993  1
  S  S18  1  0.92963310  0.99185881  0.78819696  1
  S  S19  1  0.06913631  0.96442397  0.20230222  1
  S  S20  1  0.41703774  0.99023149  0.99337586  1
  S  S21  1  0.58710181  0.98678766  0.02026669  1
  S  S22  1  0.18156356  0.99789132  0.90125595  1
  S  S23  1  0.83062129  0.99793002  0.10431821  1
  S  S24  1  0.11195676  0.47812362  0.65932457  1
  S  S25  1  0.90036534  0.47285710  0.34724998  1
  S  S26  1  0.73834776  0.00095432  0.31685285  1
  S  S27  1  0.26411348  0.94880669  0.68999648  1
  S  S28  1  0.15756875  0.46327120  0.44243331  1
  S  S29  1  0.83596498  0.48820201  0.55442900  1
  S  S30  1  0.44776838  0.44306225  0.83446836  1
  S  S31  1  0.57570034  0.55754477  0.20213243  1
  S  S32  1  0.91542008  0.47196691  0.98095859  1
  S  S33  1  0.07071859  0.45440205  0.00487706  1
  S  S34  1  0.68013290  0.47359308  0.89719820  1
  S  S35  1  0.33538451  0.52463458  0.09759787  1
  S  S36  1  0.58892909  0.95982898  0.66376022  1
  S  S37  1  0.42832469  0.00917515  0.37415854  1
  S  S38  1  0.26161452  0.47817324  0.29015744  1
  S  S39  1  0.76789047  0.46898967  0.68259371  1
  S  S40  1  0.65643429  0.00896797  0.43100743  1
  S  S41  1  0.32478506  0.01839056  0.52751661  1
