# generated using pymatgen
data_Pr2Mn3(SbS3)4
_symmetry_space_group_name_H-M   'P 1'
_cell_length_a   20.02960800
_cell_length_b   3.90410600
_cell_length_c   14.95364829
_cell_angle_alpha   90.00000000
_cell_angle_beta   126.33350609
_cell_angle_gamma   90.00000000
_symmetry_Int_Tables_number   1
_chemical_formula_structural   Pr2Mn3(SbS3)4
_chemical_formula_sum   'Pr4 Mn6 Sb8 S24'
_cell_volume   942.00006694
_cell_formula_units_Z   2
loop_
 _symmetry_equiv_pos_site_id
 _symmetry_equiv_pos_as_xyz
  1  'x, y, z'
loop_
 _atom_site_type_symbol
 _atom_site_label
 _atom_site_symmetry_multiplicity
 _atom_site_fract_x
 _atom_site_fract_y
 _atom_site_fract_z
 _atom_site_occupancy
  Pr  Pr0  1  0.26112611  0.48622412  0.86328344  1
  Pr  Pr1  1  0.73165873  0.52898438  0.12840955  1
  Pr  Pr2  1  0.77439180  0.97499305  0.87623748  1
  Pr  Pr3  1  0.23410709  0.98099765  0.13636681  1
  Mn  Mn4  1  0.28302213  0.57789078  0.57627202  1
  Mn  Mn5  1  0.71068404  0.50698357  0.39420722  1
  Mn  Mn6  1  0.98996165  0.94954535  0.98361471  1
  Mn  Mn7  1  0.78797046  0.05534098  0.58691261  1
  Mn  Mn8  1  0.18629459  0.95955706  0.39073194  1
  Mn  Mn9  1  0.51710076  0.49392600  0.01550789  1
  Sb  Sb10  1  0.89545912  0.99055010  0.45504008  1
  Sb  Sb11  1  0.10456716  0.99598313  0.54028400  1
  Sb  Sb12  1  0.02999790  0.51276742  0.81217255  1
  Sb  Sb13  1  0.97349698  0.46677978  0.19320821  1
  Sb  Sb14  1  0.41078657  0.48778018  0.46424386  1
  Sb  Sb15  1  0.60145347  0.42787462  0.55781662  1
  Sb  Sb16  1  0.52974113  0.00530188  0.82006341  1
  Sb  Sb17  1  0.46631774  0.95786000  0.18476753  1
  S  S18  1  0.92986983  0.99126625  0.78862555  1
  S  S19  1  0.06919838  0.96363821  0.20219778  1
  S  S20  1  0.41697975  0.98980965  0.99349371  1
  S  S21  1  0.58691035  0.98608528  0.02013924  1
  S  S22  1  0.18109362  0.99793766  0.90049546  1
  S  S23  1  0.83085378  0.99552240  0.10438310  1
  S  S24  1  0.11195313  0.47790509  0.65917719  1
  S  S25  1  0.90052594  0.47246458  0.34710597  1
  S  S26  1  0.73839460  0.00115181  0.31696769  1
  S  S27  1  0.26421390  0.94913647  0.68983410  1
  S  S28  1  0.15748310  0.46483329  0.44311439  1
  S  S29  1  0.83596805  0.48850259  0.55429135  1
  S  S30  1  0.44754656  0.44328631  0.83434688  1
  S  S31  1  0.57551237  0.55837532  0.20211100  1
  S  S32  1  0.91539758  0.47143776  0.98064301  1
  S  S33  1  0.07070749  0.45532140  0.00481832  1
  S  S34  1  0.68002443  0.47267786  0.89743618  1
  S  S35  1  0.33553352  0.52394080  0.09770874  1
  S  S36  1  0.58936318  0.95875983  0.66420713  1
  S  S37  1  0.42854550  0.00937209  0.37416880  1
  S  S38  1  0.26117870  0.47740465  0.28927686  1
  S  S39  1  0.76807530  0.46932144  0.68310040  1
  S  S40  1  0.65679913  0.00928356  0.43112338  1
  S  S41  1  0.32466547  0.01769547  0.52748974  1
