# generated using pymatgen
data_Pr2Mn3(SbS3)4
_symmetry_space_group_name_H-M   'P 1'
_cell_length_a   20.02960800
_cell_length_b   3.90410600
_cell_length_c   14.95364829
_cell_angle_alpha   90.00000000
_cell_angle_beta   126.33350609
_cell_angle_gamma   90.00000000
_symmetry_Int_Tables_number   1
_chemical_formula_structural   Pr2Mn3(SbS3)4
_chemical_formula_sum   'Pr4 Mn6 Sb8 S24'
_cell_volume   942.00006694
_cell_formula_units_Z   2
loop_
 _symmetry_equiv_pos_site_id
 _symmetry_equiv_pos_as_xyz
  1  'x, y, z'
loop_
 _atom_site_type_symbol
 _atom_site_label
 _atom_site_symmetry_multiplicity
 _atom_site_fract_x
 _atom_site_fract_y
 _atom_site_fract_z
 _atom_site_occupancy
  Pr  Pr0  1  0.26109155  0.48509589  0.86321878  1
  Pr  Pr1  1  0.73169484  0.52910961  0.12859379  1
  Pr  Pr2  1  0.77443287  0.97526785  0.87609375  1
  Pr  Pr3  1  0.23390338  0.98139691  0.13620389  1
  Mn  Mn4  1  0.28283229  0.57762391  0.57656820  1
  Mn  Mn5  1  0.71081834  0.50681261  0.39423639  1
  Mn  Mn6  1  0.98986400  0.94956945  0.98378838  1
  Mn  Mn7  1  0.78797394  0.05462823  0.58689032  1
  Mn  Mn8  1  0.18626728  0.96108405  0.39036245  1
  Mn  Mn9  1  0.51716030  0.49356365  0.01539191  1
  Sb  Sb10  1  0.89549350  0.99110428  0.45523851  1
  Sb  Sb11  1  0.10464194  0.99598903  0.54025537  1
  Sb  Sb12  1  0.02995351  0.51215043  0.81198147  1
  Sb  Sb13  1  0.97359738  0.46640780  0.19326093  1
  Sb  Sb14  1  0.41083916  0.48793054  0.46435602  1
  Sb  Sb15  1  0.60155916  0.42786048  0.55773415  1
  Sb  Sb16  1  0.52970698  0.00502515  0.81981649  1
  Sb  Sb17  1  0.46609620  0.95778156  0.18442784  1
  S  S18  1  0.93018044  0.99023645  0.78911403  1
  S  S19  1  0.06922421  0.96338684  0.20208438  1
  S  S20  1  0.41704173  0.98914865  0.99357887  1
  S  S21  1  0.58666914  0.98609592  0.01982190  1
  S  S22  1  0.18074942  0.99822382  0.90004816  1
  S  S23  1  0.83108359  0.99296961  0.10459213  1
  S  S24  1  0.11208471  0.47790555  0.65908731  1
  S  S25  1  0.90076607  0.47153479  0.34704891  1
  S  S26  1  0.73857032  0.00148385  0.31711205  1
  S  S27  1  0.26425306  0.94967913  0.68942224  1
  S  S28  1  0.15732460  0.46718028  0.44379695  1
  S  S29  1  0.83603170  0.48910196  0.55419328  1
  S  S30  1  0.44730699  0.44396244  0.83426174  1
  S  S31  1  0.57529738  0.55844077  0.20214987  1
  S  S32  1  0.91537595  0.47076642  0.98036425  1
  S  S33  1  0.07061420  0.45560964  0.00460766  1
  S  S34  1  0.67988058  0.47171047  0.89775252  1
  S  S35  1  0.33573006  0.52267646  0.09785302  1
  S  S36  1  0.58976506  0.95827672  0.66468831  1
  S  S37  1  0.42873678  0.00982963  0.37411594  1
  S  S38  1  0.26073310  0.47648960  0.28841102  1
  S  S39  1  0.76843551  0.46926415  0.68376824  1
  S  S40  1  0.65715442  0.00930145  0.43128062  1
  S  S41  1  0.32460000  0.01784878  0.52755925  1
