# generated using pymatgen
data_Pr2Mn3(SbS3)4
_symmetry_space_group_name_H-M   'P 1'
_cell_length_a   20.02960800
_cell_length_b   3.90410600
_cell_length_c   14.95364829
_cell_angle_alpha   90.00000000
_cell_angle_beta   126.33350609
_cell_angle_gamma   90.00000000
_symmetry_Int_Tables_number   1
_chemical_formula_structural   Pr2Mn3(SbS3)4
_chemical_formula_sum   'Pr4 Mn6 Sb8 S24'
_cell_volume   942.00006694
_cell_formula_units_Z   2
loop_
 _symmetry_equiv_pos_site_id
 _symmetry_equiv_pos_as_xyz
  1  'x, y, z'
loop_
 _atom_site_type_symbol
 _atom_site_label
 _atom_site_symmetry_multiplicity
 _atom_site_fract_x
 _atom_site_fract_y
 _atom_site_fract_z
 _atom_site_occupancy
  Pr  Pr0  1  0.26103352  0.48406843  0.86310432  1
  Pr  Pr1  1  0.73172766  0.52943470  0.12879347  1
  Pr  Pr2  1  0.77449501  0.97579145  0.87590041  1
  Pr  Pr3  1  0.23363342  0.98190931  0.13601829  1
  Mn  Mn4  1  0.28268530  0.57723763  0.57684035  1
  Mn  Mn5  1  0.71090999  0.50681507  0.39427684  1
  Mn  Mn6  1  0.98975281  0.94958054  0.98394223  1
  Mn  Mn7  1  0.78807973  0.05369157  0.58689678  1
  Mn  Mn8  1  0.18616265  0.96299329  0.39008748  1
  Mn  Mn9  1  0.51716085  0.49324976  0.01520215  1
  Sb  Sb10  1  0.89557153  0.99133851  0.45547338  1
  Sb  Sb11  1  0.10474491  0.99614901  0.54030046  1
  Sb  Sb12  1  0.02987676  0.51168465  0.81182047  1
  Sb  Sb13  1  0.97356163  0.46570587  0.19325451  1
  Sb  Sb14  1  0.41084161  0.48798313  0.46437824  1
  Sb  Sb15  1  0.60174025  0.42799726  0.55768004  1
  Sb  Sb16  1  0.52970531  0.00518149  0.81967365  1
  Sb  Sb17  1  0.46589854  0.95766389  0.18422024  1
  S  S18  1  0.93044830  0.98896578  0.78966349  1
  S  S19  1  0.06926907  0.96323473  0.20198930  1
  S  S20  1  0.41688539  0.98863955  0.99335401  1
  S  S21  1  0.58652181  0.98570084  0.01948567  1
  S  S22  1  0.18036950  0.99770153  0.89963968  1
  S  S23  1  0.83130969  0.99082070  0.10487771  1
  S  S24  1  0.11204862  0.47729980  0.65874090  1
  S  S25  1  0.90090544  0.46990405  0.34709591  1
  S  S26  1  0.73860121  0.00161802  0.31718353  1
  S  S27  1  0.26429467  0.95041448  0.68915128  1
  S  S28  1  0.15726604  0.46916153  0.44441679  1
  S  S29  1  0.83618524  0.49056475  0.55422378  1
  S  S30  1  0.44718731  0.44417469  0.83431504  1
  S  S31  1  0.57521412  0.55899567  0.20222567  1
  S  S32  1  0.91529723  0.47016058  0.98005888  1
  S  S33  1  0.07054901  0.45588581  0.00428776  1
  S  S34  1  0.67977144  0.47114447  0.89806396  1
  S  S35  1  0.33589006  0.52035235  0.09788607  1
  S  S36  1  0.59008222  0.95805391  0.66507630  1
  S  S37  1  0.42898955  0.01003678  0.37415073  1
  S  S38  1  0.26029557  0.47567818  0.28749044  1
  S  S39  1  0.76874549  0.46961719  0.68431628  1
  S  S40  1  0.65767396  0.00885767  0.43168511  1
  S  S41  1  0.32457602  0.01845106  0.52762575  1
