# generated using pymatgen
data_Pr2Mn3(SbS3)4
_symmetry_space_group_name_H-M   'P 1'
_cell_length_a   20.02960800
_cell_length_b   3.90410600
_cell_length_c   14.95364829
_cell_angle_alpha   90.00000000
_cell_angle_beta   126.33350609
_cell_angle_gamma   90.00000000
_symmetry_Int_Tables_number   1
_chemical_formula_structural   Pr2Mn3(SbS3)4
_chemical_formula_sum   'Pr4 Mn6 Sb8 S24'
_cell_volume   942.00006694
_cell_formula_units_Z   2
loop_
 _symmetry_equiv_pos_site_id
 _symmetry_equiv_pos_as_xyz
  1  'x, y, z'
loop_
 _atom_site_type_symbol
 _atom_site_label
 _atom_site_symmetry_multiplicity
 _atom_site_fract_x
 _atom_site_fract_y
 _atom_site_fract_z
 _atom_site_occupancy
  Pr  Pr0  1  0.26097783  0.48312300  0.86305600  1
  Pr  Pr1  1  0.73171714  0.52966479  0.12894308  1
  Pr  Pr2  1  0.77465744  0.97630175  0.87579926  1
  Pr  Pr3  1  0.23332694  0.98230878  0.13584901  1
  Mn  Mn4  1  0.28257435  0.57712139  0.57721923  1
  Mn  Mn5  1  0.71103860  0.50694221  0.39421193  1
  Mn  Mn6  1  0.98977306  0.94927940  0.98414786  1
  Mn  Mn7  1  0.78815603  0.05283641  0.58686767  1
  Mn  Mn8  1  0.18599622  0.96397542  0.38971885  1
  Mn  Mn9  1  0.51706331  0.49253260  0.01508093  1
  Sb  Sb10  1  0.89568165  0.99134142  0.45567061  1
  Sb  Sb11  1  0.10486741  0.99645477  0.54037446  1
  Sb  Sb12  1  0.02984684  0.51134078  0.81163034  1
  Sb  Sb13  1  0.97353226  0.46465607  0.19329183  1
  Sb  Sb14  1  0.41078169  0.48792104  0.46444691  1
  Sb  Sb15  1  0.60186826  0.42776026  0.55752826  1
  Sb  Sb16  1  0.52971295  0.00514106  0.81950667  1
  Sb  Sb17  1  0.46574878  0.95742798  0.18415804  1
  S  S18  1  0.93081412  0.98838185  0.79023090  1
  S  S19  1  0.06929648  0.96307824  0.20196301  1
  S  S20  1  0.41686739  0.98840693  0.99319511  1
  S  S21  1  0.58640253  0.98632346  0.01911722  1
  S  S22  1  0.18013012  0.99779339  0.89930233  1
  S  S23  1  0.83156319  0.98874268  0.10511190  1
  S  S24  1  0.11201186  0.47637039  0.65837510  1
  S  S25  1  0.90110781  0.46783945  0.34718484  1
  S  S26  1  0.73871800  0.00275840  0.31732348  1
  S  S27  1  0.26417795  0.95128495  0.68864292  1
  S  S28  1  0.15735832  0.47072029  0.44496063  1
  S  S29  1  0.83634191  0.49238622  0.55406672  1
  S  S30  1  0.44709723  0.44449251  0.83423099  1
  S  S31  1  0.57501502  0.55964277  0.20220311  1
  S  S32  1  0.91508023  0.46944857  0.97978934  1
  S  S33  1  0.07056371  0.45650516  0.00392175  1
  S  S34  1  0.67946756  0.46993735  0.89808894  1
  S  S35  1  0.33599607  0.51826011  0.09796868  1
  S  S36  1  0.59044673  0.95853893  0.66553977  1
  S  S37  1  0.42916093  0.01084123  0.37397617  1
  S  S38  1  0.25985459  0.47607192  0.28638699  1
  S  S39  1  0.76901472  0.46982645  0.68486303  1
  S  S40  1  0.65822183  0.00886192  0.43198809  1
  S  S41  1  0.32450774  0.01910189  0.52770380  1
