# generated using pymatgen
data_Pr2Mn3(SbS3)4
_symmetry_space_group_name_H-M   'P 1'
_cell_length_a   20.02960800
_cell_length_b   3.90410600
_cell_length_c   14.95364829
_cell_angle_alpha   90.00000000
_cell_angle_beta   126.33350609
_cell_angle_gamma   90.00000000
_symmetry_Int_Tables_number   1
_chemical_formula_structural   Pr2Mn3(SbS3)4
_chemical_formula_sum   'Pr4 Mn6 Sb8 S24'
_cell_volume   942.00006694
_cell_formula_units_Z   2
loop_
 _symmetry_equiv_pos_site_id
 _symmetry_equiv_pos_as_xyz
  1  'x, y, z'
loop_
 _atom_site_type_symbol
 _atom_site_label
 _atom_site_symmetry_multiplicity
 _atom_site_fract_x
 _atom_site_fract_y
 _atom_site_fract_z
 _atom_site_occupancy
  Pr  Pr0  1  0.26097147  0.48237559  0.86303175  1
  Pr  Pr1  1  0.73169784  0.53008489  0.12898915  1
  Pr  Pr2  1  0.77482900  0.97682928  0.87579432  1
  Pr  Pr3  1  0.23307862  0.98243434  0.13569745  1
  Mn  Mn4  1  0.28249031  0.57719505  0.57756953  1
  Mn  Mn5  1  0.71117021  0.50687975  0.39414959  1
  Mn  Mn6  1  0.98971447  0.94906755  0.98422663  1
  Mn  Mn7  1  0.78829175  0.05203014  0.58701244  1
  Mn  Mn8  1  0.18585643  0.96526886  0.38927893  1
  Mn  Mn9  1  0.51699475  0.49173252  0.01508734  1
  Sb  Sb10  1  0.89577989  0.99136848  0.45589611  1
  Sb  Sb11  1  0.10493938  0.99671855  0.54043085  1
  Sb  Sb12  1  0.02983957  0.51111526  0.81158458  1
  Sb  Sb13  1  0.97348038  0.46371118  0.19332781  1
  Sb  Sb14  1  0.41070496  0.48789282  0.46455606  1
  Sb  Sb15  1  0.60195482  0.42742107  0.55743229  1
  Sb  Sb16  1  0.52972141  0.00455756  0.81927643  1
  Sb  Sb17  1  0.46565107  0.95774748  0.18414891  1
  S  S18  1  0.93104935  0.98804088  0.79049771  1
  S  S19  1  0.06937856  0.96281010  0.20195473  1
  S  S20  1  0.41700440  0.98874420  0.99317714  1
  S  S21  1  0.58621044  0.98696754  0.01860627  1
  S  S22  1  0.17980347  0.99750247  0.89898409  1
  S  S23  1  0.83159971  0.98689384  0.10504525  1
  S  S24  1  0.11211331  0.47589132  0.65822729  1
  S  S25  1  0.90134372  0.46569752  0.34726751  1
  S  S26  1  0.73887149  0.00342939  0.31726913  1
  S  S27  1  0.26404528  0.95139813  0.68819808  1
  S  S28  1  0.15741147  0.47181312  0.44555642  1
  S  S29  1  0.83651683  0.49473907  0.55423921  1
  S  S30  1  0.44701023  0.44425876  0.83405255  1
  S  S31  1  0.57469157  0.55923372  0.20215096  1
  S  S32  1  0.91481046  0.46877619  0.97948624  1
  S  S33  1  0.07057829  0.45714598  0.00371256  1
  S  S34  1  0.67920438  0.46896268  0.89810655  1
  S  S35  1  0.33618372  0.51642990  0.09827909  1
  S  S36  1  0.59088714  0.95843649  0.66596007  1
  S  S37  1  0.42915069  0.01143324  0.37365662  1
  S  S38  1  0.25934546  0.47606036  0.28529888  1
  S  S39  1  0.76923390  0.47025272  0.68527230  1
  S  S40  1  0.65882541  0.00874981  0.43237508  1
  S  S41  1  0.32446140  0.01977148  0.52764643  1
