# generated using pymatgen
data_Pr2Mn3(SbS3)4
_symmetry_space_group_name_H-M   'P 1'
_cell_length_a   20.02960800
_cell_length_b   3.90410600
_cell_length_c   14.95364829
_cell_angle_alpha   90.00000000
_cell_angle_beta   126.33350609
_cell_angle_gamma   90.00000000
_symmetry_Int_Tables_number   1
_chemical_formula_structural   Pr2Mn3(SbS3)4
_chemical_formula_sum   'Pr4 Mn6 Sb8 S24'
_cell_volume   942.00006694
_cell_formula_units_Z   2
loop_
 _symmetry_equiv_pos_site_id
 _symmetry_equiv_pos_as_xyz
  1  'x, y, z'
loop_
 _atom_site_type_symbol
 _atom_site_label
 _atom_site_symmetry_multiplicity
 _atom_site_fract_x
 _atom_site_fract_y
 _atom_site_fract_z
 _atom_site_occupancy
  Pr  Pr0  1  0.26973231  0.50209002  0.86779898  1
  Pr  Pr1  1  0.73329058  0.51383223  0.13313543  1
  Pr  Pr2  1  0.76543009  0.02856421  0.86665428  1
  Pr  Pr3  1  0.23230058  0.99097951  0.13174371  1
  Mn  Mn4  1  0.30045176  0.47078839  0.60590737  1
  Mn  Mn5  1  0.68524077  0.46376551  0.36185418  1
  Mn  Mn6  1  0.00260341  0.98905775  0.01044966  1
  Mn  Mn7  1  0.79570577  0.01669485  0.61758749  1
  Mn  Mn8  1  0.19364617  0.98678787  0.36584892  1
  Mn  Mn9  1  0.48398105  0.47174131  0.98370194  1
  Sb  Sb10  1  0.88989120  0.98408185  0.44854854  1
  Sb  Sb11  1  0.10988830  0.98128665  0.54566646  1
  Sb  Sb12  1  0.03515299  0.53272334  0.82081149  1
  Sb  Sb13  1  0.96676415  0.49769587  0.18873699  1
  Sb  Sb14  1  0.39408418  0.50033680  0.44938258  1
  Sb  Sb15  1  0.60909664  0.47896808  0.54694565  1
  Sb  Sb16  1  0.53281184  0.97587423  0.80653773  1
  Sb  Sb17  1  0.46489304  0.02287775  0.18768523  1
  S  S18  1  0.93673933  0.01760071  0.80917187  1
  S  S19  1  0.06660575  0.01393693  0.20535678  1
  S  S20  1  0.41694067  0.97114829  0.98601924  1
  S  S21  1  0.58714440  0.04026718  0.01646707  1
  S  S22  1  0.16909625  0.04468539  0.90124929  1
  S  S23  1  0.82666901  0.02576842  0.10483168  1
  S  S24  1  0.08814076  0.49857170  0.64311632  1
  S  S25  1  0.91352012  0.48237158  0.35241952  1
  S  S26  1  0.73813025  0.00033768  0.29911167  1
  S  S27  1  0.25635657  0.01312786  0.70348191  1
  S  S28  1  0.16893716  0.51759122  0.43674516  1
  S  S29  1  0.80937636  0.50392314  0.53845791  1
  S  S30  1  0.43047511  0.46702935  0.79559203  1
  S  S31  1  0.55228841  0.51553499  0.18027681  1
  S  S32  1  0.92281091  0.50332429  0.99484084  1
  S  S33  1  0.08958159  0.49620947  0.02603681  1
  S  S34  1  0.66626060  0.55795867  0.89799086  1
  S  S35  1  0.32913474  0.47405268  0.09432085  1
  S  S36  1  0.58696006  0.99070265  0.64721217  1
  S  S37  1  0.39676230  0.97894900  0.33795397  1
  S  S38  1  0.24685085  0.47683061  0.31734973  1
  S  S39  1  0.75916419  0.53017033  0.68801945  1
  S  S40  1  0.66458935  0.98908331  0.44656027  1
  S  S41  1  0.32986664  0.98332818  0.55524522  1
