# generated using pymatgen
data_Pr2Mn3(SbS3)4
_symmetry_space_group_name_H-M   'P 1'
_cell_length_a   20.02960800
_cell_length_b   3.90410600
_cell_length_c   14.95364829
_cell_angle_alpha   90.00000000
_cell_angle_beta   126.33350609
_cell_angle_gamma   90.00000000
_symmetry_Int_Tables_number   1
_chemical_formula_structural   Pr2Mn3(SbS3)4
_chemical_formula_sum   'Pr4 Mn6 Sb8 S24'
_cell_volume   942.00006694
_cell_formula_units_Z   2
loop_
 _symmetry_equiv_pos_site_id
 _symmetry_equiv_pos_as_xyz
  1  'x, y, z'
loop_
 _atom_site_type_symbol
 _atom_site_label
 _atom_site_symmetry_multiplicity
 _atom_site_fract_x
 _atom_site_fract_y
 _atom_site_fract_z
 _atom_site_occupancy
  Pr  Pr0  1  0.26095487  0.48173420  0.86298052  1
  Pr  Pr1  1  0.73168498  0.53053886  0.12907325  1
  Pr  Pr2  1  0.77493722  0.97731845  0.87563624  1
  Pr  Pr3  1  0.23286842  0.98265756  0.13554539  1
  Mn  Mn4  1  0.28233414  0.57734273  0.57780208  1
  Mn  Mn5  1  0.71135098  0.50686959  0.39433382  1
  Mn  Mn6  1  0.98968363  0.94823551  0.98431913  1
  Mn  Mn7  1  0.78840529  0.05129585  0.58716198  1
  Mn  Mn8  1  0.18567812  0.96668034  0.38893619  1
  Mn  Mn9  1  0.51675117  0.49110596  0.01489579  1
  Sb  Sb10  1  0.89580868  0.99155891  0.45599997  1
  Sb  Sb11  1  0.10505957  0.99694713  0.54053873  1
  Sb  Sb12  1  0.02985548  0.51102256  0.81155011  1
  Sb  Sb13  1  0.97345491  0.46263620  0.19345111  1
  Sb  Sb14  1  0.41055123  0.48780579  0.46465459  1
  Sb  Sb15  1  0.60206404  0.42728645  0.55730722  1
  Sb  Sb16  1  0.52972413  0.00403418  0.81904506  1
  Sb  Sb17  1  0.46558525  0.95813627  0.18417597  1
  S  S18  1  0.93147886  0.98767822  0.79108352  1
  S  S19  1  0.06941409  0.96270674  0.20168489  1
  S  S20  1  0.41701057  0.98913319  0.99298918  1
  S  S21  1  0.58622458  0.98735238  0.01839775  1
  S  S22  1  0.17950034  0.99680277  0.89860852  1
  S  S23  1  0.83157628  0.98587974  0.10469281  1
  S  S24  1  0.11210695  0.47528841  0.65802209  1
  S  S25  1  0.90145443  0.46431549  0.34721182  1
  S  S26  1  0.73906911  0.00320827  0.31727622  1
  S  S27  1  0.26398578  0.95139362  0.68767077  1
  S  S28  1  0.15747367  0.47278823  0.44589970  1
  S  S29  1  0.83681895  0.49728459  0.55438084  1
  S  S30  1  0.44679831  0.44456643  0.83385781  1
  S  S31  1  0.57447792  0.55864156  0.20214600  1
  S  S32  1  0.91451376  0.46800006  0.97924123  1
  S  S33  1  0.07061609  0.45763195  0.00367035  1
  S  S34  1  0.67890419  0.46901731  0.89810706  1
  S  S35  1  0.33647808  0.51497718  0.09858896  1
  S  S36  1  0.59139119  0.95806493  0.66628355  1
  S  S37  1  0.42899280  0.01238496  0.37333260  1
  S  S38  1  0.25888344  0.47569067  0.28435818  1
  S  S39  1  0.76931166  0.47071232  0.68564309  1
  S  S40  1  0.65935260  0.00893894  0.43282599  1
  S  S41  1  0.32433099  0.02035638  0.52749583  1
