# generated using pymatgen
data_Pr2Mn3(SbS3)4
_symmetry_space_group_name_H-M   'P 1'
_cell_length_a   20.02960800
_cell_length_b   3.90410600
_cell_length_c   14.95364829
_cell_angle_alpha   90.00000000
_cell_angle_beta   126.33350609
_cell_angle_gamma   90.00000000
_symmetry_Int_Tables_number   1
_chemical_formula_structural   Pr2Mn3(SbS3)4
_chemical_formula_sum   'Pr4 Mn6 Sb8 S24'
_cell_volume   942.00006694
_cell_formula_units_Z   2
loop_
 _symmetry_equiv_pos_site_id
 _symmetry_equiv_pos_as_xyz
  1  'x, y, z'
loop_
 _atom_site_type_symbol
 _atom_site_label
 _atom_site_symmetry_multiplicity
 _atom_site_fract_x
 _atom_site_fract_y
 _atom_site_fract_z
 _atom_site_occupancy
  Pr  Pr0  1  0.26092402  0.48099205  0.86283010  1
  Pr  Pr1  1  0.73174097  0.53084279  0.12920588  1
  Pr  Pr2  1  0.77519460  0.97764584  0.87554193  1
  Pr  Pr3  1  0.23271454  0.98278494  0.13540981  1
  Mn  Mn4  1  0.28228085  0.57745497  0.57800629  1
  Mn  Mn5  1  0.71147433  0.50695648  0.39442935  1
  Mn  Mn6  1  0.98977470  0.94723337  0.98441921  1
  Mn  Mn7  1  0.78858008  0.05060071  0.58738491  1
  Mn  Mn8  1  0.18542962  0.96780851  0.38847062  1
  Mn  Mn9  1  0.51650809  0.49066247  0.01472304  1
  Sb  Sb10  1  0.89579096  0.99201169  0.45602999  1
  Sb  Sb11  1  0.10519365  0.99703740  0.54067502  1
  Sb  Sb12  1  0.02991068  0.51079550  0.81154001  1
  Sb  Sb13  1  0.97339978  0.46169168  0.19349712  1
  Sb  Sb14  1  0.41047145  0.48748744  0.46485944  1
  Sb  Sb15  1  0.60220581  0.42675862  0.55726780  1
  Sb  Sb16  1  0.52965998  0.00370355  0.81882046  1
  Sb  Sb17  1  0.46547880  0.95852261  0.18418569  1
  S  S18  1  0.93207119  0.98699432  0.79168003  1
  S  S19  1  0.06961411  0.96239535  0.20160648  1
  S  S20  1  0.41690137  0.98947094  0.99265850  1
  S  S21  1  0.58637805  0.98780984  0.01832032  1
  S  S22  1  0.17933698  0.99573871  0.89837004  1
  S  S23  1  0.83150775  0.98583664  0.10427273  1
  S  S24  1  0.11212886  0.47490963  0.65802126  1
  S  S25  1  0.90148860  0.46280444  0.34717101  1
  S  S26  1  0.73919966  0.00277457  0.31719375  1
  S  S27  1  0.26385410  0.95119203  0.68715926  1
  S  S28  1  0.15744929  0.47403649  0.44599849  1
  S  S29  1  0.83690261  0.49928586  0.55426205  1
  S  S30  1  0.44668126  0.44446796  0.83376211  1
  S  S31  1  0.57422499  0.55771915  0.20222871  1
  S  S32  1  0.91425079  0.46805022  0.97930217  1
  S  S33  1  0.07063134  0.45778073  0.00370946  1
  S  S34  1  0.67869419  0.46888279  0.89823230  1
  S  S35  1  0.33673760  0.51357940  0.09898380  1
  S  S36  1  0.59208596  0.95800255  0.66672436  1
  S  S37  1  0.42895804  0.01287967  0.37312301  1
  S  S38  1  0.25835568  0.47512437  0.28362821  1
  S  S39  1  0.76955014  0.47135360  0.68607921  1
  S  S40  1  0.65976103  0.00956526  0.43321392  1
  S  S41  1  0.32420721  0.02097949  0.52765601  1
