# generated using pymatgen
data_Pr2Mn3(SbS3)4
_symmetry_space_group_name_H-M   'P 1'
_cell_length_a   20.02960800
_cell_length_b   3.90410600
_cell_length_c   14.95364829
_cell_angle_alpha   90.00000000
_cell_angle_beta   126.33350609
_cell_angle_gamma   90.00000000
_symmetry_Int_Tables_number   1
_chemical_formula_structural   Pr2Mn3(SbS3)4
_chemical_formula_sum   'Pr4 Mn6 Sb8 S24'
_cell_volume   942.00006694
_cell_formula_units_Z   2
loop_
 _symmetry_equiv_pos_site_id
 _symmetry_equiv_pos_as_xyz
  1  'x, y, z'
loop_
 _atom_site_type_symbol
 _atom_site_label
 _atom_site_symmetry_multiplicity
 _atom_site_fract_x
 _atom_site_fract_y
 _atom_site_fract_z
 _atom_site_occupancy
  Pr  Pr0  1  0.26083267  0.48033895  0.86263522  1
  Pr  Pr1  1  0.73178578  0.53141426  0.12933292  1
  Pr  Pr2  1  0.77536718  0.97782216  0.87550457  1
  Pr  Pr3  1  0.23250009  0.98297729  0.13525867  1
  Mn  Mn4  1  0.28212562  0.57761292  0.57806588  1
  Mn  Mn5  1  0.71161518  0.50654735  0.39464069  1
  Mn  Mn6  1  0.98997974  0.94620910  0.98475273  1
  Mn  Mn7  1  0.78872115  0.05012077  0.58767489  1
  Mn  Mn8  1  0.18503659  0.96900365  0.38799923  1
  Mn  Mn9  1  0.51636473  0.49057881  0.01474578  1
  Sb  Sb10  1  0.89573131  0.99197846  0.45604530  1
  Sb  Sb11  1  0.10534705  0.99723028  0.54078353  1
  Sb  Sb12  1  0.02992886  0.51074244  0.81152690  1
  Sb  Sb13  1  0.97333044  0.46070807  0.19350406  1
  Sb  Sb14  1  0.41030890  0.48732616  0.46508379  1
  Sb  Sb15  1  0.60229738  0.42595953  0.55716999  1
  Sb  Sb16  1  0.52960317  0.00325239  0.81862758  1
  Sb  Sb17  1  0.46543292  0.95923637  0.18415262  1
  S  S18  1  0.93274752  0.98600440  0.79236286  1
  S  S19  1  0.07002690  0.96170647  0.20162841  1
  S  S20  1  0.41684103  0.98999526  0.99240147  1
  S  S21  1  0.58650875  0.98805222  0.01822718  1
  S  S22  1  0.17929870  0.99369455  0.89847488  1
  S  S23  1  0.83152548  0.98610179  0.10392108  1
  S  S24  1  0.11206781  0.47501473  0.65779148  1
  S  S25  1  0.90145487  0.46155687  0.34713856  1
  S  S26  1  0.73940192  0.00249758  0.31715047  1
  S  S27  1  0.26371010  0.95047243  0.68657862  1
  S  S28  1  0.15744331  0.47491143  0.44613976  1
  S  S29  1  0.83686174  0.50121075  0.55388628  1
  S  S30  1  0.44656537  0.44446805  0.83366344  1
  S  S31  1  0.57412034  0.55651998  0.20222726  1
  S  S32  1  0.91393821  0.46874314  0.97921054  1
  S  S33  1  0.07079167  0.45751173  0.00381454  1
  S  S34  1  0.67853095  0.46875616  0.89832855  1
  S  S35  1  0.33695802  0.51236139  0.09935145  1
  S  S36  1  0.59280276  0.95785124  0.66727856  1
  S  S37  1  0.42882452  0.01343563  0.37299177  1
  S  S38  1  0.25782081  0.47526652  0.28294383  1
  S  S39  1  0.76971357  0.47178161  0.68634909  1
  S  S40  1  0.66012159  0.00989479  0.43353701  1
  S  S41  1  0.32401776  0.02198961  0.52783457  1
