# generated using pymatgen
data_Pr2Mn3(SbS3)4
_symmetry_space_group_name_H-M   'P 1'
_cell_length_a   20.02960800
_cell_length_b   3.90410600
_cell_length_c   14.95364829
_cell_angle_alpha   90.00000000
_cell_angle_beta   126.33350609
_cell_angle_gamma   90.00000000
_symmetry_Int_Tables_number   1
_chemical_formula_structural   Pr2Mn3(SbS3)4
_chemical_formula_sum   'Pr4 Mn6 Sb8 S24'
_cell_volume   942.00006694
_cell_formula_units_Z   2
loop_
 _symmetry_equiv_pos_site_id
 _symmetry_equiv_pos_as_xyz
  1  'x, y, z'
loop_
 _atom_site_type_symbol
 _atom_site_label
 _atom_site_symmetry_multiplicity
 _atom_site_fract_x
 _atom_site_fract_y
 _atom_site_fract_z
 _atom_site_occupancy
  Pr  Pr0  1  0.26069348  0.47992697  0.86240551  1
  Pr  Pr1  1  0.73177952  0.53244441  0.12938128  1
  Pr  Pr2  1  0.77550934  0.97804429  0.87552292  1
  Pr  Pr3  1  0.23231783  0.98289535  0.13504111  1
  Mn  Mn4  1  0.28196181  0.57797129  0.57804053  1
  Mn  Mn5  1  0.71175302  0.50657410  0.39491841  1
  Mn  Mn6  1  0.99028553  0.94526817  0.98506311  1
  Mn  Mn7  1  0.78890640  0.04971758  0.58800798  1
  Mn  Mn8  1  0.18466211  0.97066729  0.38761398  1
  Mn  Mn9  1  0.51631700  0.49108788  0.01479254  1
  Sb  Sb10  1  0.89573376  0.99219385  0.45602071  1
  Sb  Sb11  1  0.10545386  0.99738421  0.54079643  1
  Sb  Sb12  1  0.02993728  0.51058736  0.81156000  1
  Sb  Sb13  1  0.97326992  0.46010846  0.19352797  1
  Sb  Sb14  1  0.41013781  0.48760961  0.46524125  1
  Sb  Sb15  1  0.60242867  0.42511842  0.55714265  1
  Sb  Sb16  1  0.52958934  0.00264051  0.81843399  1
  Sb  Sb17  1  0.46529059  0.95983842  0.18404714  1
  S  S18  1  0.93344285  0.98466368  0.79303018  1
  S  S19  1  0.07038508  0.96124000  0.20157493  1
  S  S20  1  0.41670912  0.99042478  0.99189482  1
  S  S21  1  0.58674376  0.98880315  0.01832235  1
  S  S22  1  0.17931483  0.99191134  0.89853481  1
  S  S23  1  0.83147383  0.98689370  0.10360623  1
  S  S24  1  0.11207982  0.47494804  0.65765857  1
  S  S25  1  0.90148022  0.46034903  0.34713047  1
  S  S26  1  0.73950910  0.00193827  0.31704397  1
  S  S27  1  0.26352813  0.95023667  0.68599537  1
  S  S28  1  0.15746730  0.47534877  0.44647322  1
  S  S29  1  0.83687327  0.50323704  0.55369152  1
  S  S30  1  0.44640265  0.44564690  0.83346294  1
  S  S31  1  0.57395118  0.55507679  0.20198897  1
  S  S32  1  0.91368474  0.46917771  0.97903940  1
  S  S33  1  0.07092527  0.45692377  0.00383808  1
  S  S34  1  0.67849961  0.46870048  0.89861462  1
  S  S35  1  0.33696603  0.51148593  0.09967684  1
  S  S36  1  0.59349617  0.95769077  0.66756425  1
  S  S37  1  0.42856661  0.01356729  0.37285927  1
  S  S38  1  0.25712803  0.47609608  0.28225346  1
  S  S39  1  0.76998973  0.47179066  0.68694964  1
  S  S40  1  0.66045878  0.00999516  0.43385361  1
  S  S41  1  0.32375247  0.02295762  0.52807032  1
