# generated using pymatgen
data_Pr2Mn3(SbS3)4
_symmetry_space_group_name_H-M   'P 1'
_cell_length_a   20.02960800
_cell_length_b   3.90410600
_cell_length_c   14.95364829
_cell_angle_alpha   90.00000000
_cell_angle_beta   126.33350609
_cell_angle_gamma   90.00000000
_symmetry_Int_Tables_number   1
_chemical_formula_structural   Pr2Mn3(SbS3)4
_chemical_formula_sum   'Pr4 Mn6 Sb8 S24'
_cell_volume   942.00006694
_cell_formula_units_Z   2
loop_
 _symmetry_equiv_pos_site_id
 _symmetry_equiv_pos_as_xyz
  1  'x, y, z'
loop_
 _atom_site_type_symbol
 _atom_site_label
 _atom_site_symmetry_multiplicity
 _atom_site_fract_x
 _atom_site_fract_y
 _atom_site_fract_z
 _atom_site_occupancy
  Pr  Pr0  1  0.26053237  0.47942871  0.86216372  1
  Pr  Pr1  1  0.73178173  0.53344172  0.12944068  1
  Pr  Pr2  1  0.77571482  0.97855001  0.87552003  1
  Pr  Pr3  1  0.23223537  0.98252588  0.13483628  1
  Mn  Mn4  1  0.28189340  0.57856592  0.57799010  1
  Mn  Mn5  1  0.71182252  0.50684823  0.39521833  1
  Mn  Mn6  1  0.99056804  0.94465134  0.98545571  1
  Mn  Mn7  1  0.78917058  0.04945669  0.58835197  1
  Mn  Mn8  1  0.18446255  0.97216323  0.38726535  1
  Mn  Mn9  1  0.51638430  0.49147480  0.01500063  1
  Sb  Sb10  1  0.89576737  0.99251653  0.45603064  1
  Sb  Sb11  1  0.10561727  0.99765124  0.54093895  1
  Sb  Sb12  1  0.03000559  0.51029378  0.81168709  1
  Sb  Sb13  1  0.97323259  0.45970687  0.19346200  1
  Sb  Sb14  1  0.40996745  0.48773626  0.46542265  1
  Sb  Sb15  1  0.60246270  0.42434464  0.55699501  1
  Sb  Sb16  1  0.52957584  0.00230585  0.81826497  1
  Sb  Sb17  1  0.46516703  0.96045251  0.18399854  1
  S  S18  1  0.93414115  0.98395888  0.79378213  1
  S  S19  1  0.07083884  0.96075585  0.20165001  1
  S  S20  1  0.41641722  0.99103887  0.99119871  1
  S  S21  1  0.58688929  0.98961125  0.01849649  1
  S  S22  1  0.17933537  0.99011756  0.89860838  1
  S  S23  1  0.83131235  0.98798075  0.10326719  1
  S  S24  1  0.11203356  0.47578149  0.65752688  1
  S  S25  1  0.90140131  0.45997285  0.34700287  1
  S  S26  1  0.73972618  0.00179323  0.31714989  1
  S  S27  1  0.26344575  0.95008360  0.68551661  1
  S  S28  1  0.15746293  0.47598963  0.44674721  1
  S  S29  1  0.83696456  0.50510882  0.55376797  1
  S  S30  1  0.44609964  0.44708470  0.83324455  1
  S  S31  1  0.57384399  0.55296423  0.20180508  1
  S  S32  1  0.91347698  0.46924154  0.97887898  1
  S  S33  1  0.07116686  0.45649194  0.00382519  1
  S  S34  1  0.67844350  0.46885638  0.89903633  1
  S  S35  1  0.33695199  0.51003283  0.10016256  1
  S  S36  1  0.59399006  0.95765338  0.66787851  1
  S  S37  1  0.42817136  0.01350343  0.37251808  1
  S  S38  1  0.25649453  0.47694288  0.28176715  1
  S  S39  1  0.77020971  0.47125529  0.68754471  1
  S  S40  1  0.66085573  0.01014019  0.43409544  1
  S  S41  1  0.32371366  0.02432074  0.52838608  1
