# generated using pymatgen
data_Pr2Mn3(SbS3)4
_symmetry_space_group_name_H-M   'P 1'
_cell_length_a   20.02960800
_cell_length_b   3.90410600
_cell_length_c   14.95364829
_cell_angle_alpha   90.00000000
_cell_angle_beta   126.33350609
_cell_angle_gamma   90.00000000
_symmetry_Int_Tables_number   1
_chemical_formula_structural   Pr2Mn3(SbS3)4
_chemical_formula_sum   'Pr4 Mn6 Sb8 S24'
_cell_volume   942.00006694
_cell_formula_units_Z   2
loop_
 _symmetry_equiv_pos_site_id
 _symmetry_equiv_pos_as_xyz
  1  'x, y, z'
loop_
 _atom_site_type_symbol
 _atom_site_label
 _atom_site_symmetry_multiplicity
 _atom_site_fract_x
 _atom_site_fract_y
 _atom_site_fract_z
 _atom_site_occupancy
  Pr  Pr0  1  0.26042078  0.47891715  0.86202824  1
  Pr  Pr1  1  0.73173932  0.53401708  0.12948588  1
  Pr  Pr2  1  0.77586844  0.97925594  0.87543178  1
  Pr  Pr3  1  0.23218012  0.98217938  0.13466499  1
  Mn  Mn4  1  0.28188291  0.57952163  0.57805250  1
  Mn  Mn5  1  0.71190156  0.50705893  0.39557077  1
  Mn  Mn6  1  0.99089657  0.94350623  0.98591852  1
  Mn  Mn7  1  0.78927281  0.04941379  0.58851264  1
  Mn  Mn8  1  0.18424456  0.97376554  0.38701186  1
  Mn  Mn9  1  0.51652148  0.49206737  0.01538746  1
  Sb  Sb10  1  0.89580100  0.99309864  0.45605280  1
  Sb  Sb11  1  0.10583799  0.99786660  0.54114461  1
  Sb  Sb12  1  0.03003583  0.51010003  0.81168635  1
  Sb  Sb13  1  0.97318831  0.45928887  0.19335794  1
  Sb  Sb14  1  0.40990109  0.48786551  0.46558239  1
  Sb  Sb15  1  0.60251595  0.42367021  0.55692977  1
  Sb  Sb16  1  0.52960554  0.00216866  0.81811738  1
  Sb  Sb17  1  0.46514836  0.96105622  0.18409469  1
  S  S18  1  0.93462335  0.98305404  0.79437776  1
  S  S19  1  0.07123014  0.96044257  0.20165359  1
  S  S20  1  0.41623649  0.99153989  0.99040878  1
  S  S21  1  0.58718535  0.99025285  0.01884738  1
  S  S22  1  0.17944905  0.98824197  0.89884462  1
  S  S23  1  0.83114098  0.98927159  0.10305366  1
  S  S24  1  0.11192187  0.47622977  0.65737293  1
  S  S25  1  0.90123191  0.45940077  0.34673419  1
  S  S26  1  0.73990679  0.00184870  0.31713729  1
  S  S27  1  0.26333927  0.95053632  0.68501780  1
  S  S28  1  0.15757320  0.47692570  0.44694497  1
  S  S29  1  0.83706834  0.50688573  0.55387706  1
  S  S30  1  0.44593994  0.44876978  0.83330732  1
  S  S31  1  0.57375777  0.55149961  0.20176478  1
  S  S32  1  0.91329290  0.46892232  0.97876352  1
  S  S33  1  0.07138127  0.45612791  0.00380604  1
  S  S34  1  0.67828829  0.46930334  0.89925355  1
  S  S35  1  0.33691581  0.50853709  0.10059417  1
  S  S36  1  0.59435486  0.95729402  0.66798568  1
  S  S37  1  0.42779321  0.01343676  0.37232158  1
  S  S38  1  0.25589505  0.47783066  0.28121139  1
  S  S39  1  0.77044453  0.47093877  0.68811030  1
  S  S40  1  0.66116002  0.00983913  0.43432632  1
  S  S41  1  0.32374351  0.02638410  0.52883934  1
