# generated using pymatgen
data_Pr2Mn3(SbS3)4
_symmetry_space_group_name_H-M   'P 1'
_cell_length_a   20.02960800
_cell_length_b   3.90410600
_cell_length_c   14.95364829
_cell_angle_alpha   90.00000000
_cell_angle_beta   126.33350609
_cell_angle_gamma   90.00000000
_symmetry_Int_Tables_number   1
_chemical_formula_structural   Pr2Mn3(SbS3)4
_chemical_formula_sum   'Pr4 Mn6 Sb8 S24'
_cell_volume   942.00006694
_cell_formula_units_Z   2
loop_
 _symmetry_equiv_pos_site_id
 _symmetry_equiv_pos_as_xyz
  1  'x, y, z'
loop_
 _atom_site_type_symbol
 _atom_site_label
 _atom_site_symmetry_multiplicity
 _atom_site_fract_x
 _atom_site_fract_y
 _atom_site_fract_z
 _atom_site_occupancy
  Pr  Pr0  1  0.26036533  0.47837002  0.86193816  1
  Pr  Pr1  1  0.73168518  0.53464912  0.12956813  1
  Pr  Pr2  1  0.77597378  0.98003918  0.87546601  1
  Pr  Pr3  1  0.23216400  0.98199110  0.13456596  1
  Mn  Mn4  1  0.28192080  0.57987156  0.57812457  1
  Mn  Mn5  1  0.71197456  0.50733102  0.39594307  1
  Mn  Mn6  1  0.99119397  0.94236871  0.98652740  1
  Mn  Mn7  1  0.78926499  0.04946777  0.58844841  1
  Mn  Mn8  1  0.18396649  0.97529433  0.38669128  1
  Mn  Mn9  1  0.51662600  0.49217154  0.01562748  1
  Sb  Sb10  1  0.89590528  0.99374749  0.45624744  1
  Sb  Sb11  1  0.10605410  0.99831380  0.54142635  1
  Sb  Sb12  1  0.03005973  0.51010390  0.81167043  1
  Sb  Sb13  1  0.97316416  0.45898802  0.19330516  1
  Sb  Sb14  1  0.40985787  0.48824868  0.46576364  1
  Sb  Sb15  1  0.60264888  0.42313563  0.55693100  1
  Sb  Sb16  1  0.52966078  0.00204811  0.81802047  1
  Sb  Sb17  1  0.46524774  0.96164548  0.18424921  1
  S  S18  1  0.93522066  0.98189996  0.79493949  1
  S  S19  1  0.07145252  0.96030827  0.20154137  1
  S  S20  1  0.41622116  0.99136557  0.98971525  1
  S  S21  1  0.58746187  0.99138336  0.01919583  1
  S  S22  1  0.17954037  0.98669355  0.89900424  1
  S  S23  1  0.83086360  0.99070792  0.10270211  1
  S  S24  1  0.11175450  0.47636141  0.65733777  1
  S  S25  1  0.90104625  0.45878912  0.34643405  1
  S  S26  1  0.74006224  0.00217568  0.31698501  1
  S  S27  1  0.26316259  0.95110813  0.68447852  1
  S  S28  1  0.15764820  0.47820173  0.44703182  1
  S  S29  1  0.83720495  0.50846007  0.55412676  1
  S  S30  1  0.44594772  0.44952928  0.83323477  1
  S  S31  1  0.57360729  0.54967629  0.20173974  1
  S  S32  1  0.91313091  0.46859548  0.97866032  1
  S  S33  1  0.07156740  0.45569640  0.00369834  1
  S  S34  1  0.67819307  0.46972067  0.89939641  1
  S  S35  1  0.33696579  0.50733765  0.10099302  1
  S  S36  1  0.59476744  0.95730381  0.66812448  1
  S  S37  1  0.42741352  0.01349113  0.37197782  1
  S  S38  1  0.25527683  0.47897350  0.28057834  1
  S  S39  1  0.77078712  0.47077949  0.68877865  1
  S  S40  1  0.66144693  0.00985623  0.43441818  1
  S  S41  1  0.32377485  0.02839215  0.52928558  1
