# generated using pymatgen
data_Pr2Mn3(SbS3)4
_symmetry_space_group_name_H-M   'P 1'
_cell_length_a   20.02960800
_cell_length_b   3.90410600
_cell_length_c   14.95364829
_cell_angle_alpha   90.00000000
_cell_angle_beta   126.33350609
_cell_angle_gamma   90.00000000
_symmetry_Int_Tables_number   1
_chemical_formula_structural   Pr2Mn3(SbS3)4
_chemical_formula_sum   'Pr4 Mn6 Sb8 S24'
_cell_volume   942.00006694
_cell_formula_units_Z   2
loop_
 _symmetry_equiv_pos_site_id
 _symmetry_equiv_pos_as_xyz
  1  'x, y, z'
loop_
 _atom_site_type_symbol
 _atom_site_label
 _atom_site_symmetry_multiplicity
 _atom_site_fract_x
 _atom_site_fract_y
 _atom_site_fract_z
 _atom_site_occupancy
  Pr  Pr0  1  0.26030839  0.47808595  0.86194449  1
  Pr  Pr1  1  0.73162658  0.53541789  0.12958479  1
  Pr  Pr2  1  0.77604635  0.98081353  0.87548969  1
  Pr  Pr3  1  0.23216742  0.98175509  0.13443838  1
  Mn  Mn4  1  0.28204740  0.58088657  0.57810501  1
  Mn  Mn5  1  0.71196912  0.50753232  0.39634795  1
  Mn  Mn6  1  0.99149489  0.94125043  0.98711219  1
  Mn  Mn7  1  0.78915207  0.04880525  0.58835589  1
  Mn  Mn8  1  0.18380432  0.97623090  0.38651675  1
  Mn  Mn9  1  0.51657146  0.49261823  0.01585589  1
  Sb  Sb10  1  0.89591465  0.99433794  0.45632752  1
  Sb  Sb11  1  0.10618312  0.99882163  0.54156276  1
  Sb  Sb12  1  0.03005895  0.51032770  0.81171212  1
  Sb  Sb13  1  0.97318819  0.45866067  0.19327719  1
  Sb  Sb14  1  0.40977428  0.48857831  0.46590465  1
  Sb  Sb15  1  0.60277548  0.42272845  0.55692332  1
  Sb  Sb16  1  0.52966134  0.00166082  0.81791908  1
  Sb  Sb17  1  0.46544826  0.96227332  0.18453696  1
  S  S18  1  0.93561760  0.98124729  0.79529120  1
  S  S19  1  0.07157459  0.95987352  0.20133382  1
  S  S20  1  0.41627002  0.99160276  0.98919620  1
  S  S21  1  0.58766000  0.99251882  0.01945378  1
  S  S22  1  0.17955086  0.98472824  0.89895543  1
  S  S23  1  0.83062229  0.99152727  0.10233597  1
  S  S24  1  0.11149507  0.47666467  0.65726262  1
  S  S25  1  0.90089517  0.45851698  0.34609910  1
  S  S26  1  0.74018617  0.00291571  0.31691850  1
  S  S27  1  0.26303881  0.95155379  0.68387220  1
  S  S28  1  0.15765765  0.47947633  0.44718099  1
  S  S29  1  0.83728478  0.51025008  0.55427761  1
  S  S30  1  0.44596266  0.45118587  0.83325498  1
  S  S31  1  0.57366621  0.54868438  0.20191797  1
  S  S32  1  0.91313829  0.46848711  0.97860463  1
  S  S33  1  0.07171715  0.45537262  0.00365625  1
  S  S34  1  0.67815353  0.47081180  0.89965867  1
  S  S35  1  0.33695316  0.50616896  0.10117213  1
  S  S36  1  0.59513884  0.95665612  0.66819676  1
  S  S37  1  0.42715295  0.01302104  0.37157700  1
  S  S38  1  0.25469775  0.47929597  0.27992457  1
  S  S39  1  0.77097967  0.47001152  0.68920353  1
  S  S40  1  0.66175200  0.01023736  0.43477122  1
  S  S41  1  0.32382235  0.03038663  0.52971271  1
