# generated using pymatgen
data_Pr2Mn3(SbS3)4
_symmetry_space_group_name_H-M   'P 1'
_cell_length_a   20.02960800
_cell_length_b   3.90410600
_cell_length_c   14.95364829
_cell_angle_alpha   90.00000000
_cell_angle_beta   126.33350609
_cell_angle_gamma   90.00000000
_symmetry_Int_Tables_number   1
_chemical_formula_structural   Pr2Mn3(SbS3)4
_chemical_formula_sum   'Pr4 Mn6 Sb8 S24'
_cell_volume   942.00006694
_cell_formula_units_Z   2
loop_
 _symmetry_equiv_pos_site_id
 _symmetry_equiv_pos_as_xyz
  1  'x, y, z'
loop_
 _atom_site_type_symbol
 _atom_site_label
 _atom_site_symmetry_multiplicity
 _atom_site_fract_x
 _atom_site_fract_y
 _atom_site_fract_z
 _atom_site_occupancy
  Pr  Pr0  1  0.26026474  0.47805566  0.86200111  1
  Pr  Pr1  1  0.73160310  0.53596371  0.12958608  1
  Pr  Pr2  1  0.77607022  0.98145370  0.87544175  1
  Pr  Pr3  1  0.23210193  0.98172413  0.13418806  1
  Mn  Mn4  1  0.28219332  0.58190435  0.57813585  1
  Mn  Mn5  1  0.71200574  0.50755193  0.39680803  1
  Mn  Mn6  1  0.99161447  0.94053519  0.98748919  1
  Mn  Mn7  1  0.78915223  0.04784894  0.58852552  1
  Mn  Mn8  1  0.18356719  0.97688412  0.38625561  1
  Mn  Mn9  1  0.51665198  0.49302470  0.01624212  1
  Sb  Sb10  1  0.89584927  0.99475908  0.45624872  1
  Sb  Sb11  1  0.10626745  0.99954133  0.54167585  1
  Sb  Sb12  1  0.03009447  0.51062435  0.81185785  1
  Sb  Sb13  1  0.97314929  0.45833423  0.19316590  1
  Sb  Sb14  1  0.40965540  0.48910440  0.46597801  1
  Sb  Sb15  1  0.60280392  0.42229931  0.55675854  1
  Sb  Sb16  1  0.52965224  0.00099408  0.81785044  1
  Sb  Sb17  1  0.46561463  0.96295081  0.18478573  1
  S  S18  1  0.93597424  0.98076668  0.79553847  1
  S  S19  1  0.07178524  0.95937818  0.20121216  1
  S  S20  1  0.41625639  0.99149943  0.98879882  1
  S  S21  1  0.58790850  0.99349373  0.01981205  1
  S  S22  1  0.17943163  0.98354252  0.89883709  1
  S  S23  1  0.83037832  0.99206518  0.10202846  1
  S  S24  1  0.11139819  0.47743548  0.65718709  1
  S  S25  1  0.90073557  0.45882834  0.34588170  1
  S  S26  1  0.74053136  0.00374251  0.31711442  1
  S  S27  1  0.26290996  0.95207911  0.68336206  1
  S  S28  1  0.15761344  0.48024968  0.44731815  1
  S  S29  1  0.83723394  0.51192126  0.55431058  1
  S  S30  1  0.44587990  0.45255840  0.83322276  1
  S  S31  1  0.57408053  0.54713908  0.20242670  1
  S  S32  1  0.91306959  0.46843829  0.97851048  1
  S  S33  1  0.07194468  0.45501581  0.00378520  1
  S  S34  1  0.67800004  0.47142622  0.89982264  1
  S  S35  1  0.33697239  0.50538983  0.10153369  1
  S  S36  1  0.59559468  0.95600389  0.66838610  1
  S  S37  1  0.42679868  0.01279258  0.37113411  1
  S  S38  1  0.25403932  0.48022403  0.27917490  1
  S  S39  1  0.77115003  0.46913720  0.68950827  1
  S  S40  1  0.66209628  0.01067359  0.43509778  1
  S  S41  1  0.32397843  0.03184421  0.53006028  1
