# generated using pymatgen
data_Pr2Mn3(SbS3)4
_symmetry_space_group_name_H-M   'P 1'
_cell_length_a   20.02960800
_cell_length_b   3.90410600
_cell_length_c   14.95364829
_cell_angle_alpha   90.00000000
_cell_angle_beta   126.33350609
_cell_angle_gamma   90.00000000
_symmetry_Int_Tables_number   1
_chemical_formula_structural   Pr2Mn3(SbS3)4
_chemical_formula_sum   'Pr4 Mn6 Sb8 S24'
_cell_volume   942.00006694
_cell_formula_units_Z   2
loop_
 _symmetry_equiv_pos_site_id
 _symmetry_equiv_pos_as_xyz
  1  'x, y, z'
loop_
 _atom_site_type_symbol
 _atom_site_label
 _atom_site_symmetry_multiplicity
 _atom_site_fract_x
 _atom_site_fract_y
 _atom_site_fract_z
 _atom_site_occupancy
  Pr  Pr0  1  0.26025795  0.47804147  0.86201932  1
  Pr  Pr1  1  0.73158739  0.53639925  0.12949605  1
  Pr  Pr2  1  0.77610080  0.98171723  0.87548298  1
  Pr  Pr3  1  0.23199917  0.98158164  0.13404774  1
  Mn  Mn4  1  0.28225403  0.58282945  0.57814761  1
  Mn  Mn5  1  0.71217698  0.50757951  0.39732896  1
  Mn  Mn6  1  0.99176206  0.94006880  0.98790247  1
  Mn  Mn7  1  0.78909897  0.04675965  0.58865174  1
  Mn  Mn8  1  0.18325890  0.97721942  0.38595029  1
  Mn  Mn9  1  0.51669529  0.49326884  0.01656933  1
  Sb  Sb10  1  0.89585182  0.99527732  0.45621251  1
  Sb  Sb11  1  0.10633509  0.00028573  0.54180793  1
  Sb  Sb12  1  0.03011743  0.51071999  0.81196368  1
  Sb  Sb13  1  0.97314295  0.45819313  0.19310048  1
  Sb  Sb14  1  0.40946705  0.48970872  0.46598489  1
  Sb  Sb15  1  0.60282436  0.42180482  0.55659412  1
  Sb  Sb16  1  0.52954661  0.00064605  0.81774207  1
  Sb  Sb17  1  0.46570396  0.96356467  0.18494491  1
  S  S18  1  0.93621679  0.97947099  0.79559571  1
  S  S19  1  0.07193306  0.95954753  0.20108693  1
  S  S20  1  0.41633923  0.99147551  0.98844520  1
  S  S21  1  0.58807750  0.99451586  0.02004605  1
  S  S22  1  0.17925097  0.98230184  0.89855504  1
  S  S23  1  0.83033444  0.99241318  0.10190622  1
  S  S24  1  0.11121628  0.47829924  0.65697610  1
  S  S25  1  0.90050199  0.45937105  0.34564537  1
  S  S26  1  0.74090500  0.00394229  0.31743667  1
  S  S27  1  0.26287617  0.95285868  0.68292535  1
  S  S28  1  0.15772363  0.48040600  0.44765705  1
  S  S29  1  0.83712386  0.51279133  0.55446389  1
  S  S30  1  0.44584772  0.45355241  0.83315433  1
  S  S31  1  0.57436257  0.54565640  0.20275628  1
  S  S32  1  0.91296468  0.46789720  0.97837257  1
  S  S33  1  0.07208719  0.45460016  0.00378628  1
  S  S34  1  0.67796762  0.47212883  0.90008540  1
  S  S35  1  0.33699134  0.50457703  0.10163200  1
  S  S36  1  0.59596667  0.95587995  0.66844763  1
  S  S37  1  0.42645379  0.01239037  0.37091387  1
  S  S38  1  0.25326501  0.48141010  0.27812535  1
  S  S39  1  0.77139524  0.46866816  0.68991364  1
  S  S40  1  0.66244776  0.01073665  0.43556819  1
  S  S41  1  0.32398447  0.03281275  0.53013726  1
