# generated using pymatgen
data_Pr2Mn3(SbS3)4
_symmetry_space_group_name_H-M   'P 1'
_cell_length_a   20.02960800
_cell_length_b   3.90410600
_cell_length_c   14.95364829
_cell_angle_alpha   90.00000000
_cell_angle_beta   126.33350609
_cell_angle_gamma   90.00000000
_symmetry_Int_Tables_number   1
_chemical_formula_structural   Pr2Mn3(SbS3)4
_chemical_formula_sum   'Pr4 Mn6 Sb8 S24'
_cell_volume   942.00006694
_cell_formula_units_Z   2
loop_
 _symmetry_equiv_pos_site_id
 _symmetry_equiv_pos_as_xyz
  1  'x, y, z'
loop_
 _atom_site_type_symbol
 _atom_site_label
 _atom_site_symmetry_multiplicity
 _atom_site_fract_x
 _atom_site_fract_y
 _atom_site_fract_z
 _atom_site_occupancy
  Pr  Pr0  1  0.26967145  0.50238780  0.86776262  1
  Pr  Pr1  1  0.73321914  0.51361869  0.13316987  1
  Pr  Pr2  1  0.76535932  0.02905645  0.86681345  1
  Pr  Pr3  1  0.23221494  0.99072927  0.13160316  1
  Mn  Mn4  1  0.30069155  0.47110856  0.60624014  1
  Mn  Mn5  1  0.68537453  0.46454281  0.36203108  1
  Mn  Mn6  1  0.00261649  0.98932919  0.01051715  1
  Mn  Mn7  1  0.79562299  0.01679049  0.61737403  1
  Mn  Mn8  1  0.19348867  0.98806534  0.36571513  1
  Mn  Mn9  1  0.48379470  0.47198760  0.98342359  1
  Sb  Sb10  1  0.88987071  0.98423500  0.44842182  1
  Sb  Sb11  1  0.10986676  0.98118437  0.54560519  1
  Sb  Sb12  1  0.03501263  0.53250244  0.82083911  1
  Sb  Sb13  1  0.96676395  0.49754127  0.18879077  1
  Sb  Sb14  1  0.39422073  0.50028253  0.44941018  1
  Sb  Sb15  1  0.60934636  0.47885576  0.54709821  1
  Sb  Sb16  1  0.53273747  0.97549521  0.80649430  1
  Sb  Sb17  1  0.46481897  0.02296986  0.18754117  1
  S  S18  1  0.93699849  0.01833534  0.80929691  1
  S  S19  1  0.06683111  0.01304306  0.20586335  1
  S  S20  1  0.41711916  0.97151116  0.98574046  1
  S  S21  1  0.58735311  0.03985311  0.01648073  1
  S  S22  1  0.16866848  0.04362613  0.90119952  1
  S  S23  1  0.82665718  0.02396025  0.10494214  1
  S  S24  1  0.08786710  0.49855365  0.64294062  1
  S  S25  1  0.91343621  0.48178416  0.35203796  1
  S  S26  1  0.73782750  0.00163825  0.29861911  1
  S  S27  1  0.25636622  0.01381543  0.70350923  1
  S  S28  1  0.16910281  0.51677615  0.43708219  1
  S  S29  1  0.80922039  0.50408360  0.53839880  1
  S  S30  1  0.43041775  0.46779236  0.79555433  1
  S  S31  1  0.55223906  0.51491670  0.17997283  1
  S  S32  1  0.92289152  0.50364987  0.99479558  1
  S  S33  1  0.08967687  0.49677844  0.02606329  1
  S  S34  1  0.66636722  0.55777730  0.89829648  1
  S  S35  1  0.32913024  0.47340540  0.09428150  1
  S  S36  1  0.58683065  0.99088303  0.64707345  1
  S  S37  1  0.39656857  0.97898875  0.33745756  1
  S  S38  1  0.24692599  0.47686379  0.31698173  1
  S  S39  1  0.75930884  0.53015970  0.68823705  1
  S  S40  1  0.66450635  0.98762372  0.44626071  1
  S  S41  1  0.32950181  0.98229299  0.55471443  1
