# generated using pymatgen
data_Pr2Mn3(SbS3)4
_symmetry_space_group_name_H-M   'P 1'
_cell_length_a   20.02960800
_cell_length_b   3.90410600
_cell_length_c   14.95364829
_cell_angle_alpha   90.00000000
_cell_angle_beta   126.33350609
_cell_angle_gamma   90.00000000
_symmetry_Int_Tables_number   1
_chemical_formula_structural   Pr2Mn3(SbS3)4
_chemical_formula_sum   'Pr4 Mn6 Sb8 S24'
_cell_volume   942.00006694
_cell_formula_units_Z   2
loop_
 _symmetry_equiv_pos_site_id
 _symmetry_equiv_pos_as_xyz
  1  'x, y, z'
loop_
 _atom_site_type_symbol
 _atom_site_label
 _atom_site_symmetry_multiplicity
 _atom_site_fract_x
 _atom_site_fract_y
 _atom_site_fract_z
 _atom_site_occupancy
  Pr  Pr0  1  0.26024437  0.47813138  0.86199742  1
  Pr  Pr1  1  0.73155624  0.53688051  0.12938315  1
  Pr  Pr2  1  0.77613414  0.98214694  0.87559225  1
  Pr  Pr3  1  0.23191696  0.98166882  0.13392837  1
  Mn  Mn4  1  0.28229892  0.58307313  0.57813752  1
  Mn  Mn5  1  0.71237309  0.50742680  0.39773760  1
  Mn  Mn6  1  0.99177624  0.93902994  0.98826033  1
  Mn  Mn7  1  0.78909145  0.04622600  0.58881831  1
  Mn  Mn8  1  0.18301391  0.97760744  0.38575714  1
  Mn  Mn9  1  0.51685264  0.49334306  0.01699715  1
  Sb  Sb10  1  0.89590846  0.99567907  0.45621846  1
  Sb  Sb11  1  0.10635548  0.00091618  0.54181761  1
  Sb  Sb12  1  0.03006847  0.51077986  0.81196021  1
  Sb  Sb13  1  0.97311542  0.45820155  0.19300042  1
  Sb  Sb14  1  0.40928449  0.49016999  0.46596730  1
  Sb  Sb15  1  0.60277090  0.42142304  0.55636801  1
  Sb  Sb16  1  0.52943736  0.00031728  0.81761467  1
  Sb  Sb17  1  0.46572128  0.96411709  0.18499061  1
  S  S18  1  0.93646835  0.97818432  0.79560671  1
  S  S19  1  0.07196962  0.95924298  0.20099219  1
  S  S20  1  0.41638775  0.99097547  0.98807812  1
  S  S21  1  0.58813075  0.99485677  0.02003283  1
  S  S22  1  0.17912080  0.98072116  0.89833665  1
  S  S23  1  0.83032684  0.99323919  0.10198376  1
  S  S24  1  0.11080023  0.48014799  0.65668164  1
  S  S25  1  0.90039816  0.45999031  0.34540794  1
  S  S26  1  0.74104990  0.00435317  0.31768770  1
  S  S27  1  0.26276099  0.95392415  0.68248166  1
  S  S28  1  0.15775436  0.48112151  0.44805183  1
  S  S29  1  0.83699523  0.51357835  0.55456100  1
  S  S30  1  0.44584641  0.45414900  0.83319407  1
  S  S31  1  0.57473315  0.54398700  0.20313561  1
  S  S32  1  0.91303228  0.46684958  0.97846996  1
  S  S33  1  0.07230154  0.45323962  0.00383732  1
  S  S34  1  0.67788806  0.47357169  0.90015869  1
  S  S35  1  0.33703318  0.50377154  0.10174702  1
  S  S36  1  0.59618678  0.95580102  0.66861060  1
  S  S37  1  0.42621331  0.01229449  0.37073104  1
  S  S38  1  0.25250235  0.48215195  0.27725875  1
  S  S39  1  0.77159555  0.46785031  0.69009907  1
  S  S40  1  0.66285458  0.01103785  0.43615632  1
  S  S41  1  0.32399413  0.03392680  0.53041079  1
