# generated using pymatgen
data_Pr2Mn3(SbS3)4
_symmetry_space_group_name_H-M   'P 1'
_cell_length_a   20.02960800
_cell_length_b   3.90410600
_cell_length_c   14.95364829
_cell_angle_alpha   90.00000000
_cell_angle_beta   126.33350609
_cell_angle_gamma   90.00000000
_symmetry_Int_Tables_number   1
_chemical_formula_structural   Pr2Mn3(SbS3)4
_chemical_formula_sum   'Pr4 Mn6 Sb8 S24'
_cell_volume   942.00006694
_cell_formula_units_Z   2
loop_
 _symmetry_equiv_pos_site_id
 _symmetry_equiv_pos_as_xyz
  1  'x, y, z'
loop_
 _atom_site_type_symbol
 _atom_site_label
 _atom_site_symmetry_multiplicity
 _atom_site_fract_x
 _atom_site_fract_y
 _atom_site_fract_z
 _atom_site_occupancy
  Pr  Pr0  1  0.26021595  0.47862572  0.86200590  1
  Pr  Pr1  1  0.73162465  0.53739623  0.12934217  1
  Pr  Pr2  1  0.77612047  0.98259625  0.87559694  1
  Pr  Pr3  1  0.23177395  0.98165820  0.13375468  1
  Mn  Mn4  1  0.28216892  0.58336920  0.57812955  1
  Mn  Mn5  1  0.71268347  0.50733425  0.39830908  1
  Mn  Mn6  1  0.99173216  0.93867612  0.98841961  1
  Mn  Mn7  1  0.78919846  0.04621455  0.58921611  1
  Mn  Mn8  1  0.18270002  0.97842535  0.38550940  1
  Mn  Mn9  1  0.51695240  0.49355521  0.01736532  1
  Sb  Sb10  1  0.89597508  0.99611248  0.45620161  1
  Sb  Sb11  1  0.10640084  0.00151684  0.54187941  1
  Sb  Sb12  1  0.03006620  0.51103512  0.81200378  1
  Sb  Sb13  1  0.97310627  0.45822699  0.19291926  1
  Sb  Sb14  1  0.40905825  0.49084474  0.46590231  1
  Sb  Sb15  1  0.60269375  0.42121964  0.55616174  1
  Sb  Sb16  1  0.52931614  0.99968130  0.81748727  1
  Sb  Sb17  1  0.46572644  0.96491151  0.18504104  1
  S  S18  1  0.93663103  0.97655893  0.79547684  1
  S  S19  1  0.07200205  0.95914216  0.20096822  1
  S  S20  1  0.41627115  0.98960431  0.98763667  1
  S  S21  1  0.58800896  0.99473864  0.02001848  1
  S  S22  1  0.17910677  0.97866164  0.89825338  1
  S  S23  1  0.83022976  0.99372988  0.10202899  1
  S  S24  1  0.11052687  0.48172188  0.65652001  1
  S  S25  1  0.90029187  0.46034472  0.34520790  1
  S  S26  1  0.74126237  0.00471610  0.31791263  1
  S  S27  1  0.26265486  0.95445823  0.68200286  1
  S  S28  1  0.15771969  0.48182512  0.44843728  1
  S  S29  1  0.83675372  0.51416609  0.55435850  1
  S  S30  1  0.44601936  0.45500103  0.83324691  1
  S  S31  1  0.57512070  0.54340049  0.20352101  1
  S  S32  1  0.91309771  0.46575638  0.97865410  1
  S  S33  1  0.07261082  0.45199236  0.00382801  1
  S  S34  1  0.67775451  0.47524615  0.90016600  1
  S  S35  1  0.33710491  0.50301259  0.10189307  1
  S  S36  1  0.59642128  0.95584853  0.66883663  1
  S  S37  1  0.42608717  0.01240988  0.37057989  1
  S  S38  1  0.25185423  0.48217040  0.27666222  1
  S  S39  1  0.77172897  0.46728791  0.69027241  1
  S  S40  1  0.66313233  0.01183953  0.43654434  1
  S  S41  1  0.32395083  0.03521554  0.53060561  1
