# generated using pymatgen
data_Pr2Mn3(SbS3)4
_symmetry_space_group_name_H-M   'P 1'
_cell_length_a   20.02960800
_cell_length_b   3.90410600
_cell_length_c   14.95364829
_cell_angle_alpha   90.00000000
_cell_angle_beta   126.33350609
_cell_angle_gamma   90.00000000
_symmetry_Int_Tables_number   1
_chemical_formula_structural   Pr2Mn3(SbS3)4
_chemical_formula_sum   'Pr4 Mn6 Sb8 S24'
_cell_volume   942.00006694
_cell_formula_units_Z   2
loop_
 _symmetry_equiv_pos_site_id
 _symmetry_equiv_pos_as_xyz
  1  'x, y, z'
loop_
 _atom_site_type_symbol
 _atom_site_label
 _atom_site_symmetry_multiplicity
 _atom_site_fract_x
 _atom_site_fract_y
 _atom_site_fract_z
 _atom_site_occupancy
  Pr  Pr0  1  0.26015186  0.47892715  0.86202591  1
  Pr  Pr1  1  0.73168104  0.53793656  0.12921805  1
  Pr  Pr2  1  0.77607665  0.98277691  0.87555532  1
  Pr  Pr3  1  0.23168183  0.98144909  0.13360355  1
  Mn  Mn4  1  0.28211254  0.58371321  0.57807305  1
  Mn  Mn5  1  0.71290840  0.50733176  0.39885387  1
  Mn  Mn6  1  0.99170986  0.93861685  0.98857593  1
  Mn  Mn7  1  0.78933908  0.04617703  0.58968638  1
  Mn  Mn8  1  0.18231688  0.97895182  0.38527223  1
  Mn  Mn9  1  0.51707470  0.49376921  0.01780562  1
  Sb  Sb10  1  0.89596687  0.99635532  0.45619265  1
  Sb  Sb11  1  0.10642816  0.00219759  0.54200419  1
  Sb  Sb12  1  0.03005414  0.51097095  0.81193410  1
  Sb  Sb13  1  0.97308919  0.45832082  0.19292027  1
  Sb  Sb14  1  0.40874910  0.49129742  0.46583039  1
  Sb  Sb15  1  0.60260048  0.42121180  0.55592555  1
  Sb  Sb16  1  0.52920016  0.99875193  0.81730138  1
  Sb  Sb17  1  0.46573705  0.96561514  0.18512142  1
  S  S18  1  0.93672598  0.97452811  0.79530242  1
  S  S19  1  0.07229063  0.95962481  0.20145838  1
  S  S20  1  0.41612755  0.98787549  0.98705357  1
  S  S21  1  0.58792753  0.99386597  0.02019720  1
  S  S22  1  0.17902526  0.97630576  0.89811426  1
  S  S23  1  0.83000206  0.99414094  0.10211650  1
  S  S24  1  0.11020107  0.48283299  0.65633657  1
  S  S25  1  0.90022138  0.46060097  0.34498322  1
  S  S26  1  0.74146360  0.00498050  0.31810439  1
  S  S27  1  0.26273233  0.95489758  0.68190723  1
  S  S28  1  0.15784297  0.48326178  0.44897820  1
  S  S29  1  0.83660044  0.51508547  0.55417804  1
  S  S30  1  0.44604722  0.45606510  0.83308660  1
  S  S31  1  0.57535535  0.54205095  0.20380453  1
  S  S32  1  0.91305015  0.46479683  0.97881348  1
  S  S33  1  0.07293371  0.45070215  0.00396041  1
  S  S34  1  0.67776147  0.47634906  0.90033713  1
  S  S35  1  0.33720305  0.50275718  0.10212789  1
  S  S36  1  0.59652641  0.95637965  0.66886075  1
  S  S37  1  0.42583896  0.01244079  0.37033501  1
  S  S38  1  0.25126118  0.48277044  0.27624908  1
  S  S39  1  0.77178167  0.46671155  0.69032017  1
  S  S40  1  0.66323893  0.01261970  0.43675491  1
  S  S41  1  0.32395140  0.03682233  0.53077579  1
