# generated using pymatgen
data_Pr2Mn3(SbS3)4
_symmetry_space_group_name_H-M   'P 1'
_cell_length_a   20.02960800
_cell_length_b   3.90410600
_cell_length_c   14.95364829
_cell_angle_alpha   90.00000000
_cell_angle_beta   126.33350609
_cell_angle_gamma   90.00000000
_symmetry_Int_Tables_number   1
_chemical_formula_structural   Pr2Mn3(SbS3)4
_chemical_formula_sum   'Pr4 Mn6 Sb8 S24'
_cell_volume   942.00006694
_cell_formula_units_Z   2
loop_
 _symmetry_equiv_pos_site_id
 _symmetry_equiv_pos_as_xyz
  1  'x, y, z'
loop_
 _atom_site_type_symbol
 _atom_site_label
 _atom_site_symmetry_multiplicity
 _atom_site_fract_x
 _atom_site_fract_y
 _atom_site_fract_z
 _atom_site_occupancy
  Pr  Pr0  1  0.26003936  0.47875797  0.86201578  1
  Pr  Pr1  1  0.73183563  0.53850437  0.12910863  1
  Pr  Pr2  1  0.77602119  0.98320726  0.87556658  1
  Pr  Pr3  1  0.23157721  0.98148853  0.13350388  1
  Mn  Mn4  1  0.28210059  0.58391179  0.57809485  1
  Mn  Mn5  1  0.71316312  0.50763436  0.39939209  1
  Mn  Mn6  1  0.99171162  0.93862862  0.98872346  1
  Mn  Mn7  1  0.78949995  0.04624536  0.59016235  1
  Mn  Mn8  1  0.18199178  0.97919900  0.38509605  1
  Mn  Mn9  1  0.51718503  0.49405425  0.01821248  1
  Sb  Sb10  1  0.89597171  0.99690953  0.45610424  1
  Sb  Sb11  1  0.10647672  0.00254708  0.54212564  1
  Sb  Sb12  1  0.03000718  0.51108160  0.81181491  1
  Sb  Sb13  1  0.97302634  0.45852896  0.19290451  1
  Sb  Sb14  1  0.40847932  0.49161359  0.46578051  1
  Sb  Sb15  1  0.60247902  0.42126008  0.55568996  1
  Sb  Sb16  1  0.52911118  0.99808502  0.81713167  1
  Sb  Sb17  1  0.46580198  0.96657476  0.18526228  1
  S  S18  1  0.93684313  0.97232521  0.79526062  1
  S  S19  1  0.07241095  0.96045343  0.20189537  1
  S  S20  1  0.41612214  0.98679050  0.98653100  1
  S  S21  1  0.58795418  0.99243799  0.02043185  1
  S  S22  1  0.17905126  0.97416411  0.89814475  1
  S  S23  1  0.82970191  0.99451740  0.10212495  1
  S  S24  1  0.10989434  0.48329737  0.65609746  1
  S  S25  1  0.90014245  0.46121840  0.34476775  1
  S  S26  1  0.74166440  0.00541881  0.31824936  1
  S  S27  1  0.26292962  0.95529998  0.68192717  1
  S  S28  1  0.15790692  0.48490351  0.44944618  1
  S  S29  1  0.83632609  0.51579058  0.55390045  1
  S  S30  1  0.44599180  0.45686244  0.83270783  1
  S  S31  1  0.57566576  0.54110416  0.20416943  1
  S  S32  1  0.91290860  0.46342999  0.97889825  1
  S  S33  1  0.07327537  0.44922201  0.00420042  1
  S  S34  1  0.67776788  0.47697637  0.90050314  1
  S  S35  1  0.33732613  0.50186268  0.10238394  1
  S  S36  1  0.59662611  0.95682327  0.66887110  1
  S  S37  1  0.42552400  0.01205109  0.36996720  1
  S  S38  1  0.25075826  0.48211255  0.27582487  1
  S  S39  1  0.77179623  0.46601026  0.69035494  1
  S  S40  1  0.66317503  0.01307161  0.43693735  1
  S  S41  1  0.32391050  0.03825392  0.53098892  1
