# generated using pymatgen
data_Pr2Mn3(SbS3)4
_symmetry_space_group_name_H-M   'P 1'
_cell_length_a   20.02960800
_cell_length_b   3.90410600
_cell_length_c   14.95364829
_cell_angle_alpha   90.00000000
_cell_angle_beta   126.33350609
_cell_angle_gamma   90.00000000
_symmetry_Int_Tables_number   1
_chemical_formula_structural   Pr2Mn3(SbS3)4
_chemical_formula_sum   'Pr4 Mn6 Sb8 S24'
_cell_volume   942.00006694
_cell_formula_units_Z   2
loop_
 _symmetry_equiv_pos_site_id
 _symmetry_equiv_pos_as_xyz
  1  'x, y, z'
loop_
 _atom_site_type_symbol
 _atom_site_label
 _atom_site_symmetry_multiplicity
 _atom_site_fract_x
 _atom_site_fract_y
 _atom_site_fract_z
 _atom_site_occupancy
  Pr  Pr0  1  0.25999197  0.47853709  0.86209338  1
  Pr  Pr1  1  0.73199579  0.53919654  0.12901508  1
  Pr  Pr2  1  0.77589358  0.98369014  0.87545829  1
  Pr  Pr3  1  0.23143714  0.98164144  0.13339204  1
  Mn  Mn4  1  0.28205024  0.58409554  0.57816295  1
  Mn  Mn5  1  0.71343823  0.50783818  0.39995535  1
  Mn  Mn6  1  0.99181765  0.93882518  0.98903104  1
  Mn  Mn7  1  0.78965400  0.04625972  0.59062634  1
  Mn  Mn8  1  0.18174425  0.97918377  0.38478366  1
  Mn  Mn9  1  0.51728992  0.49443199  0.01856934  1
  Sb  Sb10  1  0.89592221  0.99773323  0.45599272  1
  Sb  Sb11  1  0.10651565  0.00320548  0.54220075  1
  Sb  Sb12  1  0.02993918  0.51153690  0.81168632  1
  Sb  Sb13  1  0.97297790  0.45864347  0.19290869  1
  Sb  Sb14  1  0.40826784  0.49185013  0.46582031  1
  Sb  Sb15  1  0.60237849  0.42135806  0.55547271  1
  Sb  Sb16  1  0.52900316  0.99765084  0.81693925  1
  Sb  Sb17  1  0.46583621  0.96732527  0.18540234  1
  S  S18  1  0.93700188  0.97021256  0.79548051  1
  S  S19  1  0.07243244  0.96135015  0.20228664  1
  S  S20  1  0.41621631  0.98604766  0.98600778  1
  S  S21  1  0.58800478  0.99068104  0.02074121  1
  S  S22  1  0.17902969  0.97140095  0.89808053  1
  S  S23  1  0.82961183  0.99492286  0.10219747  1
  S  S24  1  0.10973324  0.48359990  0.65604025  1
  S  S25  1  0.90020708  0.46229124  0.34459450  1
  S  S26  1  0.74164419  0.00549968  0.31812666  1
  S  S27  1  0.26322451  0.95554638  0.68201820  1
  S  S28  1  0.15791370  0.48665261  0.44971178  1
  S  S29  1  0.83606093  0.51665733  0.55359295  1
  S  S30  1  0.44597541  0.45824680  0.83243659  1
  S  S31  1  0.57588651  0.54027883  0.20456041  1
  S  S32  1  0.91278886  0.46205337  0.97904734  1
  S  S33  1  0.07356954  0.44785249  0.00434766  1
  S  S34  1  0.67781574  0.47822580  0.90058538  1
  S  S35  1  0.33734621  0.50031901  0.10268767  1
  S  S36  1  0.59667117  0.95657268  0.66880769  1
  S  S37  1  0.42526654  0.01145922  0.36948822  1
  S  S38  1  0.25044739  0.48172871  0.27565640  1
  S  S39  1  0.77186042  0.46554465  0.69053885  1
  S  S40  1  0.66323837  0.01263282  0.43720561  1
  S  S41  1  0.32384594  0.03986992  0.53113854  1
