# generated using pymatgen
data_Pr2Mn3(SbS3)4
_symmetry_space_group_name_H-M   'P 1'
_cell_length_a   20.02960800
_cell_length_b   3.90410600
_cell_length_c   14.95364829
_cell_angle_alpha   90.00000000
_cell_angle_beta   126.33350609
_cell_angle_gamma   90.00000000
_symmetry_Int_Tables_number   1
_chemical_formula_structural   Pr2Mn3(SbS3)4
_chemical_formula_sum   'Pr4 Mn6 Sb8 S24'
_cell_volume   942.00006694
_cell_formula_units_Z   2
loop_
 _symmetry_equiv_pos_site_id
 _symmetry_equiv_pos_as_xyz
  1  'x, y, z'
loop_
 _atom_site_type_symbol
 _atom_site_label
 _atom_site_symmetry_multiplicity
 _atom_site_fract_x
 _atom_site_fract_y
 _atom_site_fract_z
 _atom_site_occupancy
  Pr  Pr0  1  0.25991189  0.47817180  0.86221898  1
  Pr  Pr1  1  0.73218301  0.53986450  0.12902689  1
  Pr  Pr2  1  0.77578561  0.98439954  0.87537074  1
  Pr  Pr3  1  0.23125951  0.98142149  0.13323495  1
  Mn  Mn4  1  0.28194351  0.58404804  0.57826233  1
  Mn  Mn5  1  0.71363365  0.50816583  0.40035767  1
  Mn  Mn6  1  0.99195626  0.93901942  0.98942794  1
  Mn  Mn7  1  0.78976533  0.04661921  0.59115089  1
  Mn  Mn8  1  0.18154324  0.97878798  0.38444588  1
  Mn  Mn9  1  0.51738103  0.49444934  0.01885020  1
  Sb  Sb10  1  0.89581898  0.99861213  0.45571076  1
  Sb  Sb11  1  0.10659158  0.00380080  0.54235457  1
  Sb  Sb12  1  0.02985832  0.51195835  0.81154661  1
  Sb  Sb13  1  0.97289271  0.45908896  0.19281691  1
  Sb  Sb14  1  0.40806509  0.49223079  0.46588091  1
  Sb  Sb15  1  0.60230967  0.42142695  0.55527311  1
  Sb  Sb16  1  0.52892269  0.99707988  0.81672557  1
  Sb  Sb17  1  0.46590853  0.96777446  0.18560227  1
  S  S18  1  0.93704465  0.96839254  0.79577748  1
  S  S19  1  0.07251136  0.96191974  0.20281858  1
  S  S20  1  0.41629040  0.98564755  0.98545303  1
  S  S21  1  0.58821880  0.98945925  0.02119103  1
  S  S22  1  0.17905928  0.96911066  0.89798982  1
  S  S23  1  0.82950996  0.99515166  0.10232584  1
  S  S24  1  0.10958683  0.48356219  0.65593544  1
  S  S25  1  0.90024488  0.46307511  0.34443242  1
  S  S26  1  0.74171781  0.00523173  0.31795144  1
  S  S27  1  0.26361836  0.95591450  0.68231313  1
  S  S28  1  0.15791774  0.48814958  0.44997392  1
  S  S29  1  0.83571172  0.51668478  0.55328377  1
  S  S30  1  0.44615270  0.45951947  0.83233996  1
  S  S31  1  0.57625384  0.54016569  0.20513492  1
  S  S32  1  0.91263584  0.46104797  0.97924300  1
  S  S33  1  0.07378961  0.44622240  0.00439735  1
  S  S34  1  0.67797947  0.47919949  0.90076292  1
  S  S35  1  0.33739661  0.49954707  0.10304211  1
  S  S36  1  0.59661651  0.95656790  0.66859091  1
  S  S37  1  0.42479338  0.01102476  0.36883002  1
  S  S38  1  0.25024794  0.48114293  0.27554882  1
  S  S39  1  0.77188250  0.46427389  0.69066654  1
  S  S40  1  0.66318503  0.01267235  0.43739606  1
  S  S41  1  0.32355360  0.04161874  0.53098255  1
