# generated using pymatgen
data_Pr2Mn3(SbS3)4
_symmetry_space_group_name_H-M   'P 1'
_cell_length_a   20.02960800
_cell_length_b   3.90410600
_cell_length_c   14.95364829
_cell_angle_alpha   90.00000000
_cell_angle_beta   126.33350609
_cell_angle_gamma   90.00000000
_symmetry_Int_Tables_number   1
_chemical_formula_structural   Pr2Mn3(SbS3)4
_chemical_formula_sum   'Pr4 Mn6 Sb8 S24'
_cell_volume   942.00006694
_cell_formula_units_Z   2
loop_
 _symmetry_equiv_pos_site_id
 _symmetry_equiv_pos_as_xyz
  1  'x, y, z'
loop_
 _atom_site_type_symbol
 _atom_site_label
 _atom_site_symmetry_multiplicity
 _atom_site_fract_x
 _atom_site_fract_y
 _atom_site_fract_z
 _atom_site_occupancy
  Pr  Pr0  1  0.25975461  0.47795542  0.86230812  1
  Pr  Pr1  1  0.73231895  0.54012002  0.12906689  1
  Pr  Pr2  1  0.77562997  0.98499265  0.87527722  1
  Pr  Pr3  1  0.23114730  0.98135646  0.13313317  1
  Mn  Mn4  1  0.28173729  0.58407666  0.57809044  1
  Mn  Mn5  1  0.71376896  0.50824096  0.40067247  1
  Mn  Mn6  1  0.99217319  0.93928322  0.98990830  1
  Mn  Mn7  1  0.78992423  0.04707521  0.59167820  1
  Mn  Mn8  1  0.18140342  0.97850285  0.38427320  1
  Mn  Mn9  1  0.51740779  0.49465822  0.01903770  1
  Sb  Sb10  1  0.89564999  0.99927969  0.45530303  1
  Sb  Sb11  1  0.10666333  0.00416502  0.54247598  1
  Sb  Sb12  1  0.02984796  0.51261523  0.81153402  1
  Sb  Sb13  1  0.97278797  0.45929662  0.19284707  1
  Sb  Sb14  1  0.40792515  0.49267454  0.46591991  1
  Sb  Sb15  1  0.60228540  0.42190145  0.55512432  1
  Sb  Sb16  1  0.52885126  0.99662132  0.81650458  1
  Sb  Sb17  1  0.46586955  0.96837844  0.18572772  1
  S  S18  1  0.93721539  0.96643848  0.79618902  1
  S  S19  1  0.07243622  0.96099057  0.20338366  1
  S  S20  1  0.41625857  0.98543971  0.98485237  1
  S  S21  1  0.58850341  0.98871518  0.02166887  1
  S  S22  1  0.17902984  0.96764891  0.89762376  1
  S  S23  1  0.82942633  0.99485298  0.10260617  1
  S  S24  1  0.10937450  0.48414841  0.65574698  1
  S  S25  1  0.90039162  0.46318183  0.34439366  1
  S  S26  1  0.74191341  0.00462710  0.31800712  1
  S  S27  1  0.26394433  0.95731436  0.68257972  1
  S  S28  1  0.15787600  0.48936741  0.45023400  1
  S  S29  1  0.83537926  0.51637421  0.55285882  1
  S  S30  1  0.44637940  0.46112747  0.83215777  1
  S  S31  1  0.57645646  0.54033160  0.20547448  1
  S  S32  1  0.91249146  0.45965428  0.97934041  1
  S  S33  1  0.07374752  0.44513318  0.00417892  1
  S  S34  1  0.67822072  0.48096509  0.90109096  1
  S  S35  1  0.33749213  0.49932929  0.10321607  1
  S  S36  1  0.59668642  0.95645699  0.66853039  1
  S  S37  1  0.42428846  0.01100098  0.36801168  1
  S  S38  1  0.25028406  0.48109567  0.27563325  1
  S  S39  1  0.77171246  0.46293080  0.69065531  1
  S  S40  1  0.66316499  0.01356689  0.43757769  1
  S  S41  1  0.32322778  0.04326054  0.53078145  1
