# generated using pymatgen
data_Pr2Mn3(SbS3)4
_symmetry_space_group_name_H-M   'P 1'
_cell_length_a   20.02960800
_cell_length_b   3.90410600
_cell_length_c   14.95364829
_cell_angle_alpha   90.00000000
_cell_angle_beta   126.33350609
_cell_angle_gamma   90.00000000
_symmetry_Int_Tables_number   1
_chemical_formula_structural   Pr2Mn3(SbS3)4
_chemical_formula_sum   'Pr4 Mn6 Sb8 S24'
_cell_volume   942.00006694
_cell_formula_units_Z   2
loop_
 _symmetry_equiv_pos_site_id
 _symmetry_equiv_pos_as_xyz
  1  'x, y, z'
loop_
 _atom_site_type_symbol
 _atom_site_label
 _atom_site_symmetry_multiplicity
 _atom_site_fract_x
 _atom_site_fract_y
 _atom_site_fract_z
 _atom_site_occupancy
  Pr  Pr0  1  0.25966662  0.47808241  0.86248009  1
  Pr  Pr1  1  0.73246642  0.54044572  0.12915606  1
  Pr  Pr2  1  0.77544069  0.98557071  0.87517835  1
  Pr  Pr3  1  0.23106522  0.98152399  0.13308097  1
  Mn  Mn4  1  0.28144934  0.58413241  0.57762978  1
  Mn  Mn5  1  0.71384108  0.50825694  0.40097584  1
  Mn  Mn6  1  0.99238043  0.93918610  0.99032051  1
  Mn  Mn7  1  0.79005635  0.04733664  0.59211315  1
  Mn  Mn8  1  0.18129712  0.97859981  0.38404352  1
  Mn  Mn9  1  0.51741275  0.49513587  0.01930431  1
  Sb  Sb10  1  0.89552865  0.99983647  0.45493969  1
  Sb  Sb11  1  0.10670168  0.00475249  0.54257417  1
  Sb  Sb12  1  0.02989645  0.51332614  0.81156103  1
  Sb  Sb13  1  0.97277690  0.45948951  0.19279646  1
  Sb  Sb14  1  0.40775071  0.49328656  0.46607214  1
  Sb  Sb15  1  0.60232332  0.42238457  0.55500853  1
  Sb  Sb16  1  0.52875678  0.99604706  0.81629481  1
  Sb  Sb17  1  0.46582327  0.96876770  0.18578449  1
  S  S18  1  0.93767263  0.96511643  0.79689051  1
  S  S19  1  0.07246901  0.96008064  0.20410568  1
  S  S20  1  0.41624812  0.98493154  0.98425464  1
  S  S21  1  0.58886088  0.98827348  0.02218407  1
  S  S22  1  0.17902039  0.96672098  0.89742472  1
  S  S23  1  0.82941519  0.99480725  0.10286547  1
  S  S24  1  0.10914207  0.48515390  0.65573711  1
  S  S25  1  0.90057868  0.46336338  0.34424648  1
  S  S26  1  0.74221054  0.00378441  0.31806962  1
  S  S27  1  0.26413611  0.95913947  0.68272220  1
  S  S28  1  0.15767130  0.48993569  0.45021306  1
  S  S29  1  0.83516560  0.51625305  0.55255914  1
  S  S30  1  0.44662807  0.46295473  0.83206955  1
  S  S31  1  0.57650720  0.54032754  0.20559379  1
  S  S32  1  0.91248189  0.45918945  0.97946655  1
  S  S33  1  0.07372566  0.44403057  0.00397669  1
  S  S34  1  0.67852486  0.48265625  0.90135583  1
  S  S35  1  0.33775465  0.49935803  0.10352263  1
  S  S36  1  0.59680217  0.95617783  0.66846865  1
  S  S37  1  0.42385910  0.01122166  0.36717197  1
  S  S38  1  0.25031483  0.48151327  0.27591898  1
  S  S39  1  0.77155645  0.46193918  0.69068702  1
  S  S40  1  0.66345250  0.01447618  0.43801330  1
  S  S41  1  0.32278197  0.04480320  0.53045005  1
