# generated using pymatgen
data_Pr2Mn3(SbS3)4
_symmetry_space_group_name_H-M   'P 1'
_cell_length_a   20.02960800
_cell_length_b   3.90410600
_cell_length_c   14.95364829
_cell_angle_alpha   90.00000000
_cell_angle_beta   126.33350609
_cell_angle_gamma   90.00000000
_symmetry_Int_Tables_number   1
_chemical_formula_structural   Pr2Mn3(SbS3)4
_chemical_formula_sum   'Pr4 Mn6 Sb8 S24'
_cell_volume   942.00006694
_cell_formula_units_Z   2
loop_
 _symmetry_equiv_pos_site_id
 _symmetry_equiv_pos_as_xyz
  1  'x, y, z'
loop_
 _atom_site_type_symbol
 _atom_site_label
 _atom_site_symmetry_multiplicity
 _atom_site_fract_x
 _atom_site_fract_y
 _atom_site_fract_z
 _atom_site_occupancy
  Pr  Pr0  1  0.25960874  0.47836762  0.86264895  1
  Pr  Pr1  1  0.73255432  0.54056244  0.12925415  1
  Pr  Pr2  1  0.77526131  0.98591104  0.87501067  1
  Pr  Pr3  1  0.23094660  0.98146805  0.13304711  1
  Mn  Mn4  1  0.28127527  0.58393353  0.57724567  1
  Mn  Mn5  1  0.71393643  0.50740148  0.40131523  1
  Mn  Mn6  1  0.99265604  0.93901851  0.99085895  1
  Mn  Mn7  1  0.79010652  0.04750894  0.59238072  1
  Mn  Mn8  1  0.18121525  0.97799007  0.38391035  1
  Mn  Mn9  1  0.51732588  0.49521295  0.01950692  1
  Sb  Sb10  1  0.89545316  0.00062482  0.45461878  1
  Sb  Sb11  1  0.10677074  0.00555551  0.54268517  1
  Sb  Sb12  1  0.02991620  0.51396467  0.81154346  1
  Sb  Sb13  1  0.97276923  0.45959521  0.19280485  1
  Sb  Sb14  1  0.40761631  0.49393845  0.46623118  1
  Sb  Sb15  1  0.60236912  0.42269570  0.55486629  1
  Sb  Sb16  1  0.52863887  0.99577433  0.81601188  1
  Sb  Sb17  1  0.46584941  0.96914416  0.18600950  1
  S  S18  1  0.93814796  0.96391209  0.79783926  1
  S  S19  1  0.07237400  0.95920587  0.20469265  1
  S  S20  1  0.41614084  0.98407039  0.98354294  1
  S  S21  1  0.58930746  0.98756654  0.02264020  1
  S  S22  1  0.17912923  0.96563239  0.89743612  1
  S  S23  1  0.82953665  0.99443334  0.10321069  1
  S  S24  1  0.10889455  0.48640139  0.65572039  1
  S  S25  1  0.90077299  0.46415349  0.34418525  1
  S  S26  1  0.74244498  0.00276645  0.31799854  1
  S  S27  1  0.26422181  0.96147930  0.68289103  1
  S  S28  1  0.15728600  0.49032164  0.45021824  1
  S  S29  1  0.83497585  0.51605670  0.55241296  1
  S  S30  1  0.44683663  0.46492986  0.83190386  1
  S  S31  1  0.57662231  0.53935201  0.20574216  1
  S  S32  1  0.91253058  0.45844486  0.97965724  1
  S  S33  1  0.07381511  0.44327636  0.00382723  1
  S  S34  1  0.67870118  0.48414206  0.90148004  1
  S  S35  1  0.33789433  0.49938885  0.10383851  1
  S  S36  1  0.59695256  0.95656147  0.66828373  1
  S  S37  1  0.42358439  0.01187134  0.36672904  1
  S  S38  1  0.25039184  0.48144510  0.27607613  1
  S  S39  1  0.77143001  0.46088601  0.69079148  1
  S  S40  1  0.66373289  0.01510265  0.43852607  1
  S  S41  1  0.32228767  0.04702972  0.53006314  1
