# generated using pymatgen
data_Pr2Mn3(SbS3)4
_symmetry_space_group_name_H-M   'P 1'
_cell_length_a   20.02960800
_cell_length_b   3.90410600
_cell_length_c   14.95364829
_cell_angle_alpha   90.00000000
_cell_angle_beta   126.33350609
_cell_angle_gamma   90.00000000
_symmetry_Int_Tables_number   1
_chemical_formula_structural   Pr2Mn3(SbS3)4
_chemical_formula_sum   'Pr4 Mn6 Sb8 S24'
_cell_volume   942.00006694
_cell_formula_units_Z   2
loop_
 _symmetry_equiv_pos_site_id
 _symmetry_equiv_pos_as_xyz
  1  'x, y, z'
loop_
 _atom_site_type_symbol
 _atom_site_label
 _atom_site_symmetry_multiplicity
 _atom_site_fract_x
 _atom_site_fract_y
 _atom_site_fract_z
 _atom_site_occupancy
  Pr  Pr0  1  0.25949071  0.47870773  0.86281532  1
  Pr  Pr1  1  0.73269355  0.54078580  0.12951246  1
  Pr  Pr2  1  0.77504621  0.98600797  0.87480663  1
  Pr  Pr3  1  0.23079201  0.98137391  0.13303301  1
  Mn  Mn4  1  0.28111181  0.58382911  0.57690590  1
  Mn  Mn5  1  0.71397972  0.50643291  0.40159781  1
  Mn  Mn6  1  0.99295436  0.93888102  0.99137618  1
  Mn  Mn7  1  0.79008068  0.04797269  0.59263371  1
  Mn  Mn8  1  0.18114026  0.97718378  0.38388583  1
  Mn  Mn9  1  0.51743456  0.49537330  0.01982343  1
  Sb  Sb10  1  0.89545515  0.00097776  0.45435678  1
  Sb  Sb11  1  0.10682305  0.00593583  0.54276500  1
  Sb  Sb12  1  0.02989380  0.51443823  0.81142586  1
  Sb  Sb13  1  0.97280184  0.45946354  0.19278357  1
  Sb  Sb14  1  0.40745384  0.49482416  0.46632306  1
  Sb  Sb15  1  0.60242059  0.42300639  0.55474336  1
  Sb  Sb16  1  0.52848705  0.99569943  0.81564466  1
  Sb  Sb17  1  0.46595018  0.96965316  0.18624730  1
  S  S18  1  0.93853189  0.96295766  0.79897730  1
  S  S19  1  0.07214232  0.95881503  0.20514245  1
  S  S20  1  0.41608376  0.98253308  0.98300515  1
  S  S21  1  0.58970498  0.98735720  0.02304304  1
  S  S22  1  0.17933205  0.96555522  0.89742764  1
  S  S23  1  0.82972825  0.99443323  0.10353597  1
  S  S24  1  0.10870258  0.48764332  0.65570780  1
  S  S25  1  0.90091931  0.46519838  0.34408636  1
  S  S26  1  0.74271312  0.00192274  0.31796315  1
  S  S27  1  0.26419653  0.96425078  0.68287745  1
  S  S28  1  0.15704134  0.49054542  0.45022642  1
  S  S29  1  0.83473749  0.51643319  0.55240459  1
  S  S30  1  0.44693741  0.46693926  0.83153051  1
  S  S31  1  0.57668024  0.53820553  0.20588092  1
  S  S32  1  0.91258004  0.45763143  0.97992580  1
  S  S33  1  0.07401168  0.44230168  0.00381008  1
  S  S34  1  0.67889548  0.48522007  0.90159851  1
  S  S35  1  0.33801153  0.49925617  0.10411981  1
  S  S36  1  0.59725888  0.95608207  0.66829967  1
  S  S37  1  0.42325012  0.01244370  0.36626097  1
  S  S38  1  0.25041212  0.48132642  0.27612442  1
  S  S39  1  0.77114233  0.45944137  0.69081862  1
  S  S40  1  0.66397057  0.01524658  0.43895079  1
  S  S41  1  0.32188815  0.04922736  0.53009947  1
