# generated using pymatgen
data_Pr2Mn3(SbS3)4
_symmetry_space_group_name_H-M   'P 1'
_cell_length_a   20.02960800
_cell_length_b   3.90410600
_cell_length_c   14.95364829
_cell_angle_alpha   90.00000000
_cell_angle_beta   126.33350609
_cell_angle_gamma   90.00000000
_symmetry_Int_Tables_number   1
_chemical_formula_structural   Pr2Mn3(SbS3)4
_chemical_formula_sum   'Pr4 Mn6 Sb8 S24'
_cell_volume   942.00006694
_cell_formula_units_Z   2
loop_
 _symmetry_equiv_pos_site_id
 _symmetry_equiv_pos_as_xyz
  1  'x, y, z'
loop_
 _atom_site_type_symbol
 _atom_site_label
 _atom_site_symmetry_multiplicity
 _atom_site_fract_x
 _atom_site_fract_y
 _atom_site_fract_z
 _atom_site_occupancy
  Pr  Pr0  1  0.26965167  0.50263104  0.86774187  1
  Pr  Pr1  1  0.73319815  0.51352133  0.13321744  1
  Pr  Pr2  1  0.76533183  0.02934137  0.86701651  1
  Pr  Pr3  1  0.23208946  0.99048301  0.13140200  1
  Mn  Mn4  1  0.30091786  0.47139479  0.60653292  1
  Mn  Mn5  1  0.68554697  0.46532447  0.36218838  1
  Mn  Mn6  1  0.00257622  0.98945342  0.01051856  1
  Mn  Mn7  1  0.79549953  0.01705813  0.61710769  1
  Mn  Mn8  1  0.19340782  0.98917327  0.36560953  1
  Mn  Mn9  1  0.48356997  0.47253044  0.98313278  1
  Sb  Sb10  1  0.88985938  0.98454818  0.44834073  1
  Sb  Sb11  1  0.10984377  0.98107115  0.54557679  1
  Sb  Sb12  1  0.03487838  0.53242451  0.82086416  1
  Sb  Sb13  1  0.96672533  0.49751754  0.18880290  1
  Sb  Sb14  1  0.39431676  0.50022906  0.44938505  1
  Sb  Sb15  1  0.60952494  0.47879721  0.54714698  1
  Sb  Sb16  1  0.53268028  0.97535064  0.80649923  1
  Sb  Sb17  1  0.46476131  0.02308300  0.18742273  1
  S  S18  1  0.93713244  0.01877412  0.80927401  1
  S  S19  1  0.06710726  0.01221756  0.20642692  1
  S  S20  1  0.41721471  0.97140146  0.98536868  1
  S  S21  1  0.58744124  0.03964601  0.01639657  1
  S  S22  1  0.16811962  0.04271889  0.90099085  1
  S  S23  1  0.82665860  0.02179438  0.10509170  1
  S  S24  1  0.08755896  0.49821923  0.64279901  1
  S  S25  1  0.91345781  0.48142142  0.35177332  1
  S  S26  1  0.73748424  0.00292797  0.29806888  1
  S  S27  1  0.25647577  0.01456708  0.70358358  1
  S  S28  1  0.16917647  0.51606444  0.43731761  1
  S  S29  1  0.80916070  0.50436688  0.53827597  1
  S  S30  1  0.43038383  0.46887005  0.79565592  1
  S  S31  1  0.55214873  0.51417628  0.17961726  1
  S  S32  1  0.92303212  0.50351495  0.99471041  1
  S  S33  1  0.08985456  0.49737371  0.02618206  1
  S  S34  1  0.66651517  0.55754397  0.89854645  1
  S  S35  1  0.32909110  0.47243959  0.09428417  1
  S  S36  1  0.58678232  0.99135352  0.64696221  1
  S  S37  1  0.39627557  0.97872534  0.33689155  1
  S  S38  1  0.24689900  0.47710343  0.31670449  1
  S  S39  1  0.75948239  0.53011466  0.68844144  1
  S  S40  1  0.66429572  0.98630603  0.44587416  1
  S  S41  1  0.32920132  0.98136626  0.55433338  1
