# generated using pymatgen
data_Pr2Mn3(SbS3)4
_symmetry_space_group_name_H-M   'P 1'
_cell_length_a   20.02960800
_cell_length_b   3.90410600
_cell_length_c   14.95364829
_cell_angle_alpha   90.00000000
_cell_angle_beta   126.33350609
_cell_angle_gamma   90.00000000
_symmetry_Int_Tables_number   1
_chemical_formula_structural   Pr2Mn3(SbS3)4
_chemical_formula_sum   'Pr4 Mn6 Sb8 S24'
_cell_volume   942.00006694
_cell_formula_units_Z   2
loop_
 _symmetry_equiv_pos_site_id
 _symmetry_equiv_pos_as_xyz
  1  'x, y, z'
loop_
 _atom_site_type_symbol
 _atom_site_label
 _atom_site_symmetry_multiplicity
 _atom_site_fract_x
 _atom_site_fract_y
 _atom_site_fract_z
 _atom_site_occupancy
  Pr  Pr0  1  0.25932398  0.47888387  0.86293799  1
  Pr  Pr1  1  0.73278230  0.54096061  0.12972083  1
  Pr  Pr2  1  0.77482158  0.98644893  0.87453704  1
  Pr  Pr3  1  0.23063164  0.98112528  0.13306448  1
  Mn  Mn4  1  0.28103546  0.58388203  0.57670617  1
  Mn  Mn5  1  0.71394171  0.50570984  0.40182425  1
  Mn  Mn6  1  0.99325004  0.93968952  0.99164454  1
  Mn  Mn7  1  0.79004701  0.04846831  0.59275611  1
  Mn  Mn8  1  0.18117978  0.97679955  0.38392596  1
  Mn  Mn9  1  0.51755525  0.49586730  0.02014105  1
  Sb  Sb10  1  0.89539460  0.00118095  0.45412013  1
  Sb  Sb11  1  0.10680426  0.00618382  0.54268030  1
  Sb  Sb12  1  0.02989712  0.51500267  0.81128936  1
  Sb  Sb13  1  0.97286856  0.45931226  0.19281132  1
  Sb  Sb14  1  0.40722432  0.49600767  0.46638032  1
  Sb  Sb15  1  0.60246709  0.42273360  0.55467385  1
  Sb  Sb16  1  0.52831279  0.99554864  0.81523965  1
  Sb  Sb17  1  0.46599311  0.97020178  0.18636728  1
  S  S18  1  0.93891490  0.96255271  0.80023697  1
  S  S19  1  0.07179825  0.95874160  0.20555798  1
  S  S20  1  0.41606571  0.98142782  0.98243606  1
  S  S21  1  0.59003319  0.98656270  0.02338226  1
  S  S22  1  0.17955766  0.96576728  0.89757494  1
  S  S23  1  0.83004523  0.99437592  0.10369945  1
  S  S24  1  0.10848729  0.48903419  0.65570998  1
  S  S25  1  0.90093061  0.46599750  0.34404999  1
  S  S26  1  0.74294546  0.00130116  0.31812959  1
  S  S27  1  0.26419221  0.96703251  0.68288862  1
  S  S28  1  0.15673518  0.49058270  0.45003641  1
  S  S29  1  0.83455908  0.51573876  0.55260302  1
  S  S30  1  0.44707540  0.46853893  0.83120481  1
  S  S31  1  0.57680938  0.53673039  0.20603147  1
  S  S32  1  0.91269453  0.45683814  0.98042545  1
  S  S33  1  0.07415591  0.44133555  0.00383316  1
  S  S34  1  0.67898362  0.48658437  0.90150036  1
  S  S35  1  0.33804670  0.49924768  0.10419737  1
  S  S36  1  0.59773594  0.95572386  0.66841985  1
  S  S37  1  0.42293196  0.01335957  0.36587822  1
  S  S38  1  0.25039472  0.48100485  0.27627454  1
  S  S39  1  0.77089952  0.45865197  0.69076851  1
  S  S40  1  0.66427739  0.01532589  0.43950409  1
  S  S41  1  0.32142783  0.05106570  0.53004917  1
