# generated using pymatgen
data_Pr2Mn3(SbS3)4
_symmetry_space_group_name_H-M   'P 1'
_cell_length_a   20.02960800
_cell_length_b   3.90410600
_cell_length_c   14.95364829
_cell_angle_alpha   90.00000000
_cell_angle_beta   126.33350609
_cell_angle_gamma   90.00000000
_symmetry_Int_Tables_number   1
_chemical_formula_structural   Pr2Mn3(SbS3)4
_chemical_formula_sum   'Pr4 Mn6 Sb8 S24'
_cell_volume   942.00006694
_cell_formula_units_Z   2
loop_
 _symmetry_equiv_pos_site_id
 _symmetry_equiv_pos_as_xyz
  1  'x, y, z'
loop_
 _atom_site_type_symbol
 _atom_site_label
 _atom_site_symmetry_multiplicity
 _atom_site_fract_x
 _atom_site_fract_y
 _atom_site_fract_z
 _atom_site_occupancy
  Pr  Pr0  1  0.25915379  0.47918204  0.86303169  1
  Pr  Pr1  1  0.73282696  0.54134014  0.12991182  1
  Pr  Pr2  1  0.77462022  0.98654722  0.87438372  1
  Pr  Pr3  1  0.23048794  0.98079086  0.13305044  1
  Mn  Mn4  1  0.28094914  0.58401595  0.57659509  1
  Mn  Mn5  1  0.71400140  0.50461614  0.40214848  1
  Mn  Mn6  1  0.99351522  0.93991297  0.99192921  1
  Mn  Mn7  1  0.78995329  0.04847900  0.59255874  1
  Mn  Mn8  1  0.18114254  0.97681085  0.38402072  1
  Mn  Mn9  1  0.51756222  0.49629594  0.02034925  1
  Sb  Sb10  1  0.89533191  0.00162931  0.45394265  1
  Sb  Sb11  1  0.10683300  0.00623609  0.54267758  1
  Sb  Sb12  1  0.02986764  0.51549958  0.81106553  1
  Sb  Sb13  1  0.97294042  0.45909831  0.19280597  1
  Sb  Sb14  1  0.40700397  0.49692071  0.46645855  1
  Sb  Sb15  1  0.60253524  0.42231671  0.55469987  1
  Sb  Sb16  1  0.52814130  0.99527686  0.81485022  1
  Sb  Sb17  1  0.46609479  0.97131198  0.18646041  1
  S  S18  1  0.93927193  0.96199615  0.80145982  1
  S  S19  1  0.07143173  0.95929958  0.20611517  1
  S  S20  1  0.41607597  0.98045104  0.98190348  1
  S  S21  1  0.59050196  0.98595343  0.02372134  1
  S  S22  1  0.17986610  0.96626320  0.89782509  1
  S  S23  1  0.83027861  0.99427213  0.10363637  1
  S  S24  1  0.10832671  0.49008705  0.65552330  1
  S  S25  1  0.90087250  0.46653496  0.34418385  1
  S  S26  1  0.74309965  0.00015252  0.31817434  1
  S  S27  1  0.26429181  0.96965588  0.68304711  1
  S  S28  1  0.15656924  0.49045633  0.44993153  1
  S  S29  1  0.83422135  0.51563206  0.55271189  1
  S  S30  1  0.44722634  0.47008877  0.83062303  1
  S  S31  1  0.57693639  0.53519311  0.20623875  1
  S  S32  1  0.91253140  0.45607590  0.98065584  1
  S  S33  1  0.07424318  0.44057192  0.00384103  1
  S  S34  1  0.67899855  0.48789408  0.90140297  1
  S  S35  1  0.33822785  0.49947931  0.10434565  1
  S  S36  1  0.59820858  0.95584333  0.66837875  1
  S  S37  1  0.42257188  0.01445146  0.36548299  1
  S  S38  1  0.25053915  0.47974980  0.27642753  1
  S  S39  1  0.77071460  0.45799634  0.69074621  1
  S  S40  1  0.66457777  0.01507847  0.44025618  1
  S  S41  1  0.32099970  0.05340729  0.53010551  1
