# generated using pymatgen
data_Pr2Mn3(SbS3)4
_symmetry_space_group_name_H-M   'P 1'
_cell_length_a   20.02960800
_cell_length_b   3.90410600
_cell_length_c   14.95364829
_cell_angle_alpha   90.00000000
_cell_angle_beta   126.33350609
_cell_angle_gamma   90.00000000
_symmetry_Int_Tables_number   1
_chemical_formula_structural   Pr2Mn3(SbS3)4
_chemical_formula_sum   'Pr4 Mn6 Sb8 S24'
_cell_volume   942.00006694
_cell_formula_units_Z   2
loop_
 _symmetry_equiv_pos_site_id
 _symmetry_equiv_pos_as_xyz
  1  'x, y, z'
loop_
 _atom_site_type_symbol
 _atom_site_label
 _atom_site_symmetry_multiplicity
 _atom_site_fract_x
 _atom_site_fract_y
 _atom_site_fract_z
 _atom_site_occupancy
  Pr  Pr0  1  0.25906047  0.47939484  0.86325148  1
  Pr  Pr1  1  0.73291509  0.54189424  0.13006989  1
  Pr  Pr2  1  0.77445766  0.98656744  0.87423278  1
  Pr  Pr3  1  0.23037544  0.98058790  0.13299342  1
  Mn  Mn4  1  0.28093897  0.58396280  0.57653018  1
  Mn  Mn5  1  0.71402611  0.50346297  0.40250537  1
  Mn  Mn6  1  0.99375265  0.94051003  0.99217930  1
  Mn  Mn7  1  0.78979083  0.04797757  0.59252066  1
  Mn  Mn8  1  0.18117613  0.97683119  0.38434420  1
  Mn  Mn9  1  0.51769947  0.49636685  0.02062859  1
  Sb  Sb10  1  0.89522554  0.00193467  0.45374297  1
  Sb  Sb11  1  0.10684971  0.00614526  0.54268155  1
  Sb  Sb12  1  0.02987114  0.51606265  0.81077982  1
  Sb  Sb13  1  0.97293296  0.45913069  0.19284509  1
  Sb  Sb14  1  0.40680200  0.49766683  0.46649261  1
  Sb  Sb15  1  0.60248388  0.42182014  0.55469237  1
  Sb  Sb16  1  0.52799699  0.99474667  0.81442173  1
  Sb  Sb17  1  0.46626776  0.97226034  0.18664799  1
  S  S18  1  0.93960218  0.96108283  0.80266107  1
  S  S19  1  0.07107735  0.95919945  0.20669283  1
  S  S20  1  0.41596063  0.97982642  0.98127107  1
  S  S21  1  0.59097892  0.98486724  0.02389564  1
  S  S22  1  0.18009590  0.96729452  0.89806642  1
  S  S23  1  0.83046269  0.99418858  0.10354873  1
  S  S24  1  0.10814829  0.49072565  0.65541860  1
  S  S25  1  0.90070200  0.46673202  0.34422472  1
  S  S26  1  0.74316098  0.99893389  0.31826894  1
  S  S27  1  0.26432241  0.97233091  0.68324099  1
  S  S28  1  0.15653833  0.49038546  0.44984966  1
  S  S29  1  0.83380621  0.51564972  0.55276767  1
  S  S30  1  0.44733511  0.47139431  0.82987268  1
  S  S31  1  0.57703797  0.53339557  0.20633525  1
  S  S32  1  0.91235893  0.45481698  0.98080654  1
  S  S33  1  0.07436898  0.43957545  0.00377305  1
  S  S34  1  0.67909209  0.48854920  0.90135215  1
  S  S35  1  0.33838511  0.49967402  0.10450862  1
  S  S36  1  0.59878793  0.95635485  0.66842307  1
  S  S37  1  0.42232324  0.01536706  0.36518492  1
  S  S38  1  0.25081746  0.47764089  0.27685337  1
  S  S39  1  0.77047424  0.45736267  0.69067810  1
  S  S40  1  0.66492255  0.01435057  0.44105762  1
  S  S41  1  0.32058060  0.05601189  0.53014891  1
