# generated using pymatgen
data_Pr2Mn3(SbS3)4
_symmetry_space_group_name_H-M   'P 1'
_cell_length_a   20.02960800
_cell_length_b   3.90410600
_cell_length_c   14.95364829
_cell_angle_alpha   90.00000000
_cell_angle_beta   126.33350609
_cell_angle_gamma   90.00000000
_symmetry_Int_Tables_number   1
_chemical_formula_structural   Pr2Mn3(SbS3)4
_chemical_formula_sum   'Pr4 Mn6 Sb8 S24'
_cell_volume   942.00006694
_cell_formula_units_Z   2
loop_
 _symmetry_equiv_pos_site_id
 _symmetry_equiv_pos_as_xyz
  1  'x, y, z'
loop_
 _atom_site_type_symbol
 _atom_site_label
 _atom_site_symmetry_multiplicity
 _atom_site_fract_x
 _atom_site_fract_y
 _atom_site_fract_z
 _atom_site_occupancy
  Pr  Pr0  1  0.25898146  0.47958316  0.86347131  1
  Pr  Pr1  1  0.73302410  0.54236628  0.13028512  1
  Pr  Pr2  1  0.77429071  0.98661403  0.87401961  1
  Pr  Pr3  1  0.23026506  0.98038510  0.13292840  1
  Mn  Mn4  1  0.28099914  0.58419089  0.57651747  1
  Mn  Mn5  1  0.71404105  0.50274765  0.40283359  1
  Mn  Mn6  1  0.99399181  0.94048781  0.99253370  1
  Mn  Mn7  1  0.78955825  0.04732385  0.59251646  1
  Mn  Mn8  1  0.18115503  0.97685193  0.38465127  1
  Mn  Mn9  1  0.51766171  0.49689591  0.02053828  1
  Sb  Sb10  1  0.89510378  0.00233444  0.45351409  1
  Sb  Sb11  1  0.10680948  0.00623225  0.54266833  1
  Sb  Sb12  1  0.02986211  0.51646374  0.81046430  1
  Sb  Sb13  1  0.97298379  0.45937804  0.19291756  1
  Sb  Sb14  1  0.40663333  0.49873413  0.46652696  1
  Sb  Sb15  1  0.60239134  0.42177103  0.55466880  1
  Sb  Sb16  1  0.52789963  0.99416903  0.81406248  1
  Sb  Sb17  1  0.46637865  0.97307016  0.18666071  1
  S  S18  1  0.93971740  0.96111878  0.80350020  1
  S  S19  1  0.07071407  0.95928065  0.20707644  1
  S  S20  1  0.41583553  0.97861958  0.98078830  1
  S  S21  1  0.59143239  0.98383328  0.02417282  1
  S  S22  1  0.18034625  0.96878045  0.89818534  1
  S  S23  1  0.83058123  0.99448268  0.10362703  1
  S  S24  1  0.10816091  0.49148959  0.65563706  1
  S  S25  1  0.90052515  0.46761335  0.34438091  1
  S  S26  1  0.74322263  0.99822622  0.31835146  1
  S  S27  1  0.26448364  0.97505414  0.68345748  1
  S  S28  1  0.15659440  0.49029632  0.44973439  1
  S  S29  1  0.83355098  0.51564188  0.55292907  1
  S  S30  1  0.44736960  0.47230985  0.82931411  1
  S  S31  1  0.57716292  0.53168731  0.20642473  1
  S  S32  1  0.91225421  0.45325336  0.98090622  1
  S  S33  1  0.07443577  0.43814971  0.00374090  1
  S  S34  1  0.67916137  0.48913759  0.90139407  1
  S  S35  1  0.33829092  0.50014585  0.10440299  1
  S  S36  1  0.59914768  0.95679089  0.66825360  1
  S  S37  1  0.42215201  0.01646458  0.36502614  1
  S  S38  1  0.25121518  0.47563365  0.27739202  1
  S  S39  1  0.77034826  0.45595580  0.69080279  1
  S  S40  1  0.66516797  0.01395616  0.44158533  1
  S  S41  1  0.32016298  0.05769718  0.53025384  1
