# generated using pymatgen
data_Pr2Mn3(SbS3)4
_symmetry_space_group_name_H-M   'P 1'
_cell_length_a   20.02960800
_cell_length_b   3.90410600
_cell_length_c   14.95364829
_cell_angle_alpha   90.00000000
_cell_angle_beta   126.33350609
_cell_angle_gamma   90.00000000
_symmetry_Int_Tables_number   1
_chemical_formula_structural   Pr2Mn3(SbS3)4
_chemical_formula_sum   'Pr4 Mn6 Sb8 S24'
_cell_volume   942.00006694
_cell_formula_units_Z   2
loop_
 _symmetry_equiv_pos_site_id
 _symmetry_equiv_pos_as_xyz
  1  'x, y, z'
loop_
 _atom_site_type_symbol
 _atom_site_label
 _atom_site_symmetry_multiplicity
 _atom_site_fract_x
 _atom_site_fract_y
 _atom_site_fract_z
 _atom_site_occupancy
  Pr  Pr0  1  0.25889196  0.47976816  0.86362343  1
  Pr  Pr1  1  0.73315508  0.54265260  0.13050423  1
  Pr  Pr2  1  0.77412688  0.98670413  0.87376947  1
  Pr  Pr3  1  0.23015967  0.98017218  0.13281441  1
  Mn  Mn4  1  0.28100009  0.58409755  0.57641686  1
  Mn  Mn5  1  0.71404612  0.50208529  0.40321772  1
  Mn  Mn6  1  0.99410594  0.94039984  0.99276462  1
  Mn  Mn7  1  0.78938923  0.04661059  0.59242899  1
  Mn  Mn8  1  0.18115250  0.97615985  0.38507091  1
  Mn  Mn9  1  0.51771147  0.49721270  0.02046187  1
  Sb  Sb10  1  0.89498769  0.00292714  0.45323764  1
  Sb  Sb11  1  0.10680653  0.00636545  0.54269391  1
  Sb  Sb12  1  0.02981531  0.51661953  0.81025530  1
  Sb  Sb13  1  0.97303436  0.45949492  0.19302836  1
  Sb  Sb14  1  0.40653117  0.49959425  0.46663820  1
  Sb  Sb15  1  0.60236990  0.42160124  0.55469833  1
  Sb  Sb16  1  0.52771980  0.99340753  0.81369658  1
  Sb  Sb17  1  0.46640578  0.97378980  0.18656215  1
  S  S18  1  0.93992118  0.96097684  0.80443030  1
  S  S19  1  0.07046688  0.95930796  0.20747314  1
  S  S20  1  0.41565891  0.97764070  0.98031870  1
  S  S21  1  0.59170140  0.98348766  0.02431762  1
  S  S22  1  0.18054467  0.97066403  0.89847326  1
  S  S23  1  0.83092653  0.99524359  0.10378547  1
  S  S24  1  0.10817742  0.49234048  0.65585895  1
  S  S25  1  0.90029925  0.46786455  0.34445539  1
  S  S26  1  0.74328928  0.99752649  0.31849144  1
  S  S27  1  0.26463786  0.97684998  0.68364268  1
  S  S28  1  0.15658545  0.48985641  0.44959499  1
  S  S29  1  0.83337461  0.51641069  0.55279694  1
  S  S30  1  0.44749651  0.47302985  0.82886212  1
  S  S31  1  0.57728943  0.53045378  0.20658145  1
  S  S32  1  0.91224148  0.45127582  0.98095427  1
  S  S33  1  0.07436065  0.43752209  0.00371709  1
  S  S34  1  0.67919867  0.48876422  0.90126475  1
  S  S35  1  0.33827294  0.49986463  0.10424803  1
  S  S36  1  0.59946404  0.95735580  0.66814239  1
  S  S37  1  0.42186892  0.01700851  0.36489966  1
  S  S38  1  0.25167546  0.47447869  0.27799761  1
  S  S39  1  0.77012920  0.45454301  0.69085440  1
  S  S40  1  0.66547147  0.01299647  0.44206640  1
  S  S41  1  0.31982600  0.05891075  0.53032694  1
