# generated using pymatgen
data_Pr2Mn3(SbS3)4
_symmetry_space_group_name_H-M   'P 1'
_cell_length_a   20.02960800
_cell_length_b   3.90410600
_cell_length_c   14.95364829
_cell_angle_alpha   90.00000000
_cell_angle_beta   126.33350609
_cell_angle_gamma   90.00000000
_symmetry_Int_Tables_number   1
_chemical_formula_structural   Pr2Mn3(SbS3)4
_chemical_formula_sum   'Pr4 Mn6 Sb8 S24'
_cell_volume   942.00006694
_cell_formula_units_Z   2
loop_
 _symmetry_equiv_pos_site_id
 _symmetry_equiv_pos_as_xyz
  1  'x, y, z'
loop_
 _atom_site_type_symbol
 _atom_site_label
 _atom_site_symmetry_multiplicity
 _atom_site_fract_x
 _atom_site_fract_y
 _atom_site_fract_z
 _atom_site_occupancy
  Pr  Pr0  1  0.25883512  0.47999988  0.86387738  1
  Pr  Pr1  1  0.73323784  0.54268162  0.13076788  1
  Pr  Pr2  1  0.77393619  0.98691737  0.87341788  1
  Pr  Pr3  1  0.23007455  0.97959152  0.13271936  1
  Mn  Mn4  1  0.28108438  0.58411550  0.57633310  1
  Mn  Mn5  1  0.71399827  0.50150446  0.40345479  1
  Mn  Mn6  1  0.99424742  0.94052971  0.99294399  1
  Mn  Mn7  1  0.78925451  0.04630440  0.59234825  1
  Mn  Mn8  1  0.18116297  0.97596308  0.38544968  1
  Mn  Mn9  1  0.51775044  0.49766029  0.02037484  1
  Sb  Sb10  1  0.89487954  0.00296406  0.45302024  1
  Sb  Sb11  1  0.10675326  0.00621727  0.54269574  1
  Sb  Sb12  1  0.02975508  0.51630361  0.81001789  1
  Sb  Sb13  1  0.97318217  0.45942534  0.19322147  1
  Sb  Sb14  1  0.40648150  0.50022879  0.46681973  1
  Sb  Sb15  1  0.60230014  0.42127083  0.55461498  1
  Sb  Sb16  1  0.52753613  0.99251206  0.81340096  1
  Sb  Sb17  1  0.46636189  0.97431389  0.18628991  1
  S  S18  1  0.94006688  0.96028071  0.80518047  1
  S  S19  1  0.07016994  0.95922681  0.20776585  1
  S  S20  1  0.41570084  0.97737984  0.97989696  1
  S  S21  1  0.59178212  0.98331336  0.02440901  1
  S  S22  1  0.18079340  0.97201083  0.89875013  1
  S  S23  1  0.83128423  0.99583554  0.10393253  1
  S  S24  1  0.10831276  0.49253472  0.65621363  1
  S  S25  1  0.90000402  0.46758299  0.34448342  1
  S  S26  1  0.74325585  0.99708450  0.31857505  1
  S  S27  1  0.26477785  0.97856097  0.68371871  1
  S  S28  1  0.15662028  0.48977333  0.44945051  1
  S  S29  1  0.83324665  0.51753872  0.55283352  1
  S  S30  1  0.44757018  0.47369601  0.82831433  1
  S  S31  1  0.57745062  0.52996211  0.20670000  1
  S  S32  1  0.91236541  0.44939442  0.98108581  1
  S  S33  1  0.07428975  0.43730590  0.00370359  1
  S  S34  1  0.67941500  0.48861691  0.90125380  1
  S  S35  1  0.33819776  0.49985457  0.10412849  1
  S  S36  1  0.59974379  0.95750418  0.66825255  1
  S  S37  1  0.42171460  0.01808204  0.36497053  1
  S  S38  1  0.25208489  0.47416571  0.27849407  1
  S  S39  1  0.76989562  0.45329209  0.69083340  1
  S  S40  1  0.66588230  0.01175478  0.44272087  1
  S  S41  1  0.31962430  0.05970326  0.53045954  1
