# generated using pymatgen
data_Pr2Mn3(SbS3)4
_symmetry_space_group_name_H-M   'P 1'
_cell_length_a   20.02960800
_cell_length_b   3.90410600
_cell_length_c   14.95364829
_cell_angle_alpha   90.00000000
_cell_angle_beta   126.33350609
_cell_angle_gamma   90.00000000
_symmetry_Int_Tables_number   1
_chemical_formula_structural   Pr2Mn3(SbS3)4
_chemical_formula_sum   'Pr4 Mn6 Sb8 S24'
_cell_volume   942.00006694
_cell_formula_units_Z   2
loop_
 _symmetry_equiv_pos_site_id
 _symmetry_equiv_pos_as_xyz
  1  'x, y, z'
loop_
 _atom_site_type_symbol
 _atom_site_label
 _atom_site_symmetry_multiplicity
 _atom_site_fract_x
 _atom_site_fract_y
 _atom_site_fract_z
 _atom_site_occupancy
  Pr  Pr0  1  0.25886295  0.47977835  0.86413741  1
  Pr  Pr1  1  0.73335850  0.54272571  0.13108406  1
  Pr  Pr2  1  0.77381822  0.98704049  0.87314405  1
  Pr  Pr3  1  0.22996044  0.97892103  0.13269274  1
  Mn  Mn4  1  0.28129510  0.58395471  0.57633334  1
  Mn  Mn5  1  0.71387333  0.50050343  0.40378345  1
  Mn  Mn6  1  0.99434512  0.94025031  0.99303381  1
  Mn  Mn7  1  0.78913095  0.04622169  0.59227103  1
  Mn  Mn8  1  0.18114427  0.97626951  0.38577839  1
  Mn  Mn9  1  0.51780815  0.49801872  0.02018429  1
  Sb  Sb10  1  0.89475443  0.00272171  0.45275612  1
  Sb  Sb11  1  0.10664708  0.00591681  0.54255509  1
  Sb  Sb12  1  0.02966504  0.51595190  0.80981258  1
  Sb  Sb13  1  0.97333304  0.45915679  0.19336236  1
  Sb  Sb14  1  0.40640861  0.50083882  0.46696448  1
  Sb  Sb15  1  0.60225081  0.42118264  0.55454064  1
  Sb  Sb16  1  0.52746825  0.99142354  0.81315920  1
  Sb  Sb17  1  0.46626247  0.97466569  0.18595923  1
  S  S18  1  0.94019293  0.95912474  0.80587681  1
  S  S19  1  0.07011145  0.95876319  0.20810048  1
  S  S20  1  0.41581250  0.97744807  0.97946694  1
  S  S21  1  0.59179433  0.98333650  0.02462565  1
  S  S22  1  0.18112314  0.97354218  0.89921217  1
  S  S23  1  0.83158757  0.99622137  0.10405264  1
  S  S24  1  0.10851677  0.49289238  0.65663028  1
  S  S25  1  0.89988969  0.46689140  0.34479193  1
  S  S26  1  0.74317962  0.99640723  0.31853112  1
  S  S27  1  0.26480038  0.98009676  0.68379985  1
  S  S28  1  0.15664309  0.48988544  0.44945684  1
  S  S29  1  0.83311362  0.51863378  0.55271846  1
  S  S30  1  0.44777756  0.47478525  0.82782766  1
  S  S31  1  0.57740823  0.52930544  0.20667760  1
  S  S32  1  0.91260520  0.44752190  0.98117877  1
  S  S33  1  0.07416409  0.43647300  0.00357695  1
  S  S34  1  0.67954175  0.48859979  0.90122979  1
  S  S35  1  0.33821565  0.49962053  0.10411184  1
  S  S36  1  0.59999742  0.95768637  0.66829436  1
  S  S37  1  0.42138986  0.01919771  0.36492367  1
  S  S38  1  0.25255424  0.47416005  0.27890836  1
  S  S39  1  0.76961416  0.45287300  0.69071484  1
  S  S40  1  0.66630723  0.01058087  0.44320525  1
  S  S41  1  0.31964379  0.06025629  0.53047260  1
