# generated using pymatgen
data_Pr2Mn3(SbS3)4
_symmetry_space_group_name_H-M   'P 1'
_cell_length_a   20.02960800
_cell_length_b   3.90410600
_cell_length_c   14.95364829
_cell_angle_alpha   90.00000000
_cell_angle_beta   126.33350609
_cell_angle_gamma   90.00000000
_symmetry_Int_Tables_number   1
_chemical_formula_structural   Pr2Mn3(SbS3)4
_chemical_formula_sum   'Pr4 Mn6 Sb8 S24'
_cell_volume   942.00006694
_cell_formula_units_Z   2
loop_
 _symmetry_equiv_pos_site_id
 _symmetry_equiv_pos_as_xyz
  1  'x, y, z'
loop_
 _atom_site_type_symbol
 _atom_site_label
 _atom_site_symmetry_multiplicity
 _atom_site_fract_x
 _atom_site_fract_y
 _atom_site_fract_z
 _atom_site_occupancy
  Pr  Pr0  1  0.25888625  0.47961759  0.86435244  1
  Pr  Pr1  1  0.73342733  0.54280691  0.13141053  1
  Pr  Pr2  1  0.77369064  0.98713985  0.87284459  1
  Pr  Pr3  1  0.22982586  0.97842035  0.13263726  1
  Mn  Mn4  1  0.28163241  0.58371714  0.57645660  1
  Mn  Mn5  1  0.71388575  0.49988243  0.40424149  1
  Mn  Mn6  1  0.99443410  0.93964909  0.99310088  1
  Mn  Mn7  1  0.78907441  0.04622813  0.59227387  1
  Mn  Mn8  1  0.18103244  0.97673367  0.38594678  1
  Mn  Mn9  1  0.51797624  0.49808399  0.02005585  1
  Sb  Sb10  1  0.89467342  0.00239444  0.45238324  1
  Sb  Sb11  1  0.10652977  0.00583935  0.54234068  1
  Sb  Sb12  1  0.02956818  0.51549315  0.80963932  1
  Sb  Sb13  1  0.97342180  0.45897660  0.19342586  1
  Sb  Sb14  1  0.40634375  0.50149456  0.46709187  1
  Sb  Sb15  1  0.60215999  0.42120190  0.55446719  1
  Sb  Sb16  1  0.52741119  0.99034826  0.81297539  1
  Sb  Sb17  1  0.46605515  0.97474200  0.18551520  1
  S  S18  1  0.94022832  0.95885001  0.80661290  1
  S  S19  1  0.06995109  0.95864381  0.20843197  1
  S  S20  1  0.41599761  0.97758235  0.97928969  1
  S  S21  1  0.59168989  0.98331843  0.02480814  1
  S  S22  1  0.18137459  0.97554888  0.89967416  1
  S  S23  1  0.83184414  0.99682520  0.10400719  1
  S  S24  1  0.10893544  0.49315945  0.65725193  1
  S  S25  1  0.89979722  0.46647387  0.34507667  1
  S  S26  1  0.74325149  0.99562841  0.31872768  1
  S  S27  1  0.26488197  0.98186325  0.68394397  1
  S  S28  1  0.15671168  0.48966469  0.44957229  1
  S  S29  1  0.83321395  0.51899527  0.55294552  1
  S  S30  1  0.44789261  0.47607395  0.82724949  1
  S  S31  1  0.57743308  0.52871421  0.20664766  1
  S  S32  1  0.91282372  0.44596763  0.98119980  1
  S  S33  1  0.07405948  0.43554330  0.00341989  1
  S  S34  1  0.67983730  0.48794497  0.90150612  1
  S  S35  1  0.33838446  0.49932268  0.10427869  1
  S  S36  1  0.60022166  0.95826797  0.66841518  1
  S  S37  1  0.42119677  0.01904100  0.36487027  1
  S  S38  1  0.25292608  0.47440816  0.27912080  1
  S  S39  1  0.76947541  0.45204389  0.69073772  1
  S  S40  1  0.66667999  0.00891452  0.44364258  1
  S  S41  1  0.31961355  0.06036105  0.53019285  1
