# generated using pymatgen
data_Pr2Mn3(SbS3)4
_symmetry_space_group_name_H-M   'P 1'
_cell_length_a   20.02960800
_cell_length_b   3.90410600
_cell_length_c   14.95364829
_cell_angle_alpha   90.00000000
_cell_angle_beta   126.33350609
_cell_angle_gamma   90.00000000
_symmetry_Int_Tables_number   1
_chemical_formula_structural   Pr2Mn3(SbS3)4
_chemical_formula_sum   'Pr4 Mn6 Sb8 S24'
_cell_volume   942.00006694
_cell_formula_units_Z   2
loop_
 _symmetry_equiv_pos_site_id
 _symmetry_equiv_pos_as_xyz
  1  'x, y, z'
loop_
 _atom_site_type_symbol
 _atom_site_label
 _atom_site_symmetry_multiplicity
 _atom_site_fract_x
 _atom_site_fract_y
 _atom_site_fract_z
 _atom_site_occupancy
  Pr  Pr0  1  0.25893590  0.47937049  0.86466775  1
  Pr  Pr1  1  0.73347440  0.54309624  0.13177936  1
  Pr  Pr2  1  0.77355656  0.98724192  0.87253202  1
  Pr  Pr3  1  0.22972237  0.97829134  0.13258967  1
  Mn  Mn4  1  0.28199373  0.58353786  0.57667223  1
  Mn  Mn5  1  0.71392693  0.49914438  0.40471834  1
  Mn  Mn6  1  0.99460098  0.93918552  0.99327854  1
  Mn  Mn7  1  0.78912401  0.04631806  0.59235457  1
  Mn  Mn8  1  0.18101454  0.97767878  0.38617035  1
  Mn  Mn9  1  0.51801068  0.49802239  0.01985691  1
  Sb  Sb10  1  0.89459133  0.00197199  0.45209299  1
  Sb  Sb11  1  0.10642363  0.00569027  0.54216419  1
  Sb  Sb12  1  0.02948740  0.51491734  0.80943285  1
  Sb  Sb13  1  0.97346515  0.45857731  0.19347922  1
  Sb  Sb14  1  0.40627333  0.50151364  0.46710211  1
  Sb  Sb15  1  0.60208720  0.42127894  0.55440194  1
  Sb  Sb16  1  0.52744950  0.98955766  0.81292430  1
  Sb  Sb17  1  0.46585271  0.97495847  0.18511639  1
  S  S18  1  0.94018331  0.95832722  0.80713909  1
  S  S19  1  0.06979275  0.95869513  0.20871988  1
  S  S20  1  0.41614291  0.97765998  0.97906019  1
  S  S21  1  0.59145433  0.98331234  0.02493715  1
  S  S22  1  0.18160040  0.97762989  0.90011386  1
  S  S23  1  0.83218662  0.99714615  0.10391656  1
  S  S24  1  0.10925056  0.49382009  0.65801870  1
  S  S25  1  0.89981370  0.46628505  0.34541139  1
  S  S26  1  0.74336802  0.99538598  0.31900653  1
  S  S27  1  0.26502601  0.98401355  0.68441383  1
  S  S28  1  0.15685184  0.48954471  0.44993838  1
  S  S29  1  0.83341975  0.51945816  0.55327374  1
  S  S30  1  0.44801776  0.47742999  0.82673024  1
  S  S31  1  0.57747771  0.52844139  0.20682435  1
  S  S32  1  0.91301590  0.44487335  0.98108629  1
  S  S33  1  0.07400921  0.43444580  0.00322213  1
  S  S34  1  0.68012801  0.48655755  0.90183628  1
  S  S35  1  0.33882927  0.49979927  0.10485969  1
  S  S36  1  0.60056140  0.95876717  0.66844697  1
  S  S37  1  0.42096190  0.01873442  0.36483915  1
  S  S38  1  0.25321712  0.47442608  0.27938232  1
  S  S39  1  0.76935020  0.45110584  0.69068005  1
  S  S40  1  0.66698958  0.00745861  0.44410541  1
  S  S41  1  0.31937128  0.06013363  0.52980764  1
