# generated using pymatgen
data_Pr2Mn3(SbS3)4
_symmetry_space_group_name_H-M   'P 1'
_cell_length_a   20.02960800
_cell_length_b   3.90410600
_cell_length_c   14.95364829
_cell_angle_alpha   90.00000000
_cell_angle_beta   126.33350609
_cell_angle_gamma   90.00000000
_symmetry_Int_Tables_number   1
_chemical_formula_structural   Pr2Mn3(SbS3)4
_chemical_formula_sum   'Pr4 Mn6 Sb8 S24'
_cell_volume   942.00006694
_cell_formula_units_Z   2
loop_
 _symmetry_equiv_pos_site_id
 _symmetry_equiv_pos_as_xyz
  1  'x, y, z'
loop_
 _atom_site_type_symbol
 _atom_site_label
 _atom_site_symmetry_multiplicity
 _atom_site_fract_x
 _atom_site_fract_y
 _atom_site_fract_z
 _atom_site_occupancy
  Pr  Pr0  1  0.25906281  0.47877677  0.86500276  1
  Pr  Pr1  1  0.73352444  0.54345810  0.13221086  1
  Pr  Pr2  1  0.77337513  0.98727597  0.87229846  1
  Pr  Pr3  1  0.22957451  0.97787218  0.13239402  1
  Mn  Mn4  1  0.28229222  0.58311292  0.57692154  1
  Mn  Mn5  1  0.71400847  0.49878331  0.40520492  1
  Mn  Mn6  1  0.99471510  0.93852231  0.99336380  1
  Mn  Mn7  1  0.78919518  0.04657401  0.59239195  1
  Mn  Mn8  1  0.18094896  0.97879424  0.38634619  1
  Mn  Mn9  1  0.51808752  0.49805407  0.01962502  1
  Sb  Sb10  1  0.89445091  0.00133456  0.45177555  1
  Sb  Sb11  1  0.10637069  0.00515994  0.54202379  1
  Sb  Sb12  1  0.02934197  0.51443607  0.80925067  1
  Sb  Sb13  1  0.97337790  0.45832020  0.19346189  1
  Sb  Sb14  1  0.40617533  0.50148171  0.46706959  1
  Sb  Sb15  1  0.60198312  0.42118803  0.55433586  1
  Sb  Sb16  1  0.52746219  0.98876404  0.81285790  1
  Sb  Sb17  1  0.46574052  0.97545860  0.18483715  1
  S  S18  1  0.94019334  0.95776333  0.80759880  1
  S  S19  1  0.06978366  0.95942095  0.20895661  1
  S  S20  1  0.41624833  0.97721475  0.97906378  1
  S  S21  1  0.59125359  0.98389152  0.02511694  1
  S  S22  1  0.18176738  0.97925767  0.90037218  1
  S  S23  1  0.83248303  0.99773486  0.10372901  1
  S  S24  1  0.10956788  0.49463852  0.65883075  1
  S  S25  1  0.89987772  0.46587126  0.34571229  1
  S  S26  1  0.74334509  0.99494861  0.31915474  1
  S  S27  1  0.26518529  0.98615197  0.68475522  1
  S  S28  1  0.15705718  0.48981471  0.45050588  1
  S  S29  1  0.83352997  0.52024402  0.55344135  1
  S  S30  1  0.44808501  0.47931740  0.82619777  1
  S  S31  1  0.57741937  0.52860801  0.20705302  1
  S  S32  1  0.91316451  0.44374347  0.98088960  1
  S  S33  1  0.07422113  0.43335900  0.00316832  1
  S  S34  1  0.68057421  0.48541674  0.90217335  1
  S  S35  1  0.33931901  0.50008087  0.10535233  1
  S  S36  1  0.60095423  0.95928375  0.66868218  1
  S  S37  1  0.42076174  0.01798794  0.36482347  1
  S  S38  1  0.25348884  0.47418852  0.27957627  1
  S  S39  1  0.76917776  0.45075741  0.69056912  1
  S  S40  1  0.66713845  0.00596255  0.44439958  1
  S  S41  1  0.31915305  0.05967818  0.52952339  1
