# generated using pymatgen
data_Pr2Mn3(SbS3)4
_symmetry_space_group_name_H-M   'P 1'
_cell_length_a   20.02960800
_cell_length_b   3.90410600
_cell_length_c   14.95364829
_cell_angle_alpha   90.00000000
_cell_angle_beta   126.33350609
_cell_angle_gamma   90.00000000
_symmetry_Int_Tables_number   1
_chemical_formula_structural   Pr2Mn3(SbS3)4
_chemical_formula_sum   'Pr4 Mn6 Sb8 S24'
_cell_volume   942.00006694
_cell_formula_units_Z   2
loop_
 _symmetry_equiv_pos_site_id
 _symmetry_equiv_pos_as_xyz
  1  'x, y, z'
loop_
 _atom_site_type_symbol
 _atom_site_label
 _atom_site_symmetry_multiplicity
 _atom_site_fract_x
 _atom_site_fract_y
 _atom_site_fract_z
 _atom_site_occupancy
  Pr  Pr0  1  0.26141774  0.49511814  0.86597696  1
  Pr  Pr1  1  0.74023237  0.50282519  0.13709853  1
  Pr  Pr2  1  0.76060704  0.00751996  0.86138661  1
  Pr  Pr3  1  0.24004615  0.99117129  0.13861472  1
  Mn  Mn4  1  0.29935688  0.50515504  0.62043109  1
  Mn  Mn5  1  0.69784464  0.49774004  0.38028761  1
  Mn  Mn6  1  0.00152157  0.00276208  0.00114502  1
  Mn  Mn7  1  0.80296887  0.99398638  0.61898509  1
  Mn  Mn8  1  0.19904781  0.98855938  0.37886280  1
  Mn  Mn9  1  0.50054873  0.48556406  0.00037380  1
  Sb  Sb10  1  0.89497163  0.00858620  0.45439553  1
  Sb  Sb11  1  0.10689996  0.99051063  0.55027577  1
  Sb  Sb12  1  0.03791519  0.48943821  0.81451532  1
  Sb  Sb13  1  0.96238471  0.50121503  0.18802284  1
  Sb  Sb14  1  0.39414295  0.48986206  0.45515710  1
  Sb  Sb15  1  0.60620693  0.49798702  0.54839288  1
  Sb  Sb16  1  0.53772192  0.99960934  0.81367214  1
  Sb  Sb17  1  0.46299313  0.99850645  0.18414586  1
  S  S18  1  0.93859078  0.98905351  0.79796270  1
  S  S19  1  0.05775715  0.99399477  0.19292391  1
  S  S20  1  0.40286491  0.97997744  0.97989545  1
  S  S21  1  0.59700093  0.99440087  0.01766653  1
  S  S22  1  0.16901752  0.98498454  0.90136125  1
  S  S23  1  0.82789139  0.00315552  0.10478299  1
  S  S24  1  0.08829849  0.49074119  0.64723659  1
  S  S25  1  0.91080285  0.48135301  0.35164234  1
  S  S26  1  0.74413571  0.97492708  0.29563917  1
  S  S27  1  0.25605546  0.00890928  0.70034467  1
  S  S28  1  0.15948473  0.49374764  0.44734319  1
  S  S29  1  0.83376806  0.49247866  0.54725385  1
  S  S30  1  0.43738006  0.50069338  0.79775663  1
  S  S31  1  0.56130171  0.49142317  0.19843155  1
  S  S32  1  0.90203986  0.47875457  0.97841999  1
  S  S33  1  0.09268006  0.48664811  0.01818056  1
  S  S34  1  0.66534079  0.51308491  0.89563255  1
  S  S35  1  0.33397693  0.50550286  0.10610355  1
  S  S36  1  0.59123720  0.01557957  0.64931091  1
  S  S37  1  0.41363679  0.98788521  0.35797646  1
  S  S38  1  0.24241496  0.47753722  0.29346336  1
  S  S39  1  0.76401626  0.50162741  0.70584834  1
  S  S40  1  0.66166596  0.00258916  0.45879698  1
  S  S41  1  0.33803826  0.99061841  0.54270533  1
