# generated using pymatgen
data_Pr2Mn3(SbS3)4
_symmetry_space_group_name_H-M   'P 1'
_cell_length_a   20.02960800
_cell_length_b   3.90410600
_cell_length_c   14.95364829
_cell_angle_alpha   90.00000000
_cell_angle_beta   126.33350609
_cell_angle_gamma   90.00000000
_symmetry_Int_Tables_number   1
_chemical_formula_structural   Pr2Mn3(SbS3)4
_chemical_formula_sum   'Pr4 Mn6 Sb8 S24'
_cell_volume   942.00006694
_cell_formula_units_Z   2
loop_
 _symmetry_equiv_pos_site_id
 _symmetry_equiv_pos_as_xyz
  1  'x, y, z'
loop_
 _atom_site_type_symbol
 _atom_site_label
 _atom_site_symmetry_multiplicity
 _atom_site_fract_x
 _atom_site_fract_y
 _atom_site_fract_z
 _atom_site_occupancy
  Pr  Pr0  1  0.26970115  0.50272181  0.86772614  1
  Pr  Pr1  1  0.73319118  0.51343263  0.13321291  1
  Pr  Pr2  1  0.76537122  0.02952835  0.86732271  1
  Pr  Pr3  1  0.23200538  0.99011462  0.13127369  1
  Mn  Mn4  1  0.30101554  0.47169256  0.60679477  1
  Mn  Mn5  1  0.68572702  0.46601376  0.36244522  1
  Mn  Mn6  1  0.00259601  0.98997633  0.01051279  1
  Mn  Mn7  1  0.79529756  0.01709488  0.61674310  1
  Mn  Mn8  1  0.19335022  0.99065139  0.36561097  1
  Mn  Mn9  1  0.48338626  0.47303070  0.98290484  1
  Sb  Sb10  1  0.88986782  0.98497577  0.44831762  1
  Sb  Sb11  1  0.10983920  0.98096975  0.54557283  1
  Sb  Sb12  1  0.03472909  0.53235962  0.82085351  1
  Sb  Sb13  1  0.96672437  0.49752199  0.18887154  1
  Sb  Sb14  1  0.39437355  0.49996823  0.44934568  1
  Sb  Sb15  1  0.60967894  0.47877709  0.54721032  1
  Sb  Sb16  1  0.53260647  0.97521563  0.80645858  1
  Sb  Sb17  1  0.46476127  0.02320519  0.18733046  1
  S  S18  1  0.93730979  0.01908488  0.80929454  1
  S  S19  1  0.06737600  0.01190867  0.20693397  1
  S  S20  1  0.41735155  0.97135368  0.98515907  1
  S  S21  1  0.58750808  0.03974882  0.01638153  1
  S  S22  1  0.16763619  0.04216063  0.90092552  1
  S  S23  1  0.82659828  0.01994488  0.10501542  1
  S  S24  1  0.08726523  0.49772210  0.64265715  1
  S  S25  1  0.91341997  0.48110809  0.35138494  1
  S  S26  1  0.73714434  0.00380103  0.29755275  1
  S  S27  1  0.25663818  0.01588923  0.70362472  1
  S  S28  1  0.16913869  0.51565595  0.43751345  1
  S  S29  1  0.80905911  0.50491039  0.53808158  1
  S  S30  1  0.43037978  0.47001992  0.79580360  1
  S  S31  1  0.55211711  0.51425539  0.17938181  1
  S  S32  1  0.92313831  0.50374139  0.99451822  1
  S  S33  1  0.09009406  0.49843691  0.02640309  1
  S  S34  1  0.66664711  0.55721844  0.89872559  1
  S  S35  1  0.32905118  0.47132384  0.09433776  1
  S  S36  1  0.58661306  0.99240823  0.64677507  1
  S  S37  1  0.39603592  0.97819056  0.33641432  1
  S  S38  1  0.24694799  0.47702987  0.31659384  1
  S  S39  1  0.75964075  0.52945290  0.68869266  1
  S  S40  1  0.66401516  0.98518265  0.44548810  1
  S  S41  1  0.32908972  0.98074346  0.55405202  1
