# generated using pymatgen
data_Pr2Mn3(SbS3)4
_symmetry_space_group_name_H-M   'P 1'
_cell_length_a   20.02960800
_cell_length_b   3.90410600
_cell_length_c   14.95364829
_cell_angle_alpha   90.00000000
_cell_angle_beta   126.33350609
_cell_angle_gamma   90.00000000
_symmetry_Int_Tables_number   1
_chemical_formula_structural   Pr2Mn3(SbS3)4
_chemical_formula_sum   'Pr4 Mn6 Sb8 S24'
_cell_volume   942.00006694
_cell_formula_units_Z   2
loop_
 _symmetry_equiv_pos_site_id
 _symmetry_equiv_pos_as_xyz
  1  'x, y, z'
loop_
 _atom_site_type_symbol
 _atom_site_label
 _atom_site_symmetry_multiplicity
 _atom_site_fract_x
 _atom_site_fract_y
 _atom_site_fract_z
 _atom_site_occupancy
  Pr  Pr0  1  0.25920011  0.47832492  0.86528481  1
  Pr  Pr1  1  0.73357760  0.54363594  0.13259569  1
  Pr  Pr2  1  0.77320329  0.98731970  0.87207032  1
  Pr  Pr3  1  0.22946652  0.97787195  0.13221407  1
  Mn  Mn4  1  0.28262432  0.58289882  0.57728166  1
  Mn  Mn5  1  0.71388418  0.49905627  0.40555926  1
  Mn  Mn6  1  0.99484158  0.93789609  0.99345892  1
  Mn  Mn7  1  0.78926094  0.04650733  0.59250308  1
  Mn  Mn8  1  0.18092408  0.98004754  0.38644169  1
  Mn  Mn9  1  0.51807477  0.49772304  0.01939458  1
  Sb  Sb10  1  0.89431468  0.00097017  0.45148245  1
  Sb  Sb11  1  0.10636654  0.00441711  0.54185083  1
  Sb  Sb12  1  0.02917389  0.51386945  0.80906749  1
  Sb  Sb13  1  0.97331577  0.45837859  0.19346088  1
  Sb  Sb14  1  0.40608206  0.50138361  0.46711410  1
  Sb  Sb15  1  0.60176894  0.42100589  0.55419251  1
  Sb  Sb16  1  0.52747470  0.98786801  0.81275983  1
  Sb  Sb17  1  0.46563376  0.97595317  0.18452090  1
  S  S18  1  0.93999835  0.95721938  0.80783875  1
  S  S19  1  0.06955101  0.95952274  0.20891509  1
  S  S20  1  0.41631976  0.97691213  0.97917368  1
  S  S21  1  0.59103397  0.98497476  0.02534343  1
  S  S22  1  0.18190540  0.98085684  0.90048308  1
  S  S23  1  0.83270752  0.99776389  0.10341513  1
  S  S24  1  0.10990140  0.49540844  0.65950882  1
  S  S25  1  0.90003474  0.46565228  0.34595149  1
  S  S26  1  0.74326915  0.99427132  0.31937286  1
  S  S27  1  0.26528672  0.98802407  0.68510946  1
  S  S28  1  0.15735240  0.49032902  0.45096346  1
  S  S29  1  0.83356653  0.52171340  0.55375181  1
  S  S30  1  0.44821907  0.48120319  0.82589488  1
  S  S31  1  0.57740552  0.52878825  0.20751789  1
  S  S32  1  0.91327597  0.44310823  0.98068438  1
  S  S33  1  0.07445178  0.43283435  0.00321290  1
  S  S34  1  0.68102995  0.48378516  0.90264024  1
  S  S35  1  0.33983307  0.50071237  0.10593472  1
  S  S36  1  0.60136174  0.95974074  0.66920030  1
  S  S37  1  0.42061341  0.01730122  0.36493203  1
  S  S38  1  0.25379170  0.47375016  0.27984256  1
  S  S39  1  0.76883806  0.45017379  0.69047143  1
  S  S40  1  0.66723748  0.00479633  0.44472978  1
  S  S41  1  0.31893957  0.05935813  0.52935289  1
