# generated using pymatgen
data_Pr2Mn3(SbS3)4
_symmetry_space_group_name_H-M   'P 1'
_cell_length_a   20.02960800
_cell_length_b   3.90410600
_cell_length_c   14.95364829
_cell_angle_alpha   90.00000000
_cell_angle_beta   126.33350609
_cell_angle_gamma   90.00000000
_symmetry_Int_Tables_number   1
_chemical_formula_structural   Pr2Mn3(SbS3)4
_chemical_formula_sum   'Pr4 Mn6 Sb8 S24'
_cell_volume   942.00006694
_cell_formula_units_Z   2
loop_
 _symmetry_equiv_pos_site_id
 _symmetry_equiv_pos_as_xyz
  1  'x, y, z'
loop_
 _atom_site_type_symbol
 _atom_site_label
 _atom_site_symmetry_multiplicity
 _atom_site_fract_x
 _atom_site_fract_y
 _atom_site_fract_z
 _atom_site_occupancy
  Pr  Pr0  1  0.25928485  0.47792590  0.86546809  1
  Pr  Pr1  1  0.73360068  0.54393883  0.13296451  1
  Pr  Pr2  1  0.77307430  0.98746604  0.87183300  1
  Pr  Pr3  1  0.22932619  0.97769542  0.13205472  1
  Mn  Mn4  1  0.28291708  0.58238516  0.57773870  1
  Mn  Mn5  1  0.71368030  0.49940024  0.40567440  1
  Mn  Mn6  1  0.99500914  0.93742871  0.99353847  1
  Mn  Mn7  1  0.78940790  0.04607436  0.59276096  1
  Mn  Mn8  1  0.18094859  0.98032781  0.38658507  1
  Mn  Mn9  1  0.51805616  0.49719441  0.01907380  1
  Sb  Sb10  1  0.89414348  0.00044620  0.45116452  1
  Sb  Sb11  1  0.10635092  0.00341355  0.54171720  1
  Sb  Sb12  1  0.02909835  0.51367743  0.80893198  1
  Sb  Sb13  1  0.97331804  0.45836579  0.19347188  1
  Sb  Sb14  1  0.40596903  0.50150540  0.46703334  1
  Sb  Sb15  1  0.60158703  0.42100295  0.55406006  1
  Sb  Sb16  1  0.52754210  0.98728918  0.81271879  1
  Sb  Sb17  1  0.46552985  0.97637937  0.18413557  1
  S  S18  1  0.93974429  0.95683560  0.80806271  1
  S  S19  1  0.06959736  0.95916877  0.20896973  1
  S  S20  1  0.41645220  0.97626231  0.97950781  1
  S  S21  1  0.59065332  0.98592335  0.02530724  1
  S  S22  1  0.18190536  0.98289913  0.90047805  1
  S  S23  1  0.83295655  0.99772062  0.10318188  1
  S  S24  1  0.11026949  0.49596243  0.66010785  1
  S  S25  1  0.90013866  0.46604275  0.34599002  1
  S  S26  1  0.74318425  0.99360462  0.31960943  1
  S  S27  1  0.26544281  0.98970503  0.68542819  1
  S  S28  1  0.15745584  0.49093947  0.45133856  1
  S  S29  1  0.83347923  0.52357014  0.55394343  1
  S  S30  1  0.44833044  0.48227408  0.82573449  1
  S  S31  1  0.57735798  0.52888851  0.20800431  1
  S  S32  1  0.91345123  0.44292113  0.98064952  1
  S  S33  1  0.07464660  0.43283935  0.00340969  1
  S  S34  1  0.68149661  0.48169967  0.90323295  1
  S  S35  1  0.34036619  0.50049638  0.10661404  1
  S  S36  1  0.60169041  0.96008516  0.66947707  1
  S  S37  1  0.42044375  0.01706625  0.36493580  1
  S  S38  1  0.25410771  0.47306984  0.28003917  1
  S  S39  1  0.76851697  0.44931256  0.69035165  1
  S  S40  1  0.66722075  0.00359872  0.44464116  1
  S  S41  1  0.31861977  0.05853000  0.52916347  1
