# generated using pymatgen
data_Pr2Mn3(SbS3)4
_symmetry_space_group_name_H-M   'P 1'
_cell_length_a   20.02960800
_cell_length_b   3.90410600
_cell_length_c   14.95364829
_cell_angle_alpha   90.00000000
_cell_angle_beta   126.33350609
_cell_angle_gamma   90.00000000
_symmetry_Int_Tables_number   1
_chemical_formula_structural   Pr2Mn3(SbS3)4
_chemical_formula_sum   'Pr4 Mn6 Sb8 S24'
_cell_volume   942.00006694
_cell_formula_units_Z   2
loop_
 _symmetry_equiv_pos_site_id
 _symmetry_equiv_pos_as_xyz
  1  'x, y, z'
loop_
 _atom_site_type_symbol
 _atom_site_label
 _atom_site_symmetry_multiplicity
 _atom_site_fract_x
 _atom_site_fract_y
 _atom_site_fract_z
 _atom_site_occupancy
  Pr  Pr0  1  0.25937893  0.47752584  0.86565795  1
  Pr  Pr1  1  0.73366902  0.54414962  0.13325034  1
  Pr  Pr2  1  0.77295307  0.98791656  0.87163124  1
  Pr  Pr3  1  0.22913860  0.97749627  0.13195430  1
  Mn  Mn4  1  0.28321259  0.58204802  0.57827509  1
  Mn  Mn5  1  0.71340754  0.49983513  0.40557600  1
  Mn  Mn6  1  0.99512658  0.93725091  0.99355180  1
  Mn  Mn7  1  0.78962864  0.04572102  0.59310348  1
  Mn  Mn8  1  0.18094384  0.98079916  0.38672305  1
  Mn  Mn9  1  0.51808226  0.49699861  0.01889896  1
  Sb  Sb10  1  0.89403667  0.00037413  0.45096064  1
  Sb  Sb11  1  0.10624566  0.00248757  0.54150798  1
  Sb  Sb12  1  0.02902404  0.51379610  0.80883432  1
  Sb  Sb13  1  0.97330318  0.45863095  0.19342509  1
  Sb  Sb14  1  0.40589322  0.50173066  0.46702692  1
  Sb  Sb15  1  0.60151064  0.42080085  0.55396684  1
  Sb  Sb16  1  0.52759717  0.98662831  0.81266998  1
  Sb  Sb17  1  0.46550008  0.97658031  0.18379211  1
  S  S18  1  0.93939189  0.95630766  0.80837041  1
  S  S19  1  0.06964732  0.95843208  0.20908818  1
  S  S20  1  0.41640026  0.97558702  0.97975458  1
  S  S21  1  0.59031703  0.98780555  0.02538330  1
  S  S22  1  0.18194527  0.98469119  0.90044949  1
  S  S23  1  0.83314106  0.99748678  0.10280605  1
  S  S24  1  0.11071049  0.49703373  0.66062099  1
  S  S25  1  0.90016890  0.46640696  0.34600702  1
  S  S26  1  0.74303964  0.99266936  0.31976510  1
  S  S27  1  0.26548492  0.99175771  0.68552197  1
  S  S28  1  0.15759778  0.49116468  0.45175672  1
  S  S29  1  0.83338994  0.52475113  0.55413308  1
  S  S30  1  0.44841090  0.48348679  0.82567251  1
  S  S31  1  0.57712673  0.52910662  0.20814523  1
  S  S32  1  0.91351354  0.44292245  0.98058652  1
  S  S33  1  0.07473105  0.43325112  0.00364181  1
  S  S34  1  0.68190773  0.47996771  0.90361344  1
  S  S35  1  0.34086162  0.50005965  0.10737797  1
  S  S36  1  0.60202118  0.96021670  0.66962595  1
  S  S37  1  0.42020838  0.01673309  0.36494805  1
  S  S38  1  0.25430763  0.47181669  0.28013418  1
  S  S39  1  0.76809283  0.44835886  0.68997541  1
  S  S40  1  0.66710876  0.00174443  0.44439345  1
  S  S41  1  0.31825878  0.05743231  0.52902851  1
