# generated using pymatgen
data_Pr2Mn3(SbS3)4
_symmetry_space_group_name_H-M   'P 1'
_cell_length_a   20.02960800
_cell_length_b   3.90410600
_cell_length_c   14.95364829
_cell_angle_alpha   90.00000000
_cell_angle_beta   126.33350609
_cell_angle_gamma   90.00000000
_symmetry_Int_Tables_number   1
_chemical_formula_structural   Pr2Mn3(SbS3)4
_chemical_formula_sum   'Pr4 Mn6 Sb8 S24'
_cell_volume   942.00006694
_cell_formula_units_Z   2
loop_
 _symmetry_equiv_pos_site_id
 _symmetry_equiv_pos_as_xyz
  1  'x, y, z'
loop_
 _atom_site_type_symbol
 _atom_site_label
 _atom_site_symmetry_multiplicity
 _atom_site_fract_x
 _atom_site_fract_y
 _atom_site_fract_z
 _atom_site_occupancy
  Pr  Pr0  1  0.25946631  0.47697175  0.86580348  1
  Pr  Pr1  1  0.73366944  0.54425553  0.13347656  1
  Pr  Pr2  1  0.77288862  0.98824143  0.87154992  1
  Pr  Pr3  1  0.22891505  0.97749050  0.13180610  1
  Mn  Mn4  1  0.28346457  0.58157476  0.57863524  1
  Mn  Mn5  1  0.71315921  0.50080094  0.40535394  1
  Mn  Mn6  1  0.99533000  0.93771945  0.99352757  1
  Mn  Mn7  1  0.78986994  0.04559552  0.59346106  1
  Mn  Mn8  1  0.18094296  0.98114415  0.38685442  1
  Mn  Mn9  1  0.51816575  0.49672430  0.01879671  1
  Sb  Sb10  1  0.89391554  0.00021721  0.45073913  1
  Sb  Sb11  1  0.10620078  0.00146984  0.54139049  1
  Sb  Sb12  1  0.02892578  0.51395497  0.80874149  1
  Sb  Sb13  1  0.97325836  0.45877786  0.19335047  1
  Sb  Sb14  1  0.40576384  0.50208728  0.46697999  1
  Sb  Sb15  1  0.60144011  0.42071376  0.55376860  1
  Sb  Sb16  1  0.52759921  0.98653257  0.81255959  1
  Sb  Sb17  1  0.46548737  0.97709396  0.18344128  1
  S  S18  1  0.93914271  0.95550695  0.80871248  1
  S  S19  1  0.06935120  0.95752495  0.20879681  1
  S  S20  1  0.41632373  0.97587000  0.98012940  1
  S  S21  1  0.58997840  0.98898240  0.02543208  1
  S  S22  1  0.18196077  0.98658703  0.90038383  1
  S  S23  1  0.83337898  0.99727591  0.10265248  1
  S  S24  1  0.11121979  0.49842810  0.66117334  1
  S  S25  1  0.90015379  0.46652940  0.34594504  1
  S  S26  1  0.74286403  0.99253156  0.31988603  1
  S  S27  1  0.26561226  0.99434867  0.68558462  1
  S  S28  1  0.15777513  0.49143711  0.45219963  1
  S  S29  1  0.83338240  0.52649098  0.55424831  1
  S  S30  1  0.44839472  0.48539252  0.82551161  1
  S  S31  1  0.57688780  0.53000740  0.20823447  1
  S  S32  1  0.91353999  0.44327911  0.98055826  1
  S  S33  1  0.07482762  0.43336948  0.00380479  1
  S  S34  1  0.68234751  0.47818081  0.90401133  1
  S  S35  1  0.34135597  0.49883599  0.10806122  1
  S  S36  1  0.60225858  0.96088112  0.66979976  1
  S  S37  1  0.42014401  0.01608719  0.36495482  1
  S  S38  1  0.25454805  0.47057156  0.28029724  1
  S  S39  1  0.76765800  0.44776402  0.68947091  1
  S  S40  1  0.66694746  0.99984891  0.44402469  1
  S  S41  1  0.31785570  0.05652648  0.52881694  1
