# generated using pymatgen
data_Pr2Mn3(SbS3)4
_symmetry_space_group_name_H-M   'P 1'
_cell_length_a   20.02960800
_cell_length_b   3.90410600
_cell_length_c   14.95364829
_cell_angle_alpha   90.00000000
_cell_angle_beta   126.33350609
_cell_angle_gamma   90.00000000
_symmetry_Int_Tables_number   1
_chemical_formula_structural   Pr2Mn3(SbS3)4
_chemical_formula_sum   'Pr4 Mn6 Sb8 S24'
_cell_volume   942.00006694
_cell_formula_units_Z   2
loop_
 _symmetry_equiv_pos_site_id
 _symmetry_equiv_pos_as_xyz
  1  'x, y, z'
loop_
 _atom_site_type_symbol
 _atom_site_label
 _atom_site_symmetry_multiplicity
 _atom_site_fract_x
 _atom_site_fract_y
 _atom_site_fract_z
 _atom_site_occupancy
  Pr  Pr0  1  0.25957677  0.47641204  0.86604136  1
  Pr  Pr1  1  0.73372638  0.54453059  0.13373595  1
  Pr  Pr2  1  0.77284499  0.98860203  0.87148754  1
  Pr  Pr3  1  0.22876619  0.97740947  0.13167075  1
  Mn  Mn4  1  0.28364408  0.58129354  0.57894086  1
  Mn  Mn5  1  0.71284000  0.50205473  0.40514859  1
  Mn  Mn6  1  0.99557502  0.93787250  0.99362480  1
  Mn  Mn7  1  0.79006743  0.04548741  0.59374285  1
  Mn  Mn8  1  0.18100060  0.98174192  0.38706470  1
  Mn  Mn9  1  0.51805339  0.49645621  0.01860453  1
  Sb  Sb10  1  0.89391794  0.00006362  0.45070781  1
  Sb  Sb11  1  0.10616623  0.00044400  0.54133601  1
  Sb  Sb12  1  0.02879386  0.51389140  0.80857541  1
  Sb  Sb13  1  0.97319543  0.45892019  0.19328293  1
  Sb  Sb14  1  0.40557704  0.50252302  0.46683658  1
  Sb  Sb15  1  0.60130833  0.42059796  0.55360800  1
  Sb  Sb16  1  0.52756270  0.98664984  0.81240283  1
  Sb  Sb17  1  0.46547200  0.97751158  0.18317346  1
  S  S18  1  0.93892667  0.95473235  0.80898533  1
  S  S19  1  0.06914406  0.95768600  0.20861809  1
  S  S20  1  0.41642416  0.97575210  0.98054611  1
  S  S21  1  0.58955872  0.98982626  0.02542875  1
  S  S22  1  0.18200327  0.98862681  0.90036296  1
  S  S23  1  0.83361466  0.99676226  0.10258885  1
  S  S24  1  0.11180100  0.49980022  0.66168681  1
  S  S25  1  0.90010116  0.46681561  0.34578207  1
  S  S26  1  0.74257084  0.99174616  0.31997303  1
  S  S27  1  0.26577782  0.99659037  0.68581848  1
  S  S28  1  0.15794803  0.49118591  0.45269809  1
  S  S29  1  0.83332290  0.52846105  0.55419214  1
  S  S30  1  0.44844200  0.48694834  0.82531404  1
  S  S31  1  0.57658314  0.53038087  0.20820990  1
  S  S32  1  0.91348665  0.44398058  0.98042871  1
  S  S33  1  0.07494109  0.43313905  0.00401120  1
  S  S34  1  0.68268026  0.47646577  0.90435644  1
  S  S35  1  0.34175908  0.49791920  0.10859726  1
  S  S36  1  0.60256665  0.96192481  0.67021340  1
  S  S37  1  0.42024490  0.01549014  0.36502130  1
  S  S38  1  0.25492210  0.46906415  0.28043972  1
  S  S39  1  0.76709859  0.44711082  0.68883508  1
  S  S40  1  0.66679726  0.99783751  0.44366717  1
  S  S41  1  0.31739225  0.05528866  0.52860606  1
