# generated using pymatgen
data_Pr2Mn3(SbS3)4
_symmetry_space_group_name_H-M   'P 1'
_cell_length_a   20.02960800
_cell_length_b   3.90410600
_cell_length_c   14.95364829
_cell_angle_alpha   90.00000000
_cell_angle_beta   126.33350609
_cell_angle_gamma   90.00000000
_symmetry_Int_Tables_number   1
_chemical_formula_structural   Pr2Mn3(SbS3)4
_chemical_formula_sum   'Pr4 Mn6 Sb8 S24'
_cell_volume   942.00006694
_cell_formula_units_Z   2
loop_
 _symmetry_equiv_pos_site_id
 _symmetry_equiv_pos_as_xyz
  1  'x, y, z'
loop_
 _atom_site_type_symbol
 _atom_site_label
 _atom_site_symmetry_multiplicity
 _atom_site_fract_x
 _atom_site_fract_y
 _atom_site_fract_z
 _atom_site_occupancy
  Pr  Pr0  1  0.25975818  0.47608854  0.86636138  1
  Pr  Pr1  1  0.73370251  0.54479221  0.13400518  1
  Pr  Pr2  1  0.77280024  0.98887845  0.87138145  1
  Pr  Pr3  1  0.22864653  0.97726709  0.13154757  1
  Mn  Mn4  1  0.28375618  0.58118764  0.57931133  1
  Mn  Mn5  1  0.71256894  0.50323705  0.40502076  1
  Mn  Mn6  1  0.99571770  0.93780687  0.99357511  1
  Mn  Mn7  1  0.79016832  0.04554033  0.59392007  1
  Mn  Mn8  1  0.18107719  0.98275228  0.38727912  1
  Mn  Mn9  1  0.51797765  0.49666064  0.01840131  1
  Sb  Sb10  1  0.89398712  0.00014909  0.45067663  1
  Sb  Sb11  1  0.10616920  0.99954883  0.54133698  1
  Sb  Sb12  1  0.02868839  0.51408338  0.80841366  1
  Sb  Sb13  1  0.97309269  0.45919923  0.19316851  1
  Sb  Sb14  1  0.40535588  0.50302852  0.46667241  1
  Sb  Sb15  1  0.60118291  0.42037059  0.55341756  1
  Sb  Sb16  1  0.52754967  0.98684140  0.81222126  1
  Sb  Sb17  1  0.46552854  0.97806337  0.18304724  1
  S  S18  1  0.93871344  0.95369943  0.80923608  1
  S  S19  1  0.06895453  0.95755132  0.20834023  1
  S  S20  1  0.41643862  0.97577329  0.98097013  1
  S  S21  1  0.58927434  0.99065858  0.02544703  1
  S  S22  1  0.18203680  0.99000795  0.90019227  1
  S  S23  1  0.83374737  0.99618963  0.10259625  1
  S  S24  1  0.11241919  0.50019601  0.66219146  1
  S  S25  1  0.90012114  0.46766121  0.34569634  1
  S  S26  1  0.74221760  0.99119880  0.31996736  1
  S  S27  1  0.26589913  0.99899413  0.68603631  1
  S  S28  1  0.15808591  0.49028673  0.45312879  1
  S  S29  1  0.83317297  0.53005627  0.55414116  1
  S  S30  1  0.44848807  0.48867040  0.82521483  1
  S  S31  1  0.57636189  0.53160814  0.20820777  1
  S  S32  1  0.91365963  0.44429104  0.98045681  1
  S  S33  1  0.07497677  0.43274221  0.00390778  1
  S  S34  1  0.68285910  0.47475349  0.90451780  1
  S  S35  1  0.34217420  0.49723721  0.10902559  1
  S  S36  1  0.60277537  0.96314857  0.67056717  1
  S  S37  1  0.42032369  0.01547853  0.36522793  1
  S  S38  1  0.25526867  0.46727218  0.28038815  1
  S  S39  1  0.76644796  0.44641376  0.68819033  1
  S  S40  1  0.66668951  0.99630918  0.44340580  1
  S  S41  1  0.31692982  0.05375877  0.52844030  1
