# generated using pymatgen
data_Pr2Mn3(SbS3)4
_symmetry_space_group_name_H-M   'P 1'
_cell_length_a   20.02960800
_cell_length_b   3.90410600
_cell_length_c   14.95364829
_cell_angle_alpha   90.00000000
_cell_angle_beta   126.33350609
_cell_angle_gamma   90.00000000
_symmetry_Int_Tables_number   1
_chemical_formula_structural   Pr2Mn3(SbS3)4
_chemical_formula_sum   'Pr4 Mn6 Sb8 S24'
_cell_volume   942.00006694
_cell_formula_units_Z   2
loop_
 _symmetry_equiv_pos_site_id
 _symmetry_equiv_pos_as_xyz
  1  'x, y, z'
loop_
 _atom_site_type_symbol
 _atom_site_label
 _atom_site_symmetry_multiplicity
 _atom_site_fract_x
 _atom_site_fract_y
 _atom_site_fract_z
 _atom_site_occupancy
  Pr  Pr0  1  0.25998015  0.47561977  0.86668366  1
  Pr  Pr1  1  0.73371549  0.54504984  0.13419518  1
  Pr  Pr2  1  0.77270358  0.98912562  0.87121754  1
  Pr  Pr3  1  0.22862283  0.97736426  0.13147443  1
  Mn  Mn4  1  0.28400826  0.58136642  0.57975220  1
  Mn  Mn5  1  0.71240552  0.50419146  0.40505127  1
  Mn  Mn6  1  0.99593379  0.93774406  0.99362596  1
  Mn  Mn7  1  0.79018277  0.04547066  0.59400054  1
  Mn  Mn8  1  0.18108131  0.98315501  0.38736549  1
  Mn  Mn9  1  0.51795091  0.49725156  0.01842067  1
  Sb  Sb10  1  0.89400410  0.00040261  0.45059804  1
  Sb  Sb11  1  0.10618875  0.99865837  0.54136711  1
  Sb  Sb12  1  0.02858994  0.51398429  0.80824281  1
  Sb  Sb13  1  0.97296576  0.45928208  0.19309616  1
  Sb  Sb14  1  0.40511659  0.50337554  0.46645043  1
  Sb  Sb15  1  0.60108822  0.42004154  0.55331745  1
  Sb  Sb16  1  0.52755247  0.98708969  0.81208759  1
  Sb  Sb17  1  0.46557964  0.97842825  0.18305271  1
  S  S18  1  0.93857801  0.95282723  0.80943527  1
  S  S19  1  0.06895060  0.95693931  0.20817545  1
  S  S20  1  0.41643465  0.97620005  0.98135629  1
  S  S21  1  0.58904433  0.99182682  0.02552656  1
  S  S22  1  0.18211210  0.99152854  0.89997455  1
  S  S23  1  0.83388396  0.99601505  0.10274934  1
  S  S24  1  0.11310956  0.50052655  0.66267400  1
  S  S25  1  0.89994931  0.46871584  0.34515949  1
  S  S26  1  0.74183201  0.99032363  0.32013950  1
  S  S27  1  0.26594380  0.00137516  0.68621858  1
  S  S28  1  0.15814380  0.48915076  0.45334010  1
  S  S29  1  0.83292081  0.53142520  0.55409066  1
  S  S30  1  0.44855367  0.48997437  0.82538088  1
  S  S31  1  0.57595783  0.53293325  0.20799847  1
  S  S32  1  0.91395369  0.44459169  0.98069371  1
  S  S33  1  0.07487755  0.43328486  0.00342015  1
  S  S34  1  0.68288521  0.47266769  0.90467096  1
  S  S35  1  0.34261641  0.49601622  0.10939407  1
  S  S36  1  0.60310209  0.96451415  0.67098062  1
  S  S37  1  0.42026630  0.01550433  0.36537343  1
  S  S38  1  0.25554096  0.46671362  0.28019364  1
  S  S39  1  0.76592259  0.44597551  0.68778350  1
  S  S40  1  0.66660028  0.99532238  0.44333163  1
  S  S41  1  0.31658299  0.05277003  0.52839651  1
