# generated using pymatgen
data_Pr2Mn3(SbS3)4
_symmetry_space_group_name_H-M   'P 1'
_cell_length_a   20.02960800
_cell_length_b   3.90410600
_cell_length_c   14.95364829
_cell_angle_alpha   90.00000000
_cell_angle_beta   126.33350609
_cell_angle_gamma   90.00000000
_symmetry_Int_Tables_number   1
_chemical_formula_structural   Pr2Mn3(SbS3)4
_chemical_formula_sum   'Pr4 Mn6 Sb8 S24'
_cell_volume   942.00006694
_cell_formula_units_Z   2
loop_
 _symmetry_equiv_pos_site_id
 _symmetry_equiv_pos_as_xyz
  1  'x, y, z'
loop_
 _atom_site_type_symbol
 _atom_site_label
 _atom_site_symmetry_multiplicity
 _atom_site_fract_x
 _atom_site_fract_y
 _atom_site_fract_z
 _atom_site_occupancy
  Pr  Pr0  1  0.26019853  0.47507490  0.86693262  1
  Pr  Pr1  1  0.73374932  0.54555942  0.13444015  1
  Pr  Pr2  1  0.77258695  0.98934747  0.87104181  1
  Pr  Pr3  1  0.22866212  0.97741951  0.13141846  1
  Mn  Mn4  1  0.28412790  0.58176411  0.58020705  1
  Mn  Mn5  1  0.71235015  0.50533217  0.40524122  1
  Mn  Mn6  1  0.99607009  0.93801305  0.99356499  1
  Mn  Mn7  1  0.79026109  0.04530153  0.59407459  1
  Mn  Mn8  1  0.18105380  0.98312210  0.38748348  1
  Mn  Mn9  1  0.51787493  0.49717379  0.01845954  1
  Sb  Sb10  1  0.89399260  0.00043733  0.45046766  1
  Sb  Sb11  1  0.10625681  0.99802566  0.54140420  1
  Sb  Sb12  1  0.02849043  0.51385952  0.80810092  1
  Sb  Sb13  1  0.97283269  0.45923581  0.19297940  1
  Sb  Sb14  1  0.40495466  0.50382822  0.46629762  1
  Sb  Sb15  1  0.60102591  0.41985343  0.55327531  1
  Sb  Sb16  1  0.52751226  0.98732957  0.81189816  1
  Sb  Sb17  1  0.46563193  0.97907736  0.18305104  1
  S  S18  1  0.93837135  0.95244048  0.80953045  1
  S  S19  1  0.06910646  0.95655308  0.20823621  1
  S  S20  1  0.41633251  0.97674590  0.98162543  1
  S  S21  1  0.58886297  0.99251590  0.02570954  1
  S  S22  1  0.18208522  0.99314092  0.89966700  1
  S  S23  1  0.83395337  0.99544266  0.10288699  1
  S  S24  1  0.11367248  0.50109531  0.66316010  1
  S  S25  1  0.89957012  0.46963838  0.34440380  1
  S  S26  1  0.74155587  0.99015415  0.32037519  1
  S  S27  1  0.26579441  0.00332402  0.68631476  1
  S  S28  1  0.15808539  0.48813328  0.45333397  1
  S  S29  1  0.83275971  0.53261875  0.55391969  1
  S  S30  1  0.44855500  0.49108897  0.82541074  1
  S  S31  1  0.57560742  0.53402212  0.20795920  1
  S  S32  1  0.91412695  0.44527274  0.98077626  1
  S  S33  1  0.07484947  0.43396190  0.00295597  1
  S  S34  1  0.68293367  0.47080777  0.90478317  1
  S  S35  1  0.34299308  0.49521269  0.10969932  1
  S  S36  1  0.60351628  0.96576198  0.67157380  1
  S  S37  1  0.42013790  0.01525318  0.36558417  1
  S  S38  1  0.25585214  0.46593965  0.28018412  1
  S  S39  1  0.76563222  0.44586678  0.68759958  1
  S  S40  1  0.66650241  0.99439980  0.44338668  1
  S  S41  1  0.31613384  0.05163962  0.52828186  1
