# generated using pymatgen
data_Pr2Mn3(SbS3)4
_symmetry_space_group_name_H-M   'P 1'
_cell_length_a   20.02960800
_cell_length_b   3.90410600
_cell_length_c   14.95364829
_cell_angle_alpha   90.00000000
_cell_angle_beta   126.33350609
_cell_angle_gamma   90.00000000
_symmetry_Int_Tables_number   1
_chemical_formula_structural   Pr2Mn3(SbS3)4
_chemical_formula_sum   'Pr4 Mn6 Sb8 S24'
_cell_volume   942.00006694
_cell_formula_units_Z   2
loop_
 _symmetry_equiv_pos_site_id
 _symmetry_equiv_pos_as_xyz
  1  'x, y, z'
loop_
 _atom_site_type_symbol
 _atom_site_label
 _atom_site_symmetry_multiplicity
 _atom_site_fract_x
 _atom_site_fract_y
 _atom_site_fract_z
 _atom_site_occupancy
  Pr  Pr0  1  0.26049184  0.47462590  0.86725849  1
  Pr  Pr1  1  0.73366495  0.54613355  0.13446416  1
  Pr  Pr2  1  0.77256487  0.98948009  0.87093541  1
  Pr  Pr3  1  0.22869584  0.97733173  0.13137130  1
  Mn  Mn4  1  0.28426077  0.58169998  0.58071494  1
  Mn  Mn5  1  0.71220424  0.50653639  0.40526700  1
  Mn  Mn6  1  0.99612363  0.93818655  0.99335751  1
  Mn  Mn7  1  0.79041212  0.04478309  0.59413760  1
  Mn  Mn8  1  0.18103621  0.98357623  0.38761380  1
  Mn  Mn9  1  0.51787189  0.49744104  0.01849453  1
  Sb  Sb10  1  0.89399769  0.00085520  0.45032062  1
  Sb  Sb11  1  0.10623502  0.99713227  0.54138223  1
  Sb  Sb12  1  0.02839169  0.51363758  0.80795683  1
  Sb  Sb13  1  0.97265190  0.45945057  0.19289489  1
  Sb  Sb14  1  0.40487977  0.50393196  0.46617770  1
  Sb  Sb15  1  0.60086169  0.41958660  0.55320529  1
  Sb  Sb16  1  0.52754549  0.98774899  0.81165853  1
  Sb  Sb17  1  0.46563838  0.97927900  0.18306916  1
  S  S18  1  0.93820838  0.95202743  0.80952876  1
  S  S19  1  0.06926632  0.95565467  0.20853100  1
  S  S20  1  0.41643071  0.97668969  0.98222876  1
  S  S21  1  0.58864295  0.99336204  0.02585000  1
  S  S22  1  0.18215081  0.99439870  0.89962688  1
  S  S23  1  0.83401572  0.99543890  0.10300281  1
  S  S24  1  0.11429461  0.50218604  0.66363579  1
  S  S25  1  0.89914680  0.47093694  0.34369917  1
  S  S26  1  0.74124803  0.99088072  0.32048564  1
  S  S27  1  0.26584811  0.00514539  0.68644846  1
  S  S28  1  0.15792777  0.48763524  0.45325901  1
  S  S29  1  0.83264301  0.53349566  0.55373682  1
  S  S30  1  0.44843241  0.49211287  0.82525874  1
  S  S31  1  0.57535235  0.53452509  0.20802158  1
  S  S32  1  0.91422150  0.44570772  0.98081014  1
  S  S33  1  0.07469999  0.43381525  0.00255472  1
  S  S34  1  0.68280788  0.46908154  0.90482088  1
  S  S35  1  0.34344391  0.49450759  0.11023907  1
  S  S36  1  0.60381623  0.96728238  0.67209177  1
  S  S37  1  0.41996680  0.01436111  0.36561167  1
  S  S38  1  0.25617068  0.46502821  0.28034925  1
  S  S39  1  0.76539266  0.44566518  0.68735443  1
  S  S40  1  0.66638648  0.99327910  0.44331702  1
  S  S41  1  0.31550560  0.05129511  0.52788696  1
