# generated using pymatgen
data_Pr2Mn3(SbS3)4
_symmetry_space_group_name_H-M   'P 1'
_cell_length_a   20.02960800
_cell_length_b   3.90410600
_cell_length_c   14.95364829
_cell_angle_alpha   90.00000000
_cell_angle_beta   126.33350609
_cell_angle_gamma   90.00000000
_symmetry_Int_Tables_number   1
_chemical_formula_structural   Pr2Mn3(SbS3)4
_chemical_formula_sum   'Pr4 Mn6 Sb8 S24'
_cell_volume   942.00006694
_cell_formula_units_Z   2
loop_
 _symmetry_equiv_pos_site_id
 _symmetry_equiv_pos_as_xyz
  1  'x, y, z'
loop_
 _atom_site_type_symbol
 _atom_site_label
 _atom_site_symmetry_multiplicity
 _atom_site_fract_x
 _atom_site_fract_y
 _atom_site_fract_z
 _atom_site_occupancy
  Pr  Pr0  1  0.26068688  0.47403484  0.86751088  1
  Pr  Pr1  1  0.73361282  0.54645279  0.13451011  1
  Pr  Pr2  1  0.77251991  0.98960135  0.87082548  1
  Pr  Pr3  1  0.22872737  0.97758433  0.13134236  1
  Mn  Mn4  1  0.28440298  0.58117243  0.58119700  1
  Mn  Mn5  1  0.71198115  0.50779556  0.40516210  1
  Mn  Mn6  1  0.99614832  0.93805643  0.99323225  1
  Mn  Mn7  1  0.79051805  0.04430472  0.59420364  1
  Mn  Mn8  1  0.18099384  0.98399081  0.38774658  1
  Mn  Mn9  1  0.51781305  0.49826905  0.01845264  1
  Sb  Sb10  1  0.89409725  0.00102186  0.45028710  1
  Sb  Sb11  1  0.10623030  0.99634758  0.54135139  1
  Sb  Sb12  1  0.02826076  0.51325559  0.80774855  1
  Sb  Sb13  1  0.97252622  0.45969293  0.19285406  1
  Sb  Sb14  1  0.40477536  0.50413453  0.46603697  1
  Sb  Sb15  1  0.60080730  0.41922496  0.55321371  1
  Sb  Sb16  1  0.52754574  0.98779588  0.81137857  1
  Sb  Sb17  1  0.46571801  0.97933543  0.18305505  1
  S  S18  1  0.93802270  0.95126883  0.80947254  1
  S  S19  1  0.06965560  0.95521013  0.20913794  1
  S  S20  1  0.41646982  0.97643794  0.98263578  1
  S  S21  1  0.58832202  0.99469994  0.02605961  1
  S  S22  1  0.18197984  0.99600023  0.89926855  1
  S  S23  1  0.83420687  0.99533383  0.10323810  1
  S  S24  1  0.11489720  0.50338667  0.66399699  1
  S  S25  1  0.89876700  0.47211314  0.34309601  1
  S  S26  1  0.74096298  0.99082394  0.32059814  1
  S  S27  1  0.26584144  0.00695708  0.68663499  1
  S  S28  1  0.15776809  0.48743850  0.45319168  1
  S  S29  1  0.83253224  0.53404710  0.55363600  1
  S  S30  1  0.44827220  0.49307903  0.82516521  1
  S  S31  1  0.57502054  0.53492475  0.20797558  1
  S  S32  1  0.91416988  0.44554535  0.98058605  1
  S  S33  1  0.07456807  0.43371792  0.00225439  1
  S  S34  1  0.68279522  0.46717874  0.90498328  1
  S  S35  1  0.34407476  0.49290047  0.11101634  1
  S  S36  1  0.60403101  0.96885891  0.67266697  1
  S  S37  1  0.41986848  0.01443868  0.36560140  1
  S  S38  1  0.25655446  0.46389441  0.28063585  1
  S  S39  1  0.76514630  0.44587463  0.68723414  1
  S  S40  1  0.66617181  0.99213663  0.44324926  1
  S  S41  1  0.31488308  0.05086598  0.52748953  1
