# generated using pymatgen
data_Pr2Mn3(SbS3)4
_symmetry_space_group_name_H-M   'P 1'
_cell_length_a   20.02960800
_cell_length_b   3.90410600
_cell_length_c   14.95364829
_cell_angle_alpha   90.00000000
_cell_angle_beta   126.33350609
_cell_angle_gamma   90.00000000
_symmetry_Int_Tables_number   1
_chemical_formula_structural   Pr2Mn3(SbS3)4
_chemical_formula_sum   'Pr4 Mn6 Sb8 S24'
_cell_volume   942.00006694
_cell_formula_units_Z   2
loop_
 _symmetry_equiv_pos_site_id
 _symmetry_equiv_pos_as_xyz
  1  'x, y, z'
loop_
 _atom_site_type_symbol
 _atom_site_label
 _atom_site_symmetry_multiplicity
 _atom_site_fract_x
 _atom_site_fract_y
 _atom_site_fract_z
 _atom_site_occupancy
  Pr  Pr0  1  0.26974673  0.50270795  0.86770705  1
  Pr  Pr1  1  0.73315702  0.51343005  0.13323849  1
  Pr  Pr2  1  0.76542093  0.02967579  0.86757688  1
  Pr  Pr3  1  0.23192172  0.98963675  0.13116778  1
  Mn  Mn4  1  0.30112961  0.47187757  0.60712416  1
  Mn  Mn5  1  0.68581717  0.46627000  0.36257044  1
  Mn  Mn6  1  0.00262680  0.99019350  0.01055985  1
  Mn  Mn7  1  0.79503677  0.01720303  0.61633013  1
  Mn  Mn8  1  0.19334772  0.99206642  0.36562060  1
  Mn  Mn9  1  0.48324966  0.47325764  0.98264128  1
  Sb  Sb10  1  0.88983137  0.98528126  0.44829634  1
  Sb  Sb11  1  0.10986716  0.98103349  0.54558214  1
  Sb  Sb12  1  0.03466363  0.53232399  0.82087597  1
  Sb  Sb13  1  0.96674518  0.49754924  0.18900035  1
  Sb  Sb14  1  0.39443141  0.49983020  0.44936775  1
  Sb  Sb15  1  0.60983505  0.47904043  0.54727855  1
  Sb  Sb16  1  0.53253085  0.97509793  0.80647730  1
  Sb  Sb17  1  0.46480817  0.02343849  0.18727089  1
  S  S18  1  0.93754938  0.01980843  0.80933327  1
  S  S19  1  0.06758164  0.01111558  0.20733728  1
  S  S20  1  0.41759387  0.97134956  0.98506966  1
  S  S21  1  0.58751000  0.04025312  0.01630192  1
  S  S22  1  0.16722022  0.04104708  0.90095647  1
  S  S23  1  0.82649928  0.01873058  0.10499042  1
  S  S24  1  0.08694613  0.49727739  0.64250453  1
  S  S25  1  0.91343496  0.48061069  0.35106240  1
  S  S26  1  0.73689011  0.00496204  0.29719168  1
  S  S27  1  0.25690340  0.01723176  0.70372845  1
  S  S28  1  0.16907599  0.51497292  0.43760667  1
  S  S29  1  0.80899805  0.50568799  0.53786320  1
  S  S30  1  0.43037714  0.47114569  0.79589992  1
  S  S31  1  0.55216602  0.51476210  0.17927161  1
  S  S32  1  0.92325805  0.50376386  0.99433860  1
  S  S33  1  0.09027002  0.49940495  0.02654188  1
  S  S34  1  0.66678790  0.55749329  0.89893226  1
  S  S35  1  0.32894774  0.47017179  0.09433903  1
  S  S36  1  0.58654088  0.99279512  0.64657589  1
  S  S37  1  0.39584057  0.97765272  0.33597383  1
  S  S38  1  0.24697225  0.47686335  0.31644143  1
  S  S39  1  0.75988762  0.52872388  0.68898464  1
  S  S40  1  0.66375177  0.98455124  0.44514537  1
  S  S41  1  0.32895019  0.98039630  0.55371889  1
