# generated using pymatgen
data_Pr2Mn3(SbS3)4
_symmetry_space_group_name_H-M   'P 1'
_cell_length_a   20.02960800
_cell_length_b   3.90410600
_cell_length_c   14.95364829
_cell_angle_alpha   90.00000000
_cell_angle_beta   126.33350609
_cell_angle_gamma   90.00000000
_symmetry_Int_Tables_number   1
_chemical_formula_structural   Pr2Mn3(SbS3)4
_chemical_formula_sum   'Pr4 Mn6 Sb8 S24'
_cell_volume   942.00006694
_cell_formula_units_Z   2
loop_
 _symmetry_equiv_pos_site_id
 _symmetry_equiv_pos_as_xyz
  1  'x, y, z'
loop_
 _atom_site_type_symbol
 _atom_site_label
 _atom_site_symmetry_multiplicity
 _atom_site_fract_x
 _atom_site_fract_y
 _atom_site_fract_z
 _atom_site_occupancy
  Pr  Pr0  1  0.26084533  0.47333411  0.86774654  1
  Pr  Pr1  1  0.73347804  0.54646926  0.13449334  1
  Pr  Pr2  1  0.77251723  0.98939597  0.87076874  1
  Pr  Pr3  1  0.22875341  0.97753480  0.13123558  1
  Mn  Mn4  1  0.28442638  0.58026922  0.58158687  1
  Mn  Mn5  1  0.71179813  0.50852718  0.40499483  1
  Mn  Mn6  1  0.99630141  0.93815647  0.99327032  1
  Mn  Mn7  1  0.79059799  0.04411226  0.59434647  1
  Mn  Mn8  1  0.18090387  0.98399076  0.38781105  1
  Mn  Mn9  1  0.51780148  0.49883864  0.01844576  1
  Sb  Sb10  1  0.89419929  0.00128251  0.45037385  1
  Sb  Sb11  1  0.10625753  0.99546102  0.54136584  1
  Sb  Sb12  1  0.02816146  0.51285459  0.80763318  1
  Sb  Sb13  1  0.97238148  0.45998709  0.19277581  1
  Sb  Sb14  1  0.40459287  0.50441056  0.46579382  1
  Sb  Sb15  1  0.60076000  0.41868516  0.55317340  1
  Sb  Sb16  1  0.52762644  0.98825903  0.81115715  1
  Sb  Sb17  1  0.46576398  0.97971435  0.18305534  1
  S  S18  1  0.93784125  0.95062575  0.80933329  1
  S  S19  1  0.07000303  0.95470440  0.20965704  1
  S  S20  1  0.41659760  0.97595613  0.98315936  1
  S  S21  1  0.58803538  0.99585681  0.02628609  1
  S  S22  1  0.18183482  0.99752611  0.89898802  1
  S  S23  1  0.83446628  0.99570402  0.10353852  1
  S  S24  1  0.11544173  0.50449938  0.66430371  1
  S  S25  1  0.89847907  0.47319666  0.34242451  1
  S  S26  1  0.74053588  0.99134566  0.32053998  1
  S  S27  1  0.26586200  0.00818194  0.68678416  1
  S  S28  1  0.15776235  0.48632680  0.45320216  1
  S  S29  1  0.83243694  0.53486224  0.55373360  1
  S  S30  1  0.44822402  0.49350942  0.82513007  1
  S  S31  1  0.57476818  0.53518015  0.20786780  1
  S  S32  1  0.91404826  0.44615590  0.98033024  1
  S  S33  1  0.07446422  0.43371276  0.00202258  1
  S  S34  1  0.68278123  0.46518835  0.90509450  1
  S  S35  1  0.34449416  0.49139534  0.11168398  1
  S  S36  1  0.60424022  0.97034470  0.67321859  1
  S  S37  1  0.41974351  0.01392566  0.36568952  1
  S  S38  1  0.25676642  0.46327877  0.28096923  1
  S  S39  1  0.76495244  0.44634188  0.68705675  1
  S  S40  1  0.66600755  0.99110860  0.44320180  1
  S  S41  1  0.31440985  0.05053515  0.52719963  1
