# generated using pymatgen
data_Pr2Mn3(SbS3)4
_symmetry_space_group_name_H-M   'P 1'
_cell_length_a   20.02960800
_cell_length_b   3.90410600
_cell_length_c   14.95364829
_cell_angle_alpha   90.00000000
_cell_angle_beta   126.33350609
_cell_angle_gamma   90.00000000
_symmetry_Int_Tables_number   1
_chemical_formula_structural   Pr2Mn3(SbS3)4
_chemical_formula_sum   'Pr4 Mn6 Sb8 S24'
_cell_volume   942.00006694
_cell_formula_units_Z   2
loop_
 _symmetry_equiv_pos_site_id
 _symmetry_equiv_pos_as_xyz
  1  'x, y, z'
loop_
 _atom_site_type_symbol
 _atom_site_label
 _atom_site_symmetry_multiplicity
 _atom_site_fract_x
 _atom_site_fract_y
 _atom_site_fract_z
 _atom_site_occupancy
  Pr  Pr0  1  0.26101647  0.47256257  0.86795370  1
  Pr  Pr1  1  0.73333127  0.54643908  0.13444843  1
  Pr  Pr2  1  0.77245749  0.98927885  0.87063416  1
  Pr  Pr3  1  0.22875183  0.97759239  0.13114487  1
  Mn  Mn4  1  0.28440323  0.57939138  0.58199202  1
  Mn  Mn5  1  0.71149851  0.50907815  0.40471444  1
  Mn  Mn6  1  0.99639525  0.93793582  0.99326411  1
  Mn  Mn7  1  0.79071176  0.04408994  0.59459794  1
  Mn  Mn8  1  0.18078829  0.98417562  0.38782041  1
  Mn  Mn9  1  0.51794984  0.49946501  0.01855301  1
  Sb  Sb10  1  0.89426331  0.00133193  0.45044318  1
  Sb  Sb11  1  0.10629641  0.99510303  0.54130426  1
  Sb  Sb12  1  0.02808086  0.51260340  0.80749348  1
  Sb  Sb13  1  0.97228080  0.46020803  0.19276492  1
  Sb  Sb14  1  0.40455724  0.50464510  0.46557961  1
  Sb  Sb15  1  0.60075404  0.41819472  0.55320538  1
  Sb  Sb16  1  0.52767187  0.98858259  0.81092583  1
  Sb  Sb17  1  0.46586154  0.98009341  0.18310556  1
  S  S18  1  0.93774961  0.95014798  0.80936081  1
  S  S19  1  0.07037827  0.95414295  0.21013294  1
  S  S20  1  0.41672745  0.97507210  0.98369480  1
  S  S21  1  0.58779882  0.99656082  0.02645641  1
  S  S22  1  0.18153485  0.99872352  0.89851128  1
  S  S23  1  0.83468110  0.99568925  0.10369448  1
  S  S24  1  0.11595415  0.50599042  0.66449576  1
  S  S25  1  0.89834785  0.47348836  0.34177453  1
  S  S26  1  0.74025381  0.99181436  0.32076695  1
  S  S27  1  0.26587292  0.00965854  0.68690151  1
  S  S28  1  0.15786368  0.48518761  0.45331160  1
  S  S29  1  0.83246201  0.53642118  0.55391226  1
  S  S30  1  0.44820944  0.49403975  0.82509665  1
  S  S31  1  0.57440679  0.53586493  0.20779374  1
  S  S32  1  0.91397641  0.44675177  0.98020215  1
  S  S33  1  0.07436579  0.43310952  0.00171926  1
  S  S34  1  0.68276627  0.46357092  0.90523044  1
  S  S35  1  0.34500250  0.48980345  0.11243731  1
  S  S36  1  0.60457275  0.97144138  0.67371756  1
  S  S37  1  0.41956824  0.01321253  0.36559015  1
  S  S38  1  0.25683788  0.46247001  0.28112131  1
  S  S39  1  0.76481255  0.44658647  0.68678925  1
  S  S40  1  0.66595791  0.98982586  0.44313248  1
  S  S41  1  0.31403288  0.05006375  0.52702321  1
