# generated using pymatgen
data_Pr2Mn3(SbS3)4
_symmetry_space_group_name_H-M   'P 1'
_cell_length_a   20.02960800
_cell_length_b   3.90410600
_cell_length_c   14.95364829
_cell_angle_alpha   90.00000000
_cell_angle_beta   126.33350609
_cell_angle_gamma   90.00000000
_symmetry_Int_Tables_number   1
_chemical_formula_structural   Pr2Mn3(SbS3)4
_chemical_formula_sum   'Pr4 Mn6 Sb8 S24'
_cell_volume   942.00006694
_cell_formula_units_Z   2
loop_
 _symmetry_equiv_pos_site_id
 _symmetry_equiv_pos_as_xyz
  1  'x, y, z'
loop_
 _atom_site_type_symbol
 _atom_site_label
 _atom_site_symmetry_multiplicity
 _atom_site_fract_x
 _atom_site_fract_y
 _atom_site_fract_z
 _atom_site_occupancy
  Pr  Pr0  1  0.26115869  0.47181017  0.86813210  1
  Pr  Pr1  1  0.73320392  0.54653966  0.13434562  1
  Pr  Pr2  1  0.77241041  0.98940271  0.87044570  1
  Pr  Pr3  1  0.22874859  0.97763243  0.13116468  1
  Mn  Mn4  1  0.28427360  0.57843307  0.58221403  1
  Mn  Mn5  1  0.71113304  0.50943001  0.40433497  1
  Mn  Mn6  1  0.99641547  0.93773610  0.99329343  1
  Mn  Mn7  1  0.79078692  0.04456441  0.59472430  1
  Mn  Mn8  1  0.18066401  0.98490231  0.38780183  1
  Mn  Mn9  1  0.51821769  0.49989826  0.01871888  1
  Sb  Sb10  1  0.89440900  0.00158467  0.45059517  1
  Sb  Sb11  1  0.10636032  0.99477071  0.54127506  1
  Sb  Sb12  1  0.02802779  0.51224446  0.80738561  1
  Sb  Sb13  1  0.97218245  0.46045693  0.19273040  1
  Sb  Sb14  1  0.40460015  0.50492840  0.46542836  1
  Sb  Sb15  1  0.60084025  0.41788924  0.55325948  1
  Sb  Sb16  1  0.52772252  0.98906341  0.81078221  1
  Sb  Sb17  1  0.46599288  0.98061500  0.18314300  1
  S  S18  1  0.93774133  0.95070866  0.80942115  1
  S  S19  1  0.07075311  0.95345004  0.21058895  1
  S  S20  1  0.41681108  0.97387235  0.98421192  1
  S  S21  1  0.58752643  0.99705134  0.02663954  1
  S  S22  1  0.18134848  0.99971497  0.89809718  1
  S  S23  1  0.83502935  0.99551940  0.10382723  1
  S  S24  1  0.11636247  0.50714774  0.66461012  1
  S  S25  1  0.89817907  0.47408929  0.34115734  1
  S  S26  1  0.74002577  0.99231352  0.32108998  1
  S  S27  1  0.26582867  0.01129094  0.68689554  1
  S  S28  1  0.15794343  0.48410226  0.45352428  1
  S  S29  1  0.83247058  0.53750836  0.55399436  1
  S  S30  1  0.44814425  0.49481103  0.82506558  1
  S  S31  1  0.57389959  0.53697740  0.20773465  1
  S  S32  1  0.91392782  0.44718398  0.98011720  1
  S  S33  1  0.07438160  0.43299329  0.00181639  1
  S  S34  1  0.68274256  0.46215290  0.90540587  1
  S  S35  1  0.34544874  0.48815204  0.11292730  1
  S  S36  1  0.60495936  0.97212145  0.67414733  1
  S  S37  1  0.41942349  0.01296416  0.36546886  1
  S  S38  1  0.25703462  0.46104485  0.28136718  1
  S  S39  1  0.76472547  0.44666533  0.68666170  1
  S  S40  1  0.66587191  0.98837777  0.44304258  1
  S  S41  1  0.31380861  0.04999603  0.52705701  1
