# generated using pymatgen
data_Pr2Mn3(SbS3)4
_symmetry_space_group_name_H-M   'P 1'
_cell_length_a   20.02960800
_cell_length_b   3.90410600
_cell_length_c   14.95364829
_cell_angle_alpha   90.00000000
_cell_angle_beta   126.33350609
_cell_angle_gamma   90.00000000
_symmetry_Int_Tables_number   1
_chemical_formula_structural   Pr2Mn3(SbS3)4
_chemical_formula_sum   'Pr4 Mn6 Sb8 S24'
_cell_volume   942.00006694
_cell_formula_units_Z   2
loop_
 _symmetry_equiv_pos_site_id
 _symmetry_equiv_pos_as_xyz
  1  'x, y, z'
loop_
 _atom_site_type_symbol
 _atom_site_label
 _atom_site_symmetry_multiplicity
 _atom_site_fract_x
 _atom_site_fract_y
 _atom_site_fract_z
 _atom_site_occupancy
  Pr  Pr0  1  0.26130517  0.47107749  0.86829256  1
  Pr  Pr1  1  0.73308399  0.54655563  0.13419223  1
  Pr  Pr2  1  0.77233575  0.98948257  0.87024711  1
  Pr  Pr3  1  0.22866971  0.97765688  0.13118299  1
  Mn  Mn4  1  0.28409307  0.57751631  0.58237646  1
  Mn  Mn5  1  0.71065194  0.50980875  0.40392779  1
  Mn  Mn6  1  0.99636585  0.93739659  0.99320179  1
  Mn  Mn7  1  0.79089900  0.04502709  0.59492667  1
  Mn  Mn8  1  0.18052244  0.98620646  0.38768529  1
  Mn  Mn9  1  0.51840896  0.50062722  0.01902205  1
  Sb  Sb10  1  0.89453487  0.00202772  0.45070443  1
  Sb  Sb11  1  0.10639217  0.99459951  0.54133930  1
  Sb  Sb12  1  0.02793252  0.51187865  0.80722825  1
  Sb  Sb13  1  0.97202236  0.46062323  0.19274334  1
  Sb  Sb14  1  0.40459014  0.50536074  0.46536821  1
  Sb  Sb15  1  0.60095199  0.41747865  0.55330735  1
  Sb  Sb16  1  0.52774972  0.98949445  0.81071355  1
  Sb  Sb17  1  0.46610304  0.98105253  0.18317663  1
  S  S18  1  0.93767520  0.95095238  0.80944719  1
  S  S19  1  0.07105324  0.95273285  0.21097510  1
  S  S20  1  0.41680742  0.97273190  0.98478512  1
  S  S21  1  0.58720874  0.99697346  0.02662873  1
  S  S22  1  0.18124518  0.00092954  0.89790810  1
  S  S23  1  0.83535986  0.99574147  0.10402950  1
  S  S24  1  0.11652549  0.50777923  0.66461992  1
  S  S25  1  0.89800200  0.47503256  0.34056665  1
  S  S26  1  0.73975704  0.99273432  0.32146917  1
  S  S27  1  0.26581216  0.01273417  0.68691944  1
  S  S28  1  0.15799604  0.48276146  0.45357102  1
  S  S29  1  0.83243327  0.53836614  0.55395752  1
  S  S30  1  0.44804687  0.49535677  0.82497889  1
  S  S31  1  0.57340753  0.53833223  0.20765833  1
  S  S32  1  0.91378220  0.44772810  0.97984346  1
  S  S33  1  0.07429728  0.43374367  0.00184855  1
  S  S34  1  0.68281135  0.46026477  0.90559607  1
  S  S35  1  0.34590879  0.48678148  0.11321609  1
  S  S36  1  0.60539885  0.97257375  0.67454954  1
  S  S37  1  0.41926548  0.01287643  0.36525548  1
  S  S38  1  0.25726358  0.45963106  0.28163237  1
  S  S39  1  0.76469073  0.44629501  0.68668925  1
  S  S40  1  0.66577266  0.98711693  0.44302926  1
  S  S41  1  0.31372313  0.04995038  0.52723757  1
