# generated using pymatgen
data_Pr2Mn3(SbS3)4
_symmetry_space_group_name_H-M   'P 1'
_cell_length_a   20.02960800
_cell_length_b   3.90410600
_cell_length_c   14.95364829
_cell_angle_alpha   90.00000000
_cell_angle_beta   126.33350609
_cell_angle_gamma   90.00000000
_symmetry_Int_Tables_number   1
_chemical_formula_structural   Pr2Mn3(SbS3)4
_chemical_formula_sum   'Pr4 Mn6 Sb8 S24'
_cell_volume   942.00006694
_cell_formula_units_Z   2
loop_
 _symmetry_equiv_pos_site_id
 _symmetry_equiv_pos_as_xyz
  1  'x, y, z'
loop_
 _atom_site_type_symbol
 _atom_site_label
 _atom_site_symmetry_multiplicity
 _atom_site_fract_x
 _atom_site_fract_y
 _atom_site_fract_z
 _atom_site_occupancy
  Pr  Pr0  1  0.26142056  0.47035631  0.86838896  1
  Pr  Pr1  1  0.73295766  0.54664358  0.13395101  1
  Pr  Pr2  1  0.77227854  0.98947319  0.87017092  1
  Pr  Pr3  1  0.22858600  0.97773538  0.13117541  1
  Mn  Mn4  1  0.28394024  0.57693537  0.58251975  1
  Mn  Mn5  1  0.71012667  0.50975518  0.40357904  1
  Mn  Mn6  1  0.99623107  0.93730840  0.99306213  1
  Mn  Mn7  1  0.79109015  0.04537863  0.59515378  1
  Mn  Mn8  1  0.18034760  0.98751459  0.38765916  1
  Mn  Mn9  1  0.51851701  0.50065929  0.01923672  1
  Sb  Sb10  1  0.89465105  0.00228966  0.45076469  1
  Sb  Sb11  1  0.10649656  0.99414260  0.54136797  1
  Sb  Sb12  1  0.02782565  0.51175579  0.80707589  1
  Sb  Sb13  1  0.97187839  0.46057074  0.19273857  1
  Sb  Sb14  1  0.40463997  0.50616758  0.46545149  1
  Sb  Sb15  1  0.60105037  0.41707297  0.55336274  1
  Sb  Sb16  1  0.52778869  0.98996222  0.81065764  1
  Sb  Sb17  1  0.46625153  0.98162588  0.18325547  1
  S  S18  1  0.93761112  0.95078792  0.80925675  1
  S  S19  1  0.07137152  0.95228500  0.21136345  1
  S  S20  1  0.41684476  0.97127037  0.98532021  1
  S  S21  1  0.58700578  0.99695497  0.02685021  1
  S  S22  1  0.18110414  0.00251669  0.89765666  1
  S  S23  1  0.83555617  0.99591645  0.10414612  1
  S  S24  1  0.11667696  0.50842337  0.66476259  1
  S  S25  1  0.89784726  0.47605515  0.34010907  1
  S  S26  1  0.73956920  0.99334995  0.32195124  1
  S  S27  1  0.26576990  0.01490866  0.68698782  1
  S  S28  1  0.15818517  0.48060679  0.45397321  1
  S  S29  1  0.83254753  0.53853659  0.55405751  1
  S  S30  1  0.44779504  0.49663896  0.82471453  1
  S  S31  1  0.57300320  0.53971309  0.20760524  1
  S  S32  1  0.91359622  0.44766627  0.97954125  1
  S  S33  1  0.07408163  0.43498005  0.00180871  1
  S  S34  1  0.68280706  0.45816293  0.90554197  1
  S  S35  1  0.34627857  0.48543265  0.11340683  1
  S  S36  1  0.60584699  0.97282228  0.67505478  1
  S  S37  1  0.41913182  0.01270655  0.36497646  1
  S  S38  1  0.25761927  0.45857798  0.28198493  1
  S  S39  1  0.76464641  0.44579634  0.68676339  1
  S  S40  1  0.66587504  0.98581157  0.44309930  1
  S  S41  1  0.31360490  0.04949398  0.52754221  1
