# generated using pymatgen
data_Pr2Mn3(SbS3)4
_symmetry_space_group_name_H-M   'P 1'
_cell_length_a   20.02960800
_cell_length_b   3.90410600
_cell_length_c   14.95364829
_cell_angle_alpha   90.00000000
_cell_angle_beta   126.33350609
_cell_angle_gamma   90.00000000
_symmetry_Int_Tables_number   1
_chemical_formula_structural   Pr2Mn3(SbS3)4
_chemical_formula_sum   'Pr4 Mn6 Sb8 S24'
_cell_volume   942.00006694
_cell_formula_units_Z   2
loop_
 _symmetry_equiv_pos_site_id
 _symmetry_equiv_pos_as_xyz
  1  'x, y, z'
loop_
 _atom_site_type_symbol
 _atom_site_label
 _atom_site_symmetry_multiplicity
 _atom_site_fract_x
 _atom_site_fract_y
 _atom_site_fract_z
 _atom_site_occupancy
  Pr  Pr0  1  0.26152793  0.46964990  0.86853498  1
  Pr  Pr1  1  0.73290692  0.54666973  0.13381714  1
  Pr  Pr2  1  0.77222209  0.98934366  0.87007877  1
  Pr  Pr3  1  0.22848292  0.97803539  0.13115096  1
  Mn  Mn4  1  0.28394136  0.57629441  0.58275059  1
  Mn  Mn5  1  0.70975803  0.50928619  0.40342302  1
  Mn  Mn6  1  0.99607816  0.93707988  0.99284785  1
  Mn  Mn7  1  0.79136802  0.04576652  0.59542453  1
  Mn  Mn8  1  0.18007607  0.98851106  0.38759130  1
  Mn  Mn9  1  0.51866723  0.50043378  0.01946119  1
  Sb  Sb10  1  0.89478448  0.00261887  0.45088000  1
  Sb  Sb11  1  0.10662083  0.99345830  0.54137009  1
  Sb  Sb12  1  0.02778605  0.51187141  0.80697015  1
  Sb  Sb13  1  0.97180393  0.46039032  0.19277196  1
  Sb  Sb14  1  0.40470531  0.50693127  0.46553335  1
  Sb  Sb15  1  0.60107579  0.41689869  0.55331928  1
  Sb  Sb16  1  0.52780262  0.99041961  0.81060231  1
  Sb  Sb17  1  0.46636734  0.98185238  0.18334653  1
  S  S18  1  0.93741607  0.95032801  0.80888823  1
  S  S19  1  0.07158134  0.95205352  0.21170661  1
  S  S20  1  0.41671853  0.96965566  0.98578457  1
  S  S21  1  0.58666452  0.99757879  0.02693810  1
  S  S22  1  0.18097819  0.00357643  0.89748937  1
  S  S23  1  0.83575334  0.99584529  0.10428242  1
  S  S24  1  0.11699337  0.50868309  0.66500446  1
  S  S25  1  0.89753116  0.47664365  0.33964419  1
  S  S26  1  0.73960963  0.99417031  0.32248961  1
  S  S27  1  0.26568986  0.01668786  0.68701785  1
  S  S28  1  0.15840049  0.47865398  0.45439048  1
  S  S29  1  0.83279680  0.53884026  0.55414313  1
  S  S30  1  0.44744148  0.49757410  0.82430965  1
  S  S31  1  0.57249112  0.54069401  0.20734392  1
  S  S32  1  0.91336108  0.44717540  0.97920466  1
  S  S33  1  0.07392081  0.43655704  0.00179054  1
  S  S34  1  0.68267467  0.45564580  0.90526964  1
  S  S35  1  0.34655469  0.48430609  0.11356357  1
  S  S36  1  0.60630591  0.97269683  0.67571615  1
  S  S37  1  0.41904078  0.01227322  0.36469617  1
  S  S38  1  0.25798728  0.45759028  0.28226869  1
  S  S39  1  0.76447618  0.44515156  0.68653284  1
  S  S40  1  0.66593780  0.98425309  0.44316335  1
  S  S41  1  0.31342196  0.04890643  0.52785762  1
