# generated using pymatgen
data_Pr2Mn3(SbS3)4
_symmetry_space_group_name_H-M   'P 1'
_cell_length_a   20.02960800
_cell_length_b   3.90410600
_cell_length_c   14.95364829
_cell_angle_alpha   90.00000000
_cell_angle_beta   126.33350609
_cell_angle_gamma   90.00000000
_symmetry_Int_Tables_number   1
_chemical_formula_structural   Pr2Mn3(SbS3)4
_chemical_formula_sum   'Pr4 Mn6 Sb8 S24'
_cell_volume   942.00006694
_cell_formula_units_Z   2
loop_
 _symmetry_equiv_pos_site_id
 _symmetry_equiv_pos_as_xyz
  1  'x, y, z'
loop_
 _atom_site_type_symbol
 _atom_site_label
 _atom_site_symmetry_multiplicity
 _atom_site_fract_x
 _atom_site_fract_y
 _atom_site_fract_z
 _atom_site_occupancy
  Pr  Pr0  1  0.26164294  0.46885222  0.86864808  1
  Pr  Pr1  1  0.73285119  0.54651384  0.13373593  1
  Pr  Pr2  1  0.77218936  0.98921569  0.86998103  1
  Pr  Pr3  1  0.22830528  0.97804402  0.13110733  1
  Mn  Mn4  1  0.28397881  0.57577500  0.58304867  1
  Mn  Mn5  1  0.70941223  0.50865724  0.40329689  1
  Mn  Mn6  1  0.99589526  0.93717557  0.99256494  1
  Mn  Mn7  1  0.79159791  0.04594839  0.59565365  1
  Mn  Mn8  1  0.17990763  0.98976427  0.38757074  1
  Mn  Mn9  1  0.51880762  0.50007317  0.01982143  1
  Sb  Sb10  1  0.89488760  0.00278613  0.45091998  1
  Sb  Sb11  1  0.10664827  0.99287202  0.54127830  1
  Sb  Sb12  1  0.02783265  0.51190387  0.80694283  1
  Sb  Sb13  1  0.97172914  0.46017673  0.19277681  1
  Sb  Sb14  1  0.40468741  0.50780503  0.46552428  1
  Sb  Sb15  1  0.60106832  0.41694436  0.55328414  1
  Sb  Sb16  1  0.52779056  0.99095826  0.81057685  1
  Sb  Sb17  1  0.46640551  0.98238378  0.18332933  1
  S  S18  1  0.93703617  0.94988122  0.80841382  1
  S  S19  1  0.07175158  0.95193845  0.21182428  1
  S  S20  1  0.41656832  0.96853588  0.98593248  1
  S  S21  1  0.58655059  0.99812113  0.02712143  1
  S  S22  1  0.18100144  0.00421766  0.89735851  1
  S  S23  1  0.83596315  0.99585423  0.10432539  1
  S  S24  1  0.11705764  0.50969681  0.66480540  1
  S  S25  1  0.89697147  0.47734777  0.33897202  1
  S  S26  1  0.73966783  0.99485843  0.32320262  1
  S  S27  1  0.26548819  0.01886244  0.68694655  1
  S  S28  1  0.15851196  0.47639338  0.45449154  1
  S  S29  1  0.83287821  0.53924605  0.55401950  1
  S  S30  1  0.44703593  0.49880935  0.82388790  1
  S  S31  1  0.57205124  0.54130436  0.20702270  1
  S  S32  1  0.91319850  0.44737368  0.97890078  1
  S  S33  1  0.07381260  0.43854241  0.00186542  1
  S  S34  1  0.68254591  0.45309645  0.90489472  1
  S  S35  1  0.34697492  0.48326266  0.11378225  1
  S  S36  1  0.60702281  0.97258475  0.67640393  1
  S  S37  1  0.41893756  0.01129115  0.36441714  1
  S  S38  1  0.25828399  0.45693536  0.28276021  1
  S  S39  1  0.76438952  0.44466949  0.68629326  1
  S  S40  1  0.66594515  0.98291891  0.44313620  1
  S  S41  1  0.31317955  0.04911433  0.52792134  1
