# generated using pymatgen
data_Pr2Mn3(SbS3)4
_symmetry_space_group_name_H-M   'P 1'
_cell_length_a   20.02960800
_cell_length_b   3.90410600
_cell_length_c   14.95364829
_cell_angle_alpha   90.00000000
_cell_angle_beta   126.33350609
_cell_angle_gamma   90.00000000
_symmetry_Int_Tables_number   1
_chemical_formula_structural   Pr2Mn3(SbS3)4
_chemical_formula_sum   'Pr4 Mn6 Sb8 S24'
_cell_volume   942.00006694
_cell_formula_units_Z   2
loop_
 _symmetry_equiv_pos_site_id
 _symmetry_equiv_pos_as_xyz
  1  'x, y, z'
loop_
 _atom_site_type_symbol
 _atom_site_label
 _atom_site_symmetry_multiplicity
 _atom_site_fract_x
 _atom_site_fract_y
 _atom_site_fract_z
 _atom_site_occupancy
  Pr  Pr0  1  0.26181636  0.46830726  0.86876385  1
  Pr  Pr1  1  0.73273863  0.54652524  0.13362190  1
  Pr  Pr2  1  0.77214291  0.98914521  0.86986903  1
  Pr  Pr3  1  0.22818318  0.97779602  0.13110315  1
  Mn  Mn4  1  0.28394701  0.57539508  0.58327811  1
  Mn  Mn5  1  0.70909925  0.50780663  0.40325288  1
  Mn  Mn6  1  0.99579174  0.93719356  0.99223105  1
  Mn  Mn7  1  0.79191363  0.04601895  0.59604207  1
  Mn  Mn8  1  0.17986717  0.99102416  0.38771284  1
  Mn  Mn9  1  0.51897807  0.49943503  0.02019891  1
  Sb  Sb10  1  0.89507548  0.00311071  0.45100598  1
  Sb  Sb11  1  0.10674053  0.99222503  0.54139184  1
  Sb  Sb12  1  0.02782056  0.51167968  0.80684984  1
  Sb  Sb13  1  0.97168472  0.46026838  0.19276532  1
  Sb  Sb14  1  0.40467200  0.50842408  0.46552095  1
  Sb  Sb15  1  0.60108770  0.41683785  0.55314003  1
  Sb  Sb16  1  0.52774793  0.99130530  0.81059661  1
  Sb  Sb17  1  0.46644065  0.98287663  0.18336160  1
  S  S18  1  0.93674089  0.94955515  0.80814080  1
  S  S19  1  0.07176746  0.95172547  0.21154616  1
  S  S20  1  0.41651523  0.96762073  0.98625028  1
  S  S21  1  0.58647260  0.99868283  0.02740942  1
  S  S22  1  0.18100952  0.00451130  0.89733235  1
  S  S23  1  0.83616732  0.99513566  0.10454243  1
  S  S24  1  0.11706547  0.51117849  0.66438702  1
  S  S25  1  0.89637898  0.47746902  0.33832824  1
  S  S26  1  0.73967129  0.99560605  0.32381634  1
  S  S27  1  0.26516688  0.02039096  0.68695512  1
  S  S28  1  0.15868290  0.47440848  0.45473773  1
  S  S29  1  0.83312454  0.54014271  0.55411268  1
  S  S30  1  0.44670490  0.49962986  0.82358586  1
  S  S31  1  0.57184625  0.54225605  0.20677144  1
  S  S32  1  0.91304538  0.44720421  0.97847915  1
  S  S33  1  0.07368552  0.44046064  0.00175533  1
  S  S34  1  0.68244985  0.45067490  0.90445258  1
  S  S35  1  0.34741313  0.48283345  0.11419983  1
  S  S36  1  0.60776229  0.97286492  0.67705094  1
  S  S37  1  0.41879292  0.01108842  0.36415667  1
  S  S38  1  0.25861693  0.45611781  0.28329011  1
  S  S39  1  0.76412941  0.44458699  0.68581178  1
  S  S40  1  0.66593767  0.98208922  0.44304665  1
  S  S41  1  0.31311181  0.04928132  0.52815239  1
