# generated using pymatgen
data_Pr2Mn3(SbS3)4
_symmetry_space_group_name_H-M   'P 1'
_cell_length_a   20.02960800
_cell_length_b   3.90410600
_cell_length_c   14.95364829
_cell_angle_alpha   90.00000000
_cell_angle_beta   126.33350609
_cell_angle_gamma   90.00000000
_symmetry_Int_Tables_number   1
_chemical_formula_structural   Pr2Mn3(SbS3)4
_chemical_formula_sum   'Pr4 Mn6 Sb8 S24'
_cell_volume   942.00006694
_cell_formula_units_Z   2
loop_
 _symmetry_equiv_pos_site_id
 _symmetry_equiv_pos_as_xyz
  1  'x, y, z'
loop_
 _atom_site_type_symbol
 _atom_site_label
 _atom_site_symmetry_multiplicity
 _atom_site_fract_x
 _atom_site_fract_y
 _atom_site_fract_z
 _atom_site_occupancy
  Pr  Pr0  1  0.26199751  0.46766153  0.86894240  1
  Pr  Pr1  1  0.73267780  0.54653561  0.13359732  1
  Pr  Pr2  1  0.77219288  0.98903962  0.86983336  1
  Pr  Pr3  1  0.22811863  0.97736100  0.13111222  1
  Mn  Mn4  1  0.28404532  0.57519681  0.58348556  1
  Mn  Mn5  1  0.70873300  0.50717675  0.40318732  1
  Mn  Mn6  1  0.99564013  0.93695134  0.99178681  1
  Mn  Mn7  1  0.79209416  0.04603227  0.59624419  1
  Mn  Mn8  1  0.17991347  0.99173954  0.38791928  1
  Mn  Mn9  1  0.51906860  0.49872054  0.02043591  1
  Sb  Sb10  1  0.89527459  0.00342385  0.45103613  1
  Sb  Sb11  1  0.10687189  0.99145659  0.54149796  1
  Sb  Sb12  1  0.02783296  0.51125646  0.80675964  1
  Sb  Sb13  1  0.97163636  0.46026817  0.19282735  1
  Sb  Sb14  1  0.40468109  0.50897012  0.46552079  1
  Sb  Sb15  1  0.60112794  0.41677012  0.55306061  1
  Sb  Sb16  1  0.52760852  0.99146541  0.81050929  1
  Sb  Sb17  1  0.46649555  0.98334177  0.18347810  1
  S  S18  1  0.93658652  0.94897591  0.80782541  1
  S  S19  1  0.07169477  0.95149459  0.21120978  1
  S  S20  1  0.41656661  0.96686614  0.98662308  1
  S  S21  1  0.58651417  0.99959387  0.02769854  1
  S  S22  1  0.18089954  0.00462510  0.89709999  1
  S  S23  1  0.83635042  0.99458306  0.10490806  1
  S  S24  1  0.11697377  0.51233126  0.66410539  1
  S  S25  1  0.89568906  0.47702343  0.33762413  1
  S  S26  1  0.73960095  0.99542505  0.32444475  1
  S  S27  1  0.26491661  0.02237823  0.68709983  1
  S  S28  1  0.15878408  0.47253831  0.45479008  1
  S  S29  1  0.83340990  0.54142397  0.55425382  1
  S  S30  1  0.44643677  0.50055303  0.82327920  1
  S  S31  1  0.57167604  0.54358112  0.20650301  1
  S  S32  1  0.91302602  0.44717312  0.97817763  1
  S  S33  1  0.07363710  0.44201732  0.00191231  1
  S  S34  1  0.68259539  0.44848971  0.90412576  1
  S  S35  1  0.34778841  0.48210276  0.11467003  1
  S  S36  1  0.60855672  0.97278654  0.67780182  1
  S  S37  1  0.41863109  0.01137186  0.36401128  1
  S  S38  1  0.25893532  0.45497179  0.28384918  1
  S  S39  1  0.76388905  0.44502484  0.68535550  1
  S  S40  1  0.66599212  0.98066678  0.44293087  1
  S  S41  1  0.31300380  0.04956357  0.52852498  1
