# generated using pymatgen
data_Pr2Mn3(SbS3)4
_symmetry_space_group_name_H-M   'P 1'
_cell_length_a   20.02960800
_cell_length_b   3.90410600
_cell_length_c   14.95364829
_cell_angle_alpha   90.00000000
_cell_angle_beta   126.33350609
_cell_angle_gamma   90.00000000
_symmetry_Int_Tables_number   1
_chemical_formula_structural   Pr2Mn3(SbS3)4
_chemical_formula_sum   'Pr4 Mn6 Sb8 S24'
_cell_volume   942.00006694
_cell_formula_units_Z   2
loop_
 _symmetry_equiv_pos_site_id
 _symmetry_equiv_pos_as_xyz
  1  'x, y, z'
loop_
 _atom_site_type_symbol
 _atom_site_label
 _atom_site_symmetry_multiplicity
 _atom_site_fract_x
 _atom_site_fract_y
 _atom_site_fract_z
 _atom_site_occupancy
  Pr  Pr0  1  0.26214932  0.46673784  0.86914737  1
  Pr  Pr1  1  0.73267592  0.54697664  0.13372230  1
  Pr  Pr2  1  0.77230562  0.98910708  0.86988791  1
  Pr  Pr3  1  0.22802670  0.97680472  0.13106159  1
  Mn  Mn4  1  0.28417693  0.57491400  0.58377737  1
  Mn  Mn5  1  0.70827953  0.50690452  0.40299291  1
  Mn  Mn6  1  0.99539620  0.93615880  0.99132761  1
  Mn  Mn7  1  0.79217499  0.04578421  0.59634534  1
  Mn  Mn8  1  0.17999314  0.99219372  0.38812632  1
  Mn  Mn9  1  0.51917194  0.49820988  0.02058159  1
  Sb  Sb10  1  0.89545591  0.00380662  0.45105759  1
  Sb  Sb11  1  0.10697623  0.99100652  0.54154012  1
  Sb  Sb12  1  0.02780518  0.51076402  0.80667563  1
  Sb  Sb13  1  0.97163150  0.46030186  0.19287063  1
  Sb  Sb14  1  0.40456881  0.50968897  0.46542150  1
  Sb  Sb15  1  0.60115746  0.41693773  0.55302439  1
  Sb  Sb16  1  0.52758010  0.99154137  0.81052942  1
  Sb  Sb17  1  0.46661489  0.98378405  0.18366221  1
  S  S18  1  0.93645501  0.94813032  0.80749323  1
  S  S19  1  0.07158703  0.95126277  0.21075327  1
  S  S20  1  0.41668505  0.96643885  0.98689254  1
  S  S21  1  0.58663850  0.00051501  0.02797115  1
  S  S22  1  0.18079828  0.00486692  0.89704786  1
  S  S23  1  0.83644596  0.99346021  0.10532598  1
  S  S24  1  0.11681116  0.51264838  0.66379292  1
  S  S25  1  0.89516310  0.47695780  0.33709555  1
  S  S26  1  0.73949325  0.99467000  0.32504011  1
  S  S27  1  0.26462069  0.02388222  0.68713969  1
  S  S28  1  0.15893883  0.47127498  0.45490092  1
  S  S29  1  0.83349607  0.54345097  0.55422061  1
  S  S30  1  0.44616815  0.50072493  0.82295525  1
  S  S31  1  0.57157728  0.54498408  0.20614572  1
  S  S32  1  0.91300167  0.44770836  0.97786144  1
  S  S33  1  0.07363857  0.44359405  0.00196151  1
  S  S34  1  0.68261496  0.44585190  0.90377808  1
  S  S35  1  0.34815453  0.48163164  0.11507984  1
  S  S36  1  0.60936064  0.97305437  0.67855457  1
  S  S37  1  0.41844135  0.01187015  0.36381920  1
  S  S38  1  0.25924331  0.45360851  0.28447234  1
  S  S39  1  0.76391163  0.44500569  0.68493565  1
  S  S40  1  0.66602607  0.97878317  0.44286841  1
  S  S41  1  0.31296992  0.04954941  0.52875817  1
