# generated using pymatgen
data_Pr2Mn3(SbS3)4
_symmetry_space_group_name_H-M   'P 1'
_cell_length_a   20.02960800
_cell_length_b   3.90410600
_cell_length_c   14.95364829
_cell_angle_alpha   90.00000000
_cell_angle_beta   126.33350609
_cell_angle_gamma   90.00000000
_symmetry_Int_Tables_number   1
_chemical_formula_structural   Pr2Mn3(SbS3)4
_chemical_formula_sum   'Pr4 Mn6 Sb8 S24'
_cell_volume   942.00006694
_cell_formula_units_Z   2
loop_
 _symmetry_equiv_pos_site_id
 _symmetry_equiv_pos_as_xyz
  1  'x, y, z'
loop_
 _atom_site_type_symbol
 _atom_site_label
 _atom_site_symmetry_multiplicity
 _atom_site_fract_x
 _atom_site_fract_y
 _atom_site_fract_z
 _atom_site_occupancy
  Pr  Pr0  1  0.26975080  0.50258803  0.86764744  1
  Pr  Pr1  1  0.73319798  0.51349848  0.13334144  1
  Pr  Pr2  1  0.76544365  0.02969854  0.86778375  1
  Pr  Pr3  1  0.23178132  0.98927680  0.13106920  1
  Mn  Mn4  1  0.30118082  0.47160154  0.60736264  1
  Mn  Mn5  1  0.68578966  0.46670019  0.36263906  1
  Mn  Mn6  1  0.00267766  0.99033635  0.01060798  1
  Mn  Mn7  1  0.79471210  0.01733278  0.61586060  1
  Mn  Mn8  1  0.19339516  0.99351111  0.36571374  1
  Mn  Mn9  1  0.48310606  0.47312290  0.98245375  1
  Sb  Sb10  1  0.88979292  0.98560780  0.44826621  1
  Sb  Sb11  1  0.10990783  0.98100247  0.54562694  1
  Sb  Sb12  1  0.03464498  0.53224917  0.82094552  1
  Sb  Sb13  1  0.96675497  0.49761636  0.18915785  1
  Sb  Sb14  1  0.39447254  0.49971243  0.44943677  1
  Sb  Sb15  1  0.60997454  0.47944620  0.54732514  1
  Sb  Sb16  1  0.53253429  0.97478972  0.80648745  1
  Sb  Sb17  1  0.46487279  0.02362229  0.18725401  1
  S  S18  1  0.93778934  0.01986504  0.80937862  1
  S  S19  1  0.06771349  0.01020766  0.20771830  1
  S  S20  1  0.41793164  0.97142864  0.98504111  1
  S  S21  1  0.58758119  0.04024475  0.01624528  1
  S  S22  1  0.16687532  0.04000718  0.90108164  1
  S  S23  1  0.82644364  0.01744367  0.10502588  1
  S  S24  1  0.08671766  0.49684315  0.64243040  1
  S  S25  1  0.91360493  0.48068329  0.35086793  1
  S  S26  1  0.73669253  0.00591171  0.29695653  1
  S  S27  1  0.25713017  0.01814193  0.70390095  1
  S  S28  1  0.16893664  0.51452153  0.43777602  1
  S  S29  1  0.80905144  0.50642404  0.53778753  1
  S  S30  1  0.43049513  0.47212444  0.79614518  1
  S  S31  1  0.55235178  0.51483058  0.17934217  1
  S  S32  1  0.92355792  0.50405362  0.99424085  1
  S  S33  1  0.09063097  0.49955571  0.02680086  1
  S  S34  1  0.66685006  0.55847847  0.89895534  1
  S  S35  1  0.32880793  0.46914132  0.09429626  1
  S  S36  1  0.58648285  0.99312606  0.64638553  1
  S  S37  1  0.39570360  0.97676868  0.33563013  1
  S  S38  1  0.24698486  0.47686753  0.31632317  1
  S  S39  1  0.76019438  0.52805729  0.68929861  1
  S  S40  1  0.66338825  0.98414315  0.44463817  1
  S  S41  1  0.32883202  0.98005339  0.55345162  1
