# generated using pymatgen
data_Pr2Mn3(SbS3)4
_symmetry_space_group_name_H-M   'P 1'
_cell_length_a   20.02960800
_cell_length_b   3.90410600
_cell_length_c   14.95364829
_cell_angle_alpha   90.00000000
_cell_angle_beta   126.33350609
_cell_angle_gamma   90.00000000
_symmetry_Int_Tables_number   1
_chemical_formula_structural   Pr2Mn3(SbS3)4
_chemical_formula_sum   'Pr4 Mn6 Sb8 S24'
_cell_volume   942.00006694
_cell_formula_units_Z   2
loop_
 _symmetry_equiv_pos_site_id
 _symmetry_equiv_pos_as_xyz
  1  'x, y, z'
loop_
 _atom_site_type_symbol
 _atom_site_label
 _atom_site_symmetry_multiplicity
 _atom_site_fract_x
 _atom_site_fract_y
 _atom_site_fract_z
 _atom_site_occupancy
  Pr  Pr0  1  0.26226368  0.46591207  0.86932785  1
  Pr  Pr1  1  0.73272089  0.54713768  0.13387507  1
  Pr  Pr2  1  0.77244086  0.98902260  0.86995095  1
  Pr  Pr3  1  0.22801426  0.97602628  0.13103919  1
  Mn  Mn4  1  0.28440207  0.57493748  0.58423042  1
  Mn  Mn5  1  0.70793934  0.50683750  0.40291183  1
  Mn  Mn6  1  0.99515623  0.93574343  0.99105230  1
  Mn  Mn7  1  0.79225219  0.04577017  0.59639240  1
  Mn  Mn8  1  0.18008265  0.99290667  0.38834815  1
  Mn  Mn9  1  0.51926528  0.49807486  0.02060816  1
  Sb  Sb10  1  0.89558124  0.00436302  0.45106432  1
  Sb  Sb11  1  0.10708661  0.99076542  0.54161788  1
  Sb  Sb12  1  0.02777950  0.51034662  0.80665874  1
  Sb  Sb13  1  0.97157046  0.46053911  0.19276298  1
  Sb  Sb14  1  0.40444836  0.51058858  0.46535488  1
  Sb  Sb15  1  0.60124411  0.41731339  0.55299388  1
  Sb  Sb16  1  0.52754022  0.99152714  0.81064535  1
  Sb  Sb17  1  0.46671809  0.98408693  0.18378692  1
  S  S18  1  0.93633548  0.94759563  0.80725995  1
  S  S19  1  0.07154931  0.95124437  0.21058139  1
  S  S20  1  0.41692629  0.96578887  0.98730177  1
  S  S21  1  0.58676549  0.00158477  0.02823044  1
  S  S22  1  0.18061565  0.00534411  0.89700336  1
  S  S23  1  0.83663216  0.99179021  0.10583064  1
  S  S24  1  0.11662928  0.51332027  0.66350421  1
  S  S25  1  0.89463326  0.47634949  0.33658343  1
  S  S26  1  0.73943189  0.99373458  0.32567764  1
  S  S27  1  0.26437486  0.02532081  0.68715324  1
  S  S28  1  0.15906432  0.47029665  0.45500604  1
  S  S29  1  0.83347003  0.54599430  0.55407533  1
  S  S30  1  0.44585805  0.50071219  0.82247782  1
  S  S31  1  0.57132875  0.54594677  0.20575272  1
  S  S32  1  0.91299570  0.44810899  0.97760994  1
  S  S33  1  0.07368423  0.44514441  0.00206944  1
  S  S34  1  0.68261450  0.44426604  0.90346005  1
  S  S35  1  0.34847939  0.48130886  0.11543205  1
  S  S36  1  0.60983149  0.97298057  0.67910789  1
  S  S37  1  0.41836827  0.01274075  0.36372228  1
  S  S38  1  0.25947550  0.45298846  0.28503602  1
  S  S39  1  0.76384379  0.44527121  0.68431921  1
  S  S40  1  0.66594734  0.97682162  0.44284044  1
  S  S41  1  0.31306528  0.04887399  0.52899584  1
