# generated using pymatgen
data_Pr2Mn3(SbS3)4
_symmetry_space_group_name_H-M   'P 1'
_cell_length_a   20.02960800
_cell_length_b   3.90410600
_cell_length_c   14.95364829
_cell_angle_alpha   90.00000000
_cell_angle_beta   126.33350609
_cell_angle_gamma   90.00000000
_symmetry_Int_Tables_number   1
_chemical_formula_structural   Pr2Mn3(SbS3)4
_chemical_formula_sum   'Pr4 Mn6 Sb8 S24'
_cell_volume   942.00006694
_cell_formula_units_Z   2
loop_
 _symmetry_equiv_pos_site_id
 _symmetry_equiv_pos_as_xyz
  1  'x, y, z'
loop_
 _atom_site_type_symbol
 _atom_site_label
 _atom_site_symmetry_multiplicity
 _atom_site_fract_x
 _atom_site_fract_y
 _atom_site_fract_z
 _atom_site_occupancy
  Pr  Pr0  1  0.26236764  0.46520144  0.86954413  1
  Pr  Pr1  1  0.73277561  0.54733801  0.13397666  1
  Pr  Pr2  1  0.77255973  0.98909640  0.86999859  1
  Pr  Pr3  1  0.22806201  0.97552742  0.13105281  1
  Mn  Mn4  1  0.28457375  0.57501765  0.58465798  1
  Mn  Mn5  1  0.70770509  0.50756625  0.40299443  1
  Mn  Mn6  1  0.99497994  0.93541167  0.99062361  1
  Mn  Mn7  1  0.79234173  0.04594804  0.59635402  1
  Mn  Mn8  1  0.18020286  0.99345374  0.38858769  1
  Mn  Mn9  1  0.51930047  0.49817094  0.02065662  1
  Sb  Sb10  1  0.89565211  0.00478592  0.45095461  1
  Sb  Sb11  1  0.10725258  0.99039444  0.54176934  1
  Sb  Sb12  1  0.02775130  0.50986405  0.80661393  1
  Sb  Sb13  1  0.97144439  0.46061480  0.19261433  1
  Sb  Sb14  1  0.40437033  0.51145538  0.46525584  1
  Sb  Sb15  1  0.60138233  0.41787382  0.55304974  1
  Sb  Sb16  1  0.52753154  0.99118762  0.81077754  1
  Sb  Sb17  1  0.46678318  0.98444041  0.18384612  1
  S  S18  1  0.93624914  0.94691570  0.80675161  1
  S  S19  1  0.07141678  0.95061142  0.21051199  1
  S  S20  1  0.41733902  0.96534845  0.98772731  1
  S  S21  1  0.58701133  0.00226197  0.02848331  1
  S  S22  1  0.18040382  0.00555095  0.89688685  1
  S  S23  1  0.83680325  0.98990039  0.10632251  1
  S  S24  1  0.11661563  0.51447684  0.66335806  1
  S  S25  1  0.89421454  0.47521221  0.33619076  1
  S  S26  1  0.73931536  0.99282342  0.32625324  1
  S  S27  1  0.26406390  0.02644223  0.68708901  1
  S  S28  1  0.15914518  0.46913363  0.45508233  1
  S  S29  1  0.83341839  0.54800020  0.55379460  1
  S  S30  1  0.44576051  0.50080775  0.82223986  1
  S  S31  1  0.57124763  0.54720165  0.20541893  1
  S  S32  1  0.91287254  0.44841084  0.97725024  1
  S  S33  1  0.07382464  0.44644105  0.00223222  1
  S  S34  1  0.68261804  0.44251203  0.90316997  1
  S  S35  1  0.34883632  0.48067465  0.11560258  1
  S  S36  1  0.61039657  0.97222424  0.67973004  1
  S  S37  1  0.41824444  0.01372241  0.36352420  1
  S  S38  1  0.25948596  0.45287220  0.28546654  1
  S  S39  1  0.76385576  0.44479736  0.68369897  1
  S  S40  1  0.66585603  0.97540997  0.44278866  1
  S  S41  1  0.31314485  0.04879951  0.52929869  1
