# generated using pymatgen
data_Pr2Mn3(SbS3)4
_symmetry_space_group_name_H-M   'P 1'
_cell_length_a   20.02960800
_cell_length_b   3.90410600
_cell_length_c   14.95364829
_cell_angle_alpha   90.00000000
_cell_angle_beta   126.33350609
_cell_angle_gamma   90.00000000
_symmetry_Int_Tables_number   1
_chemical_formula_structural   Pr2Mn3(SbS3)4
_chemical_formula_sum   'Pr4 Mn6 Sb8 S24'
_cell_volume   942.00006694
_cell_formula_units_Z   2
loop_
 _symmetry_equiv_pos_site_id
 _symmetry_equiv_pos_as_xyz
  1  'x, y, z'
loop_
 _atom_site_type_symbol
 _atom_site_label
 _atom_site_symmetry_multiplicity
 _atom_site_fract_x
 _atom_site_fract_y
 _atom_site_fract_z
 _atom_site_occupancy
  Pr  Pr0  1  0.26248641  0.46487707  0.86971604  1
  Pr  Pr1  1  0.73279698  0.54717628  0.13420667  1
  Pr  Pr2  1  0.77266313  0.98913715  0.87007657  1
  Pr  Pr3  1  0.22810796  0.97489610  0.13104202  1
  Mn  Mn4  1  0.28471907  0.57548598  0.58507832  1
  Mn  Mn5  1  0.70751699  0.50791886  0.40300999  1
  Mn  Mn6  1  0.99489835  0.93494863  0.99020330  1
  Mn  Mn7  1  0.79238261  0.04617911  0.59635493  1
  Mn  Mn8  1  0.18035389  0.99408552  0.38888802  1
  Mn  Mn9  1  0.51925324  0.49860394  0.02054212  1
  Sb  Sb10  1  0.89572960  0.00485202  0.45083585  1
  Sb  Sb11  1  0.10744492  0.99000653  0.54200614  1
  Sb  Sb12  1  0.02777073  0.50946950  0.80648385  1
  Sb  Sb13  1  0.97129141  0.46058148  0.19250189  1
  Sb  Sb14  1  0.40431491  0.51227309  0.46516863  1
  Sb  Sb15  1  0.60143388  0.41848751  0.55300843  1
  Sb  Sb16  1  0.52746933  0.99075723  0.81085447  1
  Sb  Sb17  1  0.46686508  0.98496651  0.18388604  1
  S  S18  1  0.93605858  0.94688720  0.80618244  1
  S  S19  1  0.07128796  0.95058862  0.21040694  1
  S  S20  1  0.41769780  0.96463148  0.98823663  1
  S  S21  1  0.58723491  0.00350703  0.02868141  1
  S  S22  1  0.18035961  0.00582674  0.89693263  1
  S  S23  1  0.83702955  0.98863645  0.10674503  1
  S  S24  1  0.11666399  0.51527464  0.66333217  1
  S  S25  1  0.89373684  0.47414739  0.33578668  1
  S  S26  1  0.73901736  0.99156022  0.32657043  1
  S  S27  1  0.26372179  0.02700702  0.68719116  1
  S  S28  1  0.15922940  0.46864341  0.45496561  1
  S  S29  1  0.83353472  0.55036779  0.55363484  1
  S  S30  1  0.44574532  0.50051910  0.82211707  1
  S  S31  1  0.57118146  0.54816991  0.20506123  1
  S  S32  1  0.91281945  0.44882322  0.97691241  1
  S  S33  1  0.07400994  0.44726427  0.00231093  1
  S  S34  1  0.68254685  0.44101753  0.90282929  1
  S  S35  1  0.34922443  0.47982080  0.11565375  1
  S  S36  1  0.61105827  0.97118016  0.68050548  1
  S  S37  1  0.41821065  0.01388640  0.36338161  1
  S  S38  1  0.25946864  0.45356943  0.28592669  1
  S  S39  1  0.76392260  0.44487799  0.68313316  1
  S  S40  1  0.66562272  0.97372431  0.44283827  1
  S  S41  1  0.31342822  0.04901989  0.52975392  1
