# generated using pymatgen
data_Pr2Mn3(SbS3)4
_symmetry_space_group_name_H-M   'P 1'
_cell_length_a   20.02960800
_cell_length_b   3.90410600
_cell_length_c   14.95364829
_cell_angle_alpha   90.00000000
_cell_angle_beta   126.33350609
_cell_angle_gamma   90.00000000
_symmetry_Int_Tables_number   1
_chemical_formula_structural   Pr2Mn3(SbS3)4
_chemical_formula_sum   'Pr4 Mn6 Sb8 S24'
_cell_volume   942.00006694
_cell_formula_units_Z   2
loop_
 _symmetry_equiv_pos_site_id
 _symmetry_equiv_pos_as_xyz
  1  'x, y, z'
loop_
 _atom_site_type_symbol
 _atom_site_label
 _atom_site_symmetry_multiplicity
 _atom_site_fract_x
 _atom_site_fract_y
 _atom_site_fract_z
 _atom_site_occupancy
  Pr  Pr0  1  0.26262199  0.46488914  0.86994399  1
  Pr  Pr1  1  0.73278157  0.54701094  0.13439944  1
  Pr  Pr2  1  0.77281314  0.98911875  0.87014453  1
  Pr  Pr3  1  0.22819787  0.97411403  0.13114404  1
  Mn  Mn4  1  0.28482888  0.57591534  0.58549008  1
  Mn  Mn5  1  0.70722498  0.50832359  0.40283536  1
  Mn  Mn6  1  0.99478040  0.93389552  0.98974793  1
  Mn  Mn7  1  0.79242331  0.04594333  0.59630582  1
  Mn  Mn8  1  0.18057841  0.99454274  0.38922984  1
  Mn  Mn9  1  0.51918434  0.49887238  0.02052293  1
  Sb  Sb10  1  0.89575841  0.00489381  0.45063001  1
  Sb  Sb11  1  0.10759310  0.98975030  0.54222660  1
  Sb  Sb12  1  0.02776971  0.50900743  0.80632373  1
  Sb  Sb13  1  0.97111248  0.46058913  0.19233726  1
  Sb  Sb14  1  0.40421449  0.51274182  0.46511872  1
  Sb  Sb15  1  0.60143336  0.41919587  0.55288804  1
  Sb  Sb16  1  0.52743566  0.99033711  0.81092918  1
  Sb  Sb17  1  0.46692306  0.98575079  0.18393410  1
  S  S18  1  0.93580226  0.94619593  0.80567241  1
  S  S19  1  0.07112041  0.95081297  0.21018347  1
  S  S20  1  0.41810688  0.96382031  0.98873412  1
  S  S21  1  0.58740766  0.00429623  0.02875956  1
  S  S22  1  0.18053372  0.00568104  0.89714113  1
  S  S23  1  0.83725742  0.98702154  0.10702755  1
  S  S24  1  0.11665949  0.51556105  0.66311589  1
  S  S25  1  0.89323418  0.47313350  0.33545176  1
  S  S26  1  0.73878152  0.99059144  0.32682627  1
  S  S27  1  0.26343582  0.02811733  0.68729880  1
  S  S28  1  0.15926865  0.46822328  0.45484761  1
  S  S29  1  0.83371706  0.55235719  0.55351263  1
  S  S30  1  0.44575437  0.50010442  0.82203974  1
  S  S31  1  0.57125107  0.54878569  0.20478121  1
  S  S32  1  0.91276095  0.44922859  0.97651245  1
  S  S33  1  0.07425111  0.44771987  0.00242716  1
  S  S34  1  0.68255001  0.43975857  0.90272446  1
  S  S35  1  0.34965386  0.47902491  0.11576210  1
  S  S36  1  0.61182805  0.96989304  0.68120228  1
  S  S37  1  0.41816949  0.01402540  0.36329654  1
  S  S38  1  0.25939729  0.45461755  0.28645958  1
  S  S39  1  0.76392685  0.44518566  0.68258861  1
  S  S40  1  0.66547471  0.97226584  0.44285491  1
  S  S41  1  0.31363622  0.04967142  0.53028420  1
