# generated using pymatgen
data_Pr2Mn3(SbS3)4
_symmetry_space_group_name_H-M   'P 1'
_cell_length_a   20.02960800
_cell_length_b   3.90410600
_cell_length_c   14.95364829
_cell_angle_alpha   90.00000000
_cell_angle_beta   126.33350609
_cell_angle_gamma   90.00000000
_symmetry_Int_Tables_number   1
_chemical_formula_structural   Pr2Mn3(SbS3)4
_chemical_formula_sum   'Pr4 Mn6 Sb8 S24'
_cell_volume   942.00006694
_cell_formula_units_Z   2
loop_
 _symmetry_equiv_pos_site_id
 _symmetry_equiv_pos_as_xyz
  1  'x, y, z'
loop_
 _atom_site_type_symbol
 _atom_site_label
 _atom_site_symmetry_multiplicity
 _atom_site_fract_x
 _atom_site_fract_y
 _atom_site_fract_z
 _atom_site_occupancy
  Pr  Pr0  1  0.26282922  0.46467434  0.87024249  1
  Pr  Pr1  1  0.73279525  0.54671026  0.13464666  1
  Pr  Pr2  1  0.77293111  0.98920182  0.87016618  1
  Pr  Pr3  1  0.22829028  0.97307761  0.13120487  1
  Mn  Mn4  1  0.28495631  0.57656882  0.58586779  1
  Mn  Mn5  1  0.70702647  0.50895504  0.40259364  1
  Mn  Mn6  1  0.99465986  0.93277573  0.98927916  1
  Mn  Mn7  1  0.79235733  0.04539245  0.59616284  1
  Mn  Mn8  1  0.18079693  0.99484230  0.38947001  1
  Mn  Mn9  1  0.51916095  0.49903178  0.02049818  1
  Sb  Sb10  1  0.89579319  0.00535783  0.45044700  1
  Sb  Sb11  1  0.10764515  0.98950627  0.54250188  1
  Sb  Sb12  1  0.02776001  0.50873518  0.80618320  1
  Sb  Sb13  1  0.97089421  0.46047756  0.19212436  1
  Sb  Sb14  1  0.40415448  0.51281732  0.46509267  1
  Sb  Sb15  1  0.60149996  0.41988304  0.55282503  1
  Sb  Sb16  1  0.52747376  0.98985842  0.81104262  1
  Sb  Sb17  1  0.46702325  0.98622914  0.18392297  1
  S  S18  1  0.93539584  0.94543333  0.80514028  1
  S  S19  1  0.07081596  0.95103460  0.20986556  1
  S  S20  1  0.41843575  0.96319681  0.98901796  1
  S  S21  1  0.58755240  0.00490472  0.02868937  1
  S  S22  1  0.18082544  0.00463296  0.89749636  1
  S  S23  1  0.83745567  0.98611297  0.10734442  1
  S  S24  1  0.11644297  0.51535499  0.66266558  1
  S  S25  1  0.89260428  0.47240430  0.33515200  1
  S  S26  1  0.73846447  0.99039282  0.32690229  1
  S  S27  1  0.26323206  0.02882820  0.68744722  1
  S  S28  1  0.15933343  0.46788007  0.45486628  1
  S  S29  1  0.83378504  0.55464723  0.55343085  1
  S  S30  1  0.44574493  0.49945434  0.82189606  1
  S  S31  1  0.57135127  0.54978224  0.20474008  1
  S  S32  1  0.91281611  0.44964886  0.97634139  1
  S  S33  1  0.07452839  0.44769250  0.00264279  1
  S  S34  1  0.68268488  0.43864562  0.90277061  1
  S  S35  1  0.34990052  0.47830936  0.11575644  1
  S  S36  1  0.61261441  0.96852992  0.68181094  1
  S  S37  1  0.41811132  0.01309283  0.36322311  1
  S  S38  1  0.25942325  0.45541134  0.28711195  1
  S  S39  1  0.76386817  0.44504606  0.68190068  1
  S  S40  1  0.66544655  0.97116745  0.44290164  1
  S  S41  1  0.31372688  0.05003075  0.53074766  1
