# generated using pymatgen
data_Pr2Mn3(SbS3)4
_symmetry_space_group_name_H-M   'P 1'
_cell_length_a   20.02960800
_cell_length_b   3.90410600
_cell_length_c   14.95364829
_cell_angle_alpha   90.00000000
_cell_angle_beta   126.33350609
_cell_angle_gamma   90.00000000
_symmetry_Int_Tables_number   1
_chemical_formula_structural   Pr2Mn3(SbS3)4
_chemical_formula_sum   'Pr4 Mn6 Sb8 S24'
_cell_volume   942.00006694
_cell_formula_units_Z   2
loop_
 _symmetry_equiv_pos_site_id
 _symmetry_equiv_pos_as_xyz
  1  'x, y, z'
loop_
 _atom_site_type_symbol
 _atom_site_label
 _atom_site_symmetry_multiplicity
 _atom_site_fract_x
 _atom_site_fract_y
 _atom_site_fract_z
 _atom_site_occupancy
  Pr  Pr0  1  0.26297209  0.46452318  0.87043231  1
  Pr  Pr1  1  0.73276049  0.54641616  0.13482469  1
  Pr  Pr2  1  0.77316243  0.98954126  0.87035816  1
  Pr  Pr3  1  0.22831048  0.97193672  0.13117729  1
  Mn  Mn4  1  0.28519039  0.57686119  0.58630433  1
  Mn  Mn5  1  0.70673523  0.50961709  0.40227193  1
  Mn  Mn6  1  0.99458336  0.93165256  0.98886278  1
  Mn  Mn7  1  0.79216315  0.04518622  0.59603064  1
  Mn  Mn8  1  0.18097070  0.99518735  0.38968895  1
  Mn  Mn9  1  0.51908505  0.49945448  0.02052841  1
  Sb  Sb10  1  0.89578578  0.00566599  0.45029773  1
  Sb  Sb11  1  0.10776361  0.98935634  0.54279286  1
  Sb  Sb12  1  0.02768209  0.50849338  0.80602084  1
  Sb  Sb13  1  0.97063431  0.46033850  0.19181491  1
  Sb  Sb14  1  0.40420293  0.51268307  0.46516453  1
  Sb  Sb15  1  0.60151445  0.42062787  0.55278827  1
  Sb  Sb16  1  0.52749419  0.98961761  0.81107108  1
  Sb  Sb17  1  0.46716612  0.98679179  0.18404789  1
  S  S18  1  0.93496249  0.94396508  0.80458990  1
  S  S19  1  0.07051556  0.95187669  0.20958131  1
  S  S20  1  0.41867346  0.96242897  0.98932035  1
  S  S21  1  0.58737461  0.00508290  0.02824627  1
  S  S22  1  0.18113371  0.00403579  0.89785779  1
  S  S23  1  0.83767605  0.98482566  0.10769069  1
  S  S24  1  0.11626752  0.51526977  0.66226211  1
  S  S25  1  0.89205707  0.47163465  0.33510206  1
  S  S26  1  0.73828983  0.99101357  0.32691687  1
  S  S27  1  0.26299313  0.02963324  0.68741846  1
  S  S28  1  0.15936101  0.46764599  0.45485294  1
  S  S29  1  0.83385573  0.55657676  0.55329349  1
  S  S30  1  0.44581567  0.49935211  0.82169331  1
  S  S31  1  0.57150857  0.55094592  0.20468567  1
  S  S32  1  0.91272195  0.45002638  0.97604639  1
  S  S33  1  0.07490206  0.44719095  0.00282851  1
  S  S34  1  0.68284368  0.43742990  0.90287918  1
  S  S35  1  0.35009592  0.47691295  0.11585270  1
  S  S36  1  0.61330466  0.96703420  0.68237020  1
  S  S37  1  0.41814854  0.01170736  0.36315365  1
  S  S38  1  0.25945646  0.45626211  0.28769640  1
  S  S39  1  0.76368659  0.44550604  0.68129752  1
  S  S40  1  0.66535770  0.97083386  0.44299388  1
  S  S41  1  0.31385035  0.04987036  0.53120391  1
