# generated using pymatgen
data_Pr2Mn3(SbS3)4
_symmetry_space_group_name_H-M   'P 1'
_cell_length_a   20.02960800
_cell_length_b   3.90410600
_cell_length_c   14.95364829
_cell_angle_alpha   90.00000000
_cell_angle_beta   126.33350609
_cell_angle_gamma   90.00000000
_symmetry_Int_Tables_number   1
_chemical_formula_structural   Pr2Mn3(SbS3)4
_chemical_formula_sum   'Pr4 Mn6 Sb8 S24'
_cell_volume   942.00006694
_cell_formula_units_Z   2
loop_
 _symmetry_equiv_pos_site_id
 _symmetry_equiv_pos_as_xyz
  1  'x, y, z'
loop_
 _atom_site_type_symbol
 _atom_site_label
 _atom_site_symmetry_multiplicity
 _atom_site_fract_x
 _atom_site_fract_y
 _atom_site_fract_z
 _atom_site_occupancy
  Pr  Pr0  1  0.26313273  0.46450045  0.87057683  1
  Pr  Pr1  1  0.73269009  0.54610420  0.13493727  1
  Pr  Pr2  1  0.77346404  0.99001852  0.87046442  1
  Pr  Pr3  1  0.22841707  0.97072767  0.13117874  1
  Mn  Mn4  1  0.28532518  0.57679523  0.58672930  1
  Mn  Mn5  1  0.70644955  0.50972977  0.40190592  1
  Mn  Mn6  1  0.99447452  0.93035743  0.98855627  1
  Mn  Mn7  1  0.79196446  0.04509259  0.59588332  1
  Mn  Mn8  1  0.18108908  0.99515574  0.38987529  1
  Mn  Mn9  1  0.51908248  0.49996700  0.02046935  1
  Sb  Sb10  1  0.89580541  0.00613242  0.45031013  1
  Sb  Sb11  1  0.10791344  0.98914580  0.54310039  1
  Sb  Sb12  1  0.02749923  0.50853785  0.80574140  1
  Sb  Sb13  1  0.97041295  0.45998013  0.19154856  1
  Sb  Sb14  1  0.40414450  0.51284816  0.46519131  1
  Sb  Sb15  1  0.60160543  0.42130793  0.55273653  1
  Sb  Sb16  1  0.52743420  0.98959961  0.81103093  1
  Sb  Sb17  1  0.46733775  0.98725461  0.18418133  1
  S  S18  1  0.93462999  0.94270313  0.80406956  1
  S  S19  1  0.07035496  0.95269591  0.20931487  1
  S  S20  1  0.41879038  0.96142445  0.98962313  1
  S  S21  1  0.58712364  0.00604471  0.02786984  1
  S  S22  1  0.18132968  0.00338799  0.89817564  1
  S  S23  1  0.83787721  0.98388065  0.10800466  1
  S  S24  1  0.11607987  0.51502263  0.66187388  1
  S  S25  1  0.89162634  0.47099127  0.33514705  1
  S  S26  1  0.73808394  0.99207145  0.32688717  1
  S  S27  1  0.26278045  0.03063441  0.68725130  1
  S  S28  1  0.15964945  0.46752272  0.45505162  1
  S  S29  1  0.83403289  0.55881041  0.55345031  1
  S  S30  1  0.44594133  0.49895439  0.82157901  1
  S  S31  1  0.57160484  0.55190559  0.20453922  1
  S  S32  1  0.91269251  0.45082466  0.97590758  1
  S  S33  1  0.07518970  0.44666652  0.00286356  1
  S  S34  1  0.68295029  0.43630513  0.90291110  1
  S  S35  1  0.35039588  0.47561110  0.11603515  1
  S  S36  1  0.61383266  0.96558863  0.68282837  1
  S  S37  1  0.41823385  0.01069265  0.36324893  1
  S  S38  1  0.25949118  0.45694842  0.28825152  1
  S  S39  1  0.76342484  0.44562218  0.68071342  1
  S  S40  1  0.66538618  0.97126440  0.44325509  1
  S  S41  1  0.31397612  0.05083036  0.53156046  1
