# generated using pymatgen
data_Pr2Mn3(SbS3)4
_symmetry_space_group_name_H-M   'P 1'
_cell_length_a   20.02960800
_cell_length_b   3.90410600
_cell_length_c   14.95364829
_cell_angle_alpha   90.00000000
_cell_angle_beta   126.33350609
_cell_angle_gamma   90.00000000
_symmetry_Int_Tables_number   1
_chemical_formula_structural   Pr2Mn3(SbS3)4
_chemical_formula_sum   'Pr4 Mn6 Sb8 S24'
_cell_volume   942.00006694
_cell_formula_units_Z   2
loop_
 _symmetry_equiv_pos_site_id
 _symmetry_equiv_pos_as_xyz
  1  'x, y, z'
loop_
 _atom_site_type_symbol
 _atom_site_label
 _atom_site_symmetry_multiplicity
 _atom_site_fract_x
 _atom_site_fract_y
 _atom_site_fract_z
 _atom_site_occupancy
  Pr  Pr0  1  0.26333186  0.46437174  0.87071809  1
  Pr  Pr1  1  0.73261393  0.54556787  0.13501239  1
  Pr  Pr2  1  0.77370499  0.99019265  0.87051178  1
  Pr  Pr3  1  0.22850552  0.96959741  0.13114415  1
  Mn  Mn4  1  0.28543398  0.57665207  0.58724530  1
  Mn  Mn5  1  0.70620738  0.50997963  0.40139790  1
  Mn  Mn6  1  0.99424369  0.92902995  0.98822115  1
  Mn  Mn7  1  0.79179017  0.04526380  0.59577293  1
  Mn  Mn8  1  0.18122840  0.99513391  0.38993361  1
  Mn  Mn9  1  0.51914664  0.50019732  0.02054254  1
  Sb  Sb10  1  0.89587052  0.00652821  0.45038718  1
  Sb  Sb11  1  0.10803603  0.98904657  0.54340392  1
  Sb  Sb12  1  0.02733844  0.50846121  0.80550873  1
  Sb  Sb13  1  0.97025738  0.45962782  0.19136275  1
  Sb  Sb14  1  0.40405796  0.51324983  0.46519101  1
  Sb  Sb15  1  0.60168457  0.42211620  0.55273680  1
  Sb  Sb16  1  0.52736075  0.98966965  0.81103295  1
  Sb  Sb17  1  0.46753590  0.98791438  0.18441925  1
  S  S18  1  0.93438225  0.94179609  0.80382675  1
  S  S19  1  0.07028723  0.95365726  0.20924023  1
  S  S20  1  0.41882573  0.96087280  0.98997333  1
  S  S21  1  0.58684133  0.00732864  0.02756246  1
  S  S22  1  0.18148357  0.00253641  0.89844174  1
  S  S23  1  0.83814270  0.98336006  0.10841949  1
  S  S24  1  0.11598553  0.51525056  0.66159385  1
  S  S25  1  0.89124206  0.47039548  0.33514878  1
  S  S26  1  0.73788047  0.99235469  0.32671071  1
  S  S27  1  0.26242252  0.03124570  0.68696355  1
  S  S28  1  0.15983025  0.46659834  0.45514338  1
  S  S29  1  0.83436098  0.56044383  0.55363594  1
  S  S30  1  0.44620724  0.49832257  0.82157521  1
  S  S31  1  0.57177924  0.55301480  0.20462312  1
  S  S32  1  0.91257374  0.45144819  0.97571837  1
  S  S33  1  0.07555622  0.44648489  0.00295342  1
  S  S34  1  0.68314744  0.43583098  0.90307748  1
  S  S35  1  0.35068683  0.47420371  0.11620202  1
  S  S36  1  0.61445463  0.96435072  0.68350290  1
  S  S37  1  0.41837113  0.01004056  0.36341878  1
  S  S38  1  0.25957283  0.45737434  0.28870173  1
  S  S39  1  0.76318718  0.44634281  0.68019704  1
  S  S40  1  0.66538326  0.97179485  0.44345796  1
  S  S41  1  0.31421491  0.05157839  0.53195532  1
