# generated using pymatgen
data_Pr2Mn3(SbS3)4
_symmetry_space_group_name_H-M   'P 1'
_cell_length_a   20.02960800
_cell_length_b   3.90410600
_cell_length_c   14.95364829
_cell_angle_alpha   90.00000000
_cell_angle_beta   126.33350609
_cell_angle_gamma   90.00000000
_symmetry_Int_Tables_number   1
_chemical_formula_structural   Pr2Mn3(SbS3)4
_chemical_formula_sum   'Pr4 Mn6 Sb8 S24'
_cell_volume   942.00006694
_cell_formula_units_Z   2
loop_
 _symmetry_equiv_pos_site_id
 _symmetry_equiv_pos_as_xyz
  1  'x, y, z'
loop_
 _atom_site_type_symbol
 _atom_site_label
 _atom_site_symmetry_multiplicity
 _atom_site_fract_x
 _atom_site_fract_y
 _atom_site_fract_z
 _atom_site_occupancy
  Pr  Pr0  1  0.26348787  0.46425836  0.87087289  1
  Pr  Pr1  1  0.73258451  0.54523899  0.13504702  1
  Pr  Pr2  1  0.77390152  0.99061614  0.87049988  1
  Pr  Pr3  1  0.22863679  0.96884021  0.13113211  1
  Mn  Mn4  1  0.28561661  0.57648773  0.58780986  1
  Mn  Mn5  1  0.70598382  0.51011635  0.40106247  1
  Mn  Mn6  1  0.99395298  0.92782926  0.98784507  1
  Mn  Mn7  1  0.79167956  0.04581628  0.59573453  1
  Mn  Mn8  1  0.18132447  0.99496801  0.38991196  1
  Mn  Mn9  1  0.51923133  0.50002902  0.02067888  1
  Sb  Sb10  1  0.89590559  0.00671934  0.45044826  1
  Sb  Sb11  1  0.10816353  0.98910488  0.54369698  1
  Sb  Sb12  1  0.02713148  0.50821500  0.80524504  1
  Sb  Sb13  1  0.97011646  0.45918847  0.19123961  1
  Sb  Sb14  1  0.40396463  0.51389647  0.46524620  1
  Sb  Sb15  1  0.60163595  0.42324459  0.55253815  1
  Sb  Sb16  1  0.52726359  0.98959766  0.81095610  1
  Sb  Sb17  1  0.46772715  0.98846414  0.18470214  1
  S  S18  1  0.93415261  0.94106957  0.80372430  1
  S  S19  1  0.07019639  0.95496762  0.20911774  1
  S  S20  1  0.41887472  0.96036761  0.99020775  1
  S  S21  1  0.58655814  0.00849937  0.02734465  1
  S  S22  1  0.18166280  0.00197587  0.89877971  1
  S  S23  1  0.83839885  0.98251278  0.10880977  1
  S  S24  1  0.11581099  0.51541962  0.66122104  1
  S  S25  1  0.89100158  0.47028233  0.33527536  1
  S  S26  1  0.73776334  0.99220344  0.32673309  1
  S  S27  1  0.26218818  0.03132169  0.68685163  1
  S  S28  1  0.15983814  0.46610964  0.45509337  1
  S  S29  1  0.83461054  0.56174717  0.55362408  1
  S  S30  1  0.44650934  0.49658318  0.82172475  1
  S  S31  1  0.57191118  0.55455467  0.20466182  1
  S  S32  1  0.91247506  0.45183929  0.97582891  1
  S  S33  1  0.07574987  0.44648522  0.00288381  1
  S  S34  1  0.68365490  0.43553214  0.90350251  1
  S  S35  1  0.35081680  0.47294011  0.11618844  1
  S  S36  1  0.61498403  0.96270271  0.68416006  1
  S  S37  1  0.41847266  0.00925177  0.36368206  1
  S  S38  1  0.25969432  0.45796977  0.28897809  1
  S  S39  1  0.76297975  0.44718459  0.67979476  1
  S  S40  1  0.66528673  0.97176101  0.44365199  1
  S  S41  1  0.31434846  0.05157798  0.53211670  1
