# generated using pymatgen
data_Pr2Mn3(SbS3)4
_symmetry_space_group_name_H-M   'P 1'
_cell_length_a   20.02960800
_cell_length_b   3.90410600
_cell_length_c   14.95364829
_cell_angle_alpha   90.00000000
_cell_angle_beta   126.33350609
_cell_angle_gamma   90.00000000
_symmetry_Int_Tables_number   1
_chemical_formula_structural   Pr2Mn3(SbS3)4
_chemical_formula_sum   'Pr4 Mn6 Sb8 S24'
_cell_volume   942.00006694
_cell_formula_units_Z   2
loop_
 _symmetry_equiv_pos_site_id
 _symmetry_equiv_pos_as_xyz
  1  'x, y, z'
loop_
 _atom_site_type_symbol
 _atom_site_label
 _atom_site_symmetry_multiplicity
 _atom_site_fract_x
 _atom_site_fract_y
 _atom_site_fract_z
 _atom_site_occupancy
  Pr  Pr0  1  0.26373096  0.46427780  0.87101201  1
  Pr  Pr1  1  0.73245741  0.54488380  0.13492016  1
  Pr  Pr2  1  0.77410207  0.99106555  0.87050911  1
  Pr  Pr3  1  0.22875200  0.96816063  0.13104943  1
  Mn  Mn4  1  0.28580272  0.57620410  0.58847904  1
  Mn  Mn5  1  0.70587152  0.50999317  0.40081271  1
  Mn  Mn6  1  0.99363803  0.92689177  0.98736009  1
  Mn  Mn7  1  0.79159785  0.04645492  0.59575260  1
  Mn  Mn8  1  0.18143203  0.99467179  0.38982028  1
  Mn  Mn9  1  0.51914628  0.49970344  0.02048118  1
  Sb  Sb10  1  0.89592764  0.00677161  0.45047534  1
  Sb  Sb11  1  0.10833197  0.98925885  0.54398013  1
  Sb  Sb12  1  0.02694513  0.50803238  0.80504828  1
  Sb  Sb13  1  0.96991280  0.45895396  0.19108238  1
  Sb  Sb14  1  0.40378885  0.51461541  0.46524450  1
  Sb  Sb15  1  0.60157208  0.42446684  0.55234419  1
  Sb  Sb16  1  0.52718132  0.98923806  0.81088725  1
  Sb  Sb17  1  0.46790385  0.98882627  0.18498742  1
  S  S18  1  0.93385805  0.94075828  0.80363848  1
  S  S19  1  0.06993238  0.95705528  0.20883932  1
  S  S20  1  0.41887100  0.95980249  0.99033259  1
  S  S21  1  0.58621367  0.00929462  0.02694430  1
  S  S22  1  0.18168204  0.00160714  0.89891498  1
  S  S23  1  0.83863585  0.98207292  0.10920070  1
  S  S24  1  0.11573210  0.51608230  0.66091324  1
  S  S25  1  0.89077762  0.47050831  0.33544165  1
  S  S26  1  0.73762085  0.99169194  0.32681712  1
  S  S27  1  0.26198901  0.03147497  0.68659224  1
  S  S28  1  0.15977201  0.46582631  0.45488539  1
  S  S29  1  0.83489172  0.56284540  0.55384740  1
  S  S30  1  0.44682446  0.49527475  0.82190900  1
  S  S31  1  0.57216464  0.55646303  0.20503966  1
  S  S32  1  0.91242330  0.45189366  0.97584582  1
  S  S33  1  0.07603794  0.44657511  0.00292408  1
  S  S34  1  0.68423208  0.43531031  0.90420326  1
  S  S35  1  0.35097384  0.47108386  0.11614419  1
  S  S36  1  0.61544393  0.96088381  0.68477891  1
  S  S37  1  0.41843399  0.00787983  0.36368972  1
  S  S38  1  0.25973910  0.45877600  0.28930687  1
  S  S39  1  0.76292779  0.44791672  0.67943551  1
  S  S40  1  0.66517652  0.97199447  0.44372207  1
  S  S41  1  0.31435148  0.05183315  0.53194137  1
