# generated using pymatgen
data_Pr2Mn3(SbS3)4
_symmetry_space_group_name_H-M   'P 1'
_cell_length_a   20.02960800
_cell_length_b   3.90410600
_cell_length_c   14.95364829
_cell_angle_alpha   90.00000000
_cell_angle_beta   126.33350609
_cell_angle_gamma   90.00000000
_symmetry_Int_Tables_number   1
_chemical_formula_structural   Pr2Mn3(SbS3)4
_chemical_formula_sum   'Pr4 Mn6 Sb8 S24'
_cell_volume   942.00006694
_cell_formula_units_Z   2
loop_
 _symmetry_equiv_pos_site_id
 _symmetry_equiv_pos_as_xyz
  1  'x, y, z'
loop_
 _atom_site_type_symbol
 _atom_site_label
 _atom_site_symmetry_multiplicity
 _atom_site_fract_x
 _atom_site_fract_y
 _atom_site_fract_z
 _atom_site_occupancy
  Pr  Pr0  1  0.26969804  0.50255173  0.86756327  1
  Pr  Pr1  1  0.73328003  0.51350086  0.13350054  1
  Pr  Pr2  1  0.76539317  0.02956346  0.86794716  1
  Pr  Pr3  1  0.23160660  0.98886748  0.13104156  1
  Mn  Mn4  1  0.30118171  0.47095793  0.60749055  1
  Mn  Mn5  1  0.68574989  0.46687018  0.36272059  1
  Mn  Mn6  1  0.00272466  0.99058717  0.01061310  1
  Mn  Mn7  1  0.79445950  0.01795524  0.61556279  1
  Mn  Mn8  1  0.19336850  0.99470090  0.36565265  1
  Mn  Mn9  1  0.48303813  0.47303666  0.98231272  1
  Sb  Sb10  1  0.88971093  0.98580376  0.44815559  1
  Sb  Sb11  1  0.11002211  0.98102804  0.54566651  1
  Sb  Sb12  1  0.03460293  0.53209371  0.82096347  1
  Sb  Sb13  1  0.96676907  0.49775448  0.18933414  1
  Sb  Sb14  1  0.39450775  0.49939679  0.44959651  1
  Sb  Sb15  1  0.61011710  0.47977707  0.54742084  1
  Sb  Sb16  1  0.53251721  0.97445460  0.80656273  1
  Sb  Sb17  1  0.46493886  0.02359665  0.18728372  1
  S  S18  1  0.93803320  0.01979844  0.80939897  1
  S  S19  1  0.06780244  0.00893437  0.20795738  1
  S  S20  1  0.41826073  0.97171862  0.98497155  1
  S  S21  1  0.58765062  0.03971852  0.01625925  1
  S  S22  1  0.16662551  0.03932056  0.90114709  1
  S  S23  1  0.82642162  0.01606370  0.10499785  1
  S  S24  1  0.08657240  0.49661755  0.64231638  1
  S  S25  1  0.91373289  0.48073603  0.35076537  1
  S  S26  1  0.73647526  0.00661355  0.29669550  1
  S  S27  1  0.25727378  0.01935165  0.70400286  1
  S  S28  1  0.16876062  0.51394701  0.43783749  1
  S  S29  1  0.80914277  0.50739989  0.53781468  1
  S  S30  1  0.43059586  0.47310652  0.79630900  1
  S  S31  1  0.55252775  0.51467084  0.17942340  1
  S  S32  1  0.92376992  0.50384946  0.99404991  1
  S  S33  1  0.09080448  0.49909030  0.02690486  1
  S  S34  1  0.66689225  0.55960818  0.89898380  1
  S  S35  1  0.32878859  0.46832888  0.09439551  1
  S  S36  1  0.58653823  0.99304348  0.64621266  1
  S  S37  1  0.39563468  0.97628390  0.33514000  1
  S  S38  1  0.24699403  0.47689988  0.31640032  1
  S  S39  1  0.76039762  0.52719191  0.68951782  1
  S  S40  1  0.66306477  0.98390892  0.44408586  1
  S  S41  1  0.32880283  0.98027713  0.55321072  1
