# generated using pymatgen
data_Pr2Mn3(SbS3)4
_symmetry_space_group_name_H-M   'P 1'
_cell_length_a   20.02960800
_cell_length_b   3.90410600
_cell_length_c   14.95364829
_cell_angle_alpha   90.00000000
_cell_angle_beta   126.33350609
_cell_angle_gamma   90.00000000
_symmetry_Int_Tables_number   1
_chemical_formula_structural   Pr2Mn3(SbS3)4
_chemical_formula_sum   'Pr4 Mn6 Sb8 S24'
_cell_volume   942.00006694
_cell_formula_units_Z   2
loop_
 _symmetry_equiv_pos_site_id
 _symmetry_equiv_pos_as_xyz
  1  'x, y, z'
loop_
 _atom_site_type_symbol
 _atom_site_label
 _atom_site_symmetry_multiplicity
 _atom_site_fract_x
 _atom_site_fract_y
 _atom_site_fract_z
 _atom_site_occupancy
  Pr  Pr0  1  0.26398319  0.46421494  0.87117047  1
  Pr  Pr1  1  0.73237665  0.54469666  0.13481547  1
  Pr  Pr2  1  0.77429294  0.99170391  0.87042872  1
  Pr  Pr3  1  0.22890703  0.96784113  0.13103784  1
  Mn  Mn4  1  0.28604820  0.57597449  0.58916416  1
  Mn  Mn5  1  0.70576814  0.50983992  0.40053157  1
  Mn  Mn6  1  0.99345114  0.92608624  0.98710171  1
  Mn  Mn7  1  0.79149135  0.04730913  0.59565613  1
  Mn  Mn8  1  0.18148835  0.99450397  0.38959002  1
  Mn  Mn9  1  0.51910540  0.49916138  0.02036754  1
  Sb  Sb10  1  0.89586580  0.00675963  0.45047574  1
  Sb  Sb11  1  0.10849783  0.98939030  0.54423986  1
  Sb  Sb12  1  0.02679934  0.50770092  0.80484230  1
  Sb  Sb13  1  0.96977813  0.45850281  0.19101833  1
  Sb  Sb14  1  0.40366259  0.51490128  0.46532960  1
  Sb  Sb15  1  0.60147099  0.42547792  0.55227153  1
  Sb  Sb16  1  0.52713165  0.98915328  0.81088748  1
  Sb  Sb17  1  0.46809869  0.98910199  0.18530721  1
  S  S18  1  0.93380435  0.94032419  0.80378243  1
  S  S19  1  0.06984529  0.95908374  0.20862378  1
  S  S20  1  0.41878132  0.95935409  0.99048909  1
  S  S21  1  0.58599070  0.00915880  0.02656425  1
  S  S22  1  0.18179688  0.00111185  0.89915073  1
  S  S23  1  0.83890668  0.98162834  0.10968070  1
  S  S24  1  0.11564830  0.51670442  0.66062159  1
  S  S25  1  0.89052386  0.47128922  0.33567974  1
  S  S26  1  0.73771588  0.99061676  0.32700065  1
  S  S27  1  0.26182162  0.03137556  0.68612994  1
  S  S28  1  0.15963434  0.46552798  0.45446502  1
  S  S29  1  0.83506476  0.56419006  0.55397937  1
  S  S30  1  0.44714507  0.49346783  0.82202506  1
  S  S31  1  0.57234575  0.55786402  0.20519981  1
  S  S32  1  0.91237846  0.45204742  0.97575661  1
  S  S33  1  0.07627483  0.44680566  0.00290828  1
  S  S34  1  0.68474016  0.43567445  0.90479462  1
  S  S35  1  0.35107303  0.46931135  0.11606934  1
  S  S36  1  0.61596387  0.95866427  0.68541530  1
  S  S37  1  0.41836538  0.00625973  0.36365200  1
  S  S38  1  0.25978454  0.45899512  0.28967276  1
  S  S39  1  0.76285043  0.44908167  0.67911207  1
  S  S40  1  0.66522925  0.97176291  0.44406284  1
  S  S41  1  0.31443450  0.05219345  0.53184999  1
