# generated using pymatgen
data_Pr2Mn3(SbS3)4
_symmetry_space_group_name_H-M   'P 1'
_cell_length_a   20.02960800
_cell_length_b   3.90410600
_cell_length_c   14.95364829
_cell_angle_alpha   90.00000000
_cell_angle_beta   126.33350609
_cell_angle_gamma   90.00000000
_symmetry_Int_Tables_number   1
_chemical_formula_structural   Pr2Mn3(SbS3)4
_chemical_formula_sum   'Pr4 Mn6 Sb8 S24'
_cell_volume   942.00006694
_cell_formula_units_Z   2
loop_
 _symmetry_equiv_pos_site_id
 _symmetry_equiv_pos_as_xyz
  1  'x, y, z'
loop_
 _atom_site_type_symbol
 _atom_site_label
 _atom_site_symmetry_multiplicity
 _atom_site_fract_x
 _atom_site_fract_y
 _atom_site_fract_z
 _atom_site_occupancy
  Pr  Pr0  1  0.26425515  0.46403412  0.87134713  1
  Pr  Pr1  1  0.73228806  0.54451417  0.13467468  1
  Pr  Pr2  1  0.77448383  0.99236145  0.87036172  1
  Pr  Pr3  1  0.22905304  0.96763608  0.13101144  1
  Mn  Mn4  1  0.28627960  0.57579774  0.58987404  1
  Mn  Mn5  1  0.70550701  0.50950261  0.40005123  1
  Mn  Mn6  1  0.99326808  0.92545556  0.98675650  1
  Mn  Mn7  1  0.79127941  0.04815551  0.59554967  1
  Mn  Mn8  1  0.18151951  0.99444362  0.38946360  1
  Mn  Mn9  1  0.51904821  0.49896392  0.02025870  1
  Sb  Sb10  1  0.89585045  0.00711881  0.45064110  1
  Sb  Sb11  1  0.10879936  0.98936938  0.54471044  1
  Sb  Sb12  1  0.02673929  0.50768058  0.80459788  1
  Sb  Sb13  1  0.96965764  0.45833588  0.19093035  1
  Sb  Sb14  1  0.40348223  0.51535496  0.46538219  1
  Sb  Sb15  1  0.60138220  0.42601181  0.55222732  1
  Sb  Sb16  1  0.52710220  0.98887261  0.81096932  1
  Sb  Sb17  1  0.46832251  0.98936164  0.18571339  1
  S  S18  1  0.93381519  0.93926159  0.80390150  1
  S  S19  1  0.06969540  0.96117997  0.20815452  1
  S  S20  1  0.41885296  0.95916698  0.99072680  1
  S  S21  1  0.58573508  0.00927015  0.02634417  1
  S  S22  1  0.18178955  0.99995671  0.89916788  1
  S  S23  1  0.83918360  0.98080160  0.11010102  1
  S  S24  1  0.11544367  0.51754257  0.66036023  1
  S  S25  1  0.89038395  0.47222596  0.33586912  1
  S  S26  1  0.73787284  0.98973065  0.32707864  1
  S  S27  1  0.26161593  0.03251153  0.68577381  1
  S  S28  1  0.15959592  0.46472660  0.45422863  1
  S  S29  1  0.83534547  0.56524021  0.55419795  1
  S  S30  1  0.44752057  0.49198283  0.82211057  1
  S  S31  1  0.57246629  0.55893942  0.20538014  1
  S  S32  1  0.91214657  0.45216535  0.97559343  1
  S  S33  1  0.07643276  0.44648926  0.00302128  1
  S  S34  1  0.68537186  0.43599161  0.90542034  1
  S  S35  1  0.35112687  0.46799034  0.11589605  1
  S  S36  1  0.61626126  0.95611057  0.68576505  1
  S  S37  1  0.41819060  0.00457056  0.36358545  1
  S  S38  1  0.25991884  0.45925777  0.29001577  1
  S  S39  1  0.76273634  0.45055144  0.67867201  1
  S  S40  1  0.66538438  0.97157379  0.44429646  1
  S  S41  1  0.31451240  0.05211202  0.53191570  1
