# generated using pymatgen
data_Pr2Mn3(SbS3)4
_symmetry_space_group_name_H-M   'P 1'
_cell_length_a   20.02960800
_cell_length_b   3.90410600
_cell_length_c   14.95364829
_cell_angle_alpha   90.00000000
_cell_angle_beta   126.33350609
_cell_angle_gamma   90.00000000
_symmetry_Int_Tables_number   1
_chemical_formula_structural   Pr2Mn3(SbS3)4
_chemical_formula_sum   'Pr4 Mn6 Sb8 S24'
_cell_volume   942.00006694
_cell_formula_units_Z   2
loop_
 _symmetry_equiv_pos_site_id
 _symmetry_equiv_pos_as_xyz
  1  'x, y, z'
loop_
 _atom_site_type_symbol
 _atom_site_label
 _atom_site_symmetry_multiplicity
 _atom_site_fract_x
 _atom_site_fract_y
 _atom_site_fract_z
 _atom_site_occupancy
  Pr  Pr0  1  0.26444157  0.46344449  0.87142630  1
  Pr  Pr1  1  0.73219240  0.54426595  0.13458191  1
  Pr  Pr2  1  0.77469534  0.99301023  0.87026535  1
  Pr  Pr3  1  0.22920750  0.96756341  0.13092435  1
  Mn  Mn4  1  0.28637967  0.57524137  0.59064004  1
  Mn  Mn5  1  0.70523430  0.50911545  0.39975007  1
  Mn  Mn6  1  0.99297915  0.92470641  0.98639799  1
  Mn  Mn7  1  0.79105565  0.04951078  0.59553914  1
  Mn  Mn8  1  0.18156498  0.99461024  0.38937324  1
  Mn  Mn9  1  0.51898221  0.49873654  0.02020865  1
  Sb  Sb10  1  0.89581774  0.00776423  0.45086618  1
  Sb  Sb11  1  0.10901227  0.98893851  0.54504677  1
  Sb  Sb12  1  0.02673726  0.50770734  0.80438473  1
  Sb  Sb13  1  0.96958840  0.45830957  0.19080356  1
  Sb  Sb14  1  0.40324852  0.51557624  0.46535275  1
  Sb  Sb15  1  0.60128739  0.42616935  0.55225211  1
  Sb  Sb16  1  0.52699221  0.98856984  0.81099385  1
  Sb  Sb17  1  0.46848767  0.98920655  0.18605752  1
  S  S18  1  0.93388609  0.93934723  0.80402011  1
  S  S19  1  0.06967266  0.96322624  0.20798568  1
  S  S20  1  0.41900195  0.95919725  0.99096285  1
  S  S21  1  0.58547630  0.00982990  0.02601245  1
  S  S22  1  0.18178978  0.99875642  0.89934563  1
  S  S23  1  0.83936258  0.98016239  0.11047199  1
  S  S24  1  0.11528685  0.51808991  0.66026142  1
  S  S25  1  0.89038931  0.47327462  0.33590785  1
  S  S26  1  0.73799020  0.98931962  0.32724062  1
  S  S27  1  0.26145780  0.03288929  0.68540860  1
  S  S28  1  0.15959716  0.46392666  0.45402538  1
  S  S29  1  0.83560087  0.56617050  0.55436675  1
  S  S30  1  0.44783727  0.49058279  0.82216871  1
  S  S31  1  0.57257938  0.55950771  0.20551005  1
  S  S32  1  0.91203234  0.45199508  0.97545886  1
  S  S33  1  0.07661924  0.44622783  0.00318033  1
  S  S34  1  0.68578024  0.43699896  0.90574205  1
  S  S35  1  0.35116119  0.46674555  0.11559312  1
  S  S36  1  0.61651018  0.95346301  0.68593038  1
  S  S37  1  0.41808822  0.00254226  0.36343983  1
  S  S38  1  0.26012881  0.45989252  0.29033657  1
  S  S39  1  0.76254589  0.45193231  0.67804742  1
  S  S40  1  0.66548586  0.97148486  0.44449771  1
  S  S41  1  0.31462446  0.05209177  0.53191890  1
