# generated using pymatgen
data_Pr2Mn3(SbS3)4
_symmetry_space_group_name_H-M   'P 1'
_cell_length_a   20.02960800
_cell_length_b   3.90410600
_cell_length_c   14.95364829
_cell_angle_alpha   90.00000000
_cell_angle_beta   126.33350609
_cell_angle_gamma   90.00000000
_symmetry_Int_Tables_number   1
_chemical_formula_structural   Pr2Mn3(SbS3)4
_chemical_formula_sum   'Pr4 Mn6 Sb8 S24'
_cell_volume   942.00006694
_cell_formula_units_Z   2
loop_
 _symmetry_equiv_pos_site_id
 _symmetry_equiv_pos_as_xyz
  1  'x, y, z'
loop_
 _atom_site_type_symbol
 _atom_site_label
 _atom_site_symmetry_multiplicity
 _atom_site_fract_x
 _atom_site_fract_y
 _atom_site_fract_z
 _atom_site_occupancy
  Pr  Pr0  1  0.26453627  0.46302043  0.87140365  1
  Pr  Pr1  1  0.73210934  0.54437909  0.13443538  1
  Pr  Pr2  1  0.77487810  0.99349237  0.87020224  1
  Pr  Pr3  1  0.22933052  0.96746623  0.13080685  1
  Mn  Mn4  1  0.28641126  0.57429060  0.59124743  1
  Mn  Mn5  1  0.70494401  0.50882359  0.39954362  1
  Mn  Mn6  1  0.99257893  0.92427116  0.98602613  1
  Mn  Mn7  1  0.79088461  0.05085455  0.59549418  1
  Mn  Mn8  1  0.18150459  0.99522465  0.38915508  1
  Mn  Mn9  1  0.51888247  0.49873214  0.02015498  1
  Sb  Sb10  1  0.89580323  0.00815823  0.45112540  1
  Sb  Sb11  1  0.10920277  0.98794135  0.54532366  1
  Sb  Sb12  1  0.02676815  0.50788610  0.80421800  1
  Sb  Sb13  1  0.96951505  0.45843841  0.19071309  1
  Sb  Sb14  1  0.40303784  0.51605183  0.46525833  1
  Sb  Sb15  1  0.60121522  0.42621632  0.55224670  1
  Sb  Sb16  1  0.52690108  0.98884310  0.81112708  1
  Sb  Sb17  1  0.46870944  0.98913486  0.18645770  1
  S  S18  1  0.93389845  0.93958290  0.80377346  1
  S  S19  1  0.06964286  0.96526042  0.20784024  1
  S  S20  1  0.41901897  0.95910750  0.99113219  1
  S  S21  1  0.58528177  0.01044586  0.02584152  1
  S  S22  1  0.18177497  0.99774788  0.89953270  1
  S  S23  1  0.83965250  0.97967799  0.11087017  1
  S  S24  1  0.11504996  0.51799521  0.65990838  1
  S  S25  1  0.89034345  0.47449661  0.33605484  1
  S  S26  1  0.73804066  0.98923945  0.32712106  1
  S  S27  1  0.26134347  0.03338164  0.68508139  1
  S  S28  1  0.15952985  0.46378482  0.45386068  1
  S  S29  1  0.83578851  0.56682666  0.55449622  1
  S  S30  1  0.44809751  0.48916370  0.82221334  1
  S  S31  1  0.57274558  0.55977850  0.20573733  1
  S  S32  1  0.91197796  0.45184201  0.97544331  1
  S  S33  1  0.07680773  0.44625854  0.00337265  1
  S  S34  1  0.68620157  0.43798205  0.90603525  1
  S  S35  1  0.35125072  0.46559119  0.11515874  1
  S  S36  1  0.61665561  0.95075078  0.68614575  1
  S  S37  1  0.41817505  0.00131795  0.36339350  1
  S  S38  1  0.26047977  0.46060650  0.29083635  1
  S  S39  1  0.76253295  0.45335036  0.67749671  1
  S  S40  1  0.66559979  0.97185656  0.44474702  1
  S  S41  1  0.31470295  0.05140012  0.53199720  1
