# generated using pymatgen
data_Pr2Mn3(SbS3)4
_symmetry_space_group_name_H-M   'P 1'
_cell_length_a   20.02960800
_cell_length_b   3.90410600
_cell_length_c   14.95364829
_cell_angle_alpha   90.00000000
_cell_angle_beta   126.33350609
_cell_angle_gamma   90.00000000
_symmetry_Int_Tables_number   1
_chemical_formula_structural   Pr2Mn3(SbS3)4
_chemical_formula_sum   'Pr4 Mn6 Sb8 S24'
_cell_volume   942.00006694
_cell_formula_units_Z   2
loop_
 _symmetry_equiv_pos_site_id
 _symmetry_equiv_pos_as_xyz
  1  'x, y, z'
loop_
 _atom_site_type_symbol
 _atom_site_label
 _atom_site_symmetry_multiplicity
 _atom_site_fract_x
 _atom_site_fract_y
 _atom_site_fract_z
 _atom_site_occupancy
  Pr  Pr0  1  0.26465627  0.46285386  0.87144735  1
  Pr  Pr1  1  0.73199385  0.54471476  0.13427222  1
  Pr  Pr2  1  0.77500371  0.99391498  0.87008874  1
  Pr  Pr3  1  0.22952096  0.96728704  0.13075148  1
  Mn  Mn4  1  0.28643094  0.57322914  0.59176810  1
  Mn  Mn5  1  0.70465908  0.50861680  0.39928721  1
  Mn  Mn6  1  0.99218565  0.92373838  0.98568811  1
  Mn  Mn7  1  0.79071055  0.05201723  0.59548878  1
  Mn  Mn8  1  0.18151308  0.99565185  0.38892056  1
  Mn  Mn9  1  0.51883138  0.49876892  0.02012533  1
  Sb  Sb10  1  0.89579566  0.00849774  0.45133543  1
  Sb  Sb11  1  0.10946301  0.98690432  0.54563981  1
  Sb  Sb12  1  0.02691349  0.50802329  0.80412615  1
  Sb  Sb13  1  0.96945232  0.45858410  0.19059957  1
  Sb  Sb14  1  0.40288640  0.51673719  0.46524933  1
  Sb  Sb15  1  0.60122148  0.42629301  0.55223891  1
  Sb  Sb16  1  0.52666853  0.98926097  0.81098525  1
  Sb  Sb17  1  0.46888404  0.98910707  0.18683829  1
  S  S18  1  0.93392273  0.93972740  0.80365923  1
  S  S19  1  0.06955264  0.96780107  0.20738773  1
  S  S20  1  0.41908334  0.95881726  0.99119757  1
  S  S21  1  0.58490002  0.01098873  0.02573786  1
  S  S22  1  0.18166682  0.99693656  0.89950882  1
  S  S23  1  0.83997997  0.97908110  0.11129251  1
  S  S24  1  0.11480337  0.51800521  0.65938442  1
  S  S25  1  0.89029892  0.47626879  0.33630311  1
  S  S26  1  0.73799105  0.98864638  0.32670427  1
  S  S27  1  0.26124336  0.03420684  0.68477952  1
  S  S28  1  0.15942701  0.46392574  0.45360792  1
  S  S29  1  0.83581762  0.56716943  0.55450775  1
  S  S30  1  0.44834227  0.48793094  0.82229270  1
  S  S31  1  0.57292007  0.56020337  0.20595467  1
  S  S32  1  0.91180617  0.45212708  0.97549205  1
  S  S33  1  0.07712024  0.44677421  0.00376034  1
  S  S34  1  0.68648549  0.43889474  0.90633463  1
  S  S35  1  0.35130144  0.46423391  0.11494183  1
  S  S36  1  0.61677627  0.94889004  0.68633193  1
  S  S37  1  0.41809703  0.00044033  0.36312432  1
  S  S38  1  0.26098490  0.46133770  0.29136113  1
  S  S39  1  0.76254782  0.45465720  0.67715631  1
  S  S40  1  0.66569104  0.97241932  0.44504252  1
  S  S41  1  0.31473026  0.05056540  0.53211662  1
