# generated using pymatgen
data_Pr2Mn3(SbS3)4
_symmetry_space_group_name_H-M   'P 1'
_cell_length_a   20.02960800
_cell_length_b   3.90410600
_cell_length_c   14.95364829
_cell_angle_alpha   90.00000000
_cell_angle_beta   126.33350609
_cell_angle_gamma   90.00000000
_symmetry_Int_Tables_number   1
_chemical_formula_structural   Pr2Mn3(SbS3)4
_chemical_formula_sum   'Pr4 Mn6 Sb8 S24'
_cell_volume   942.00006694
_cell_formula_units_Z   2
loop_
 _symmetry_equiv_pos_site_id
 _symmetry_equiv_pos_as_xyz
  1  'x, y, z'
loop_
 _atom_site_type_symbol
 _atom_site_label
 _atom_site_symmetry_multiplicity
 _atom_site_fract_x
 _atom_site_fract_y
 _atom_site_fract_z
 _atom_site_occupancy
  Pr  Pr0  1  0.26472268  0.46271996  0.87145818  1
  Pr  Pr1  1  0.73194087  0.54481727  0.13420748  1
  Pr  Pr2  1  0.77510612  0.99414052  0.87003541  1
  Pr  Pr3  1  0.22972024  0.96736388  0.13074240  1
  Mn  Mn4  1  0.28638701  0.57271232  0.59225575  1
  Mn  Mn5  1  0.70443261  0.50861769  0.39908844  1
  Mn  Mn6  1  0.99185522  0.92257956  0.98539565  1
  Mn  Mn7  1  0.79047081  0.05248056  0.59550283  1
  Mn  Mn8  1  0.18151697  0.99598660  0.38873587  1
  Mn  Mn9  1  0.51872020  0.49846356  0.01986656  1
  Sb  Sb10  1  0.89577381  0.00871573  0.45143236  1
  Sb  Sb11  1  0.10969854  0.98593251  0.54595847  1
  Sb  Sb12  1  0.02700374  0.50775064  0.80399421  1
  Sb  Sb13  1  0.96942344  0.45861084  0.19054349  1
  Sb  Sb14  1  0.40276178  0.51738909  0.46521305  1
  Sb  Sb15  1  0.60120266  0.42647647  0.55213126  1
  Sb  Sb16  1  0.52648221  0.98979083  0.81096791  1
  Sb  Sb17  1  0.46907075  0.98903525  0.18721402  1
  S  S18  1  0.93390355  0.93995816  0.80349495  1
  S  S19  1  0.06951680  0.97076972  0.20694727  1
  S  S20  1  0.41916019  0.95829731  0.99117828  1
  S  S21  1  0.58454403  0.01145943  0.02558255  1
  S  S22  1  0.18158170  0.99602697  0.89949247  1
  S  S23  1  0.84036044  0.97862328  0.11160864  1
  S  S24  1  0.11457488  0.51791769  0.65904682  1
  S  S25  1  0.89035096  0.47824723  0.33661209  1
  S  S26  1  0.73778691  0.98806734  0.32624099  1
  S  S27  1  0.26129742  0.03437890  0.68450952  1
  S  S28  1  0.15935927  0.46354784  0.45336059  1
  S  S29  1  0.83605583  0.56753079  0.55472139  1
  S  S30  1  0.44863640  0.48719751  0.82256314  1
  S  S31  1  0.57312612  0.55998424  0.20640135  1
  S  S32  1  0.91178548  0.45284053  0.97559863  1
  S  S33  1  0.07741735  0.44696962  0.00404638  1
  S  S34  1  0.68679668  0.43958364  0.90670291  1
  S  S35  1  0.35141026  0.46293382  0.11467542  1
  S  S36  1  0.61685373  0.94777784  0.68637199  1
  S  S37  1  0.41786814  0.99903967  0.36280051  1
  S  S38  1  0.26121510  0.46232949  0.29160566  1
  S  S39  1  0.76255988  0.45611793  0.67687700  1
  S  S40  1  0.66582304  0.97260019  0.44518968  1
  S  S41  1  0.31501733  0.04969006  0.53243609  1
