# generated using pymatgen
data_Pr2Mn3(SbS3)4
_symmetry_space_group_name_H-M   'P 1'
_cell_length_a   20.02960800
_cell_length_b   3.90410600
_cell_length_c   14.95364829
_cell_angle_alpha   90.00000000
_cell_angle_beta   126.33350609
_cell_angle_gamma   90.00000000
_symmetry_Int_Tables_number   1
_chemical_formula_structural   Pr2Mn3(SbS3)4
_chemical_formula_sum   'Pr4 Mn6 Sb8 S24'
_cell_volume   942.00006694
_cell_formula_units_Z   2
loop_
 _symmetry_equiv_pos_site_id
 _symmetry_equiv_pos_as_xyz
  1  'x, y, z'
loop_
 _atom_site_type_symbol
 _atom_site_label
 _atom_site_symmetry_multiplicity
 _atom_site_fract_x
 _atom_site_fract_y
 _atom_site_fract_z
 _atom_site_occupancy
  Pr  Pr0  1  0.26471843  0.46246065  0.87142121  1
  Pr  Pr1  1  0.73188009  0.54450401  0.13417065  1
  Pr  Pr2  1  0.77519226  0.99435299  0.87000202  1
  Pr  Pr3  1  0.22984947  0.96721042  0.13064102  1
  Mn  Mn4  1  0.28637854  0.57233325  0.59265433  1
  Mn  Mn5  1  0.70423653  0.50879587  0.39877509  1
  Mn  Mn6  1  0.99151524  0.92135676  0.98511825  1
  Mn  Mn7  1  0.79028040  0.05255987  0.59561466  1
  Mn  Mn8  1  0.18149309  0.99615687  0.38841254  1
  Mn  Mn9  1  0.51867303  0.49806616  0.01976563  1
  Sb  Sb10  1  0.89575449  0.00894808  0.45150795  1
  Sb  Sb11  1  0.10994847  0.98509518  0.54611869  1
  Sb  Sb12  1  0.02707293  0.50768756  0.80386927  1
  Sb  Sb13  1  0.96936920  0.45836393  0.19051988  1
  Sb  Sb14  1  0.40260305  0.51807392  0.46507465  1
  Sb  Sb15  1  0.60118517  0.42691007  0.55202562  1
  Sb  Sb16  1  0.52622021  0.99069444  0.81093837  1
  Sb  Sb17  1  0.46923998  0.98878795  0.18760099  1
  S  S18  1  0.93408075  0.94070619  0.80329270  1
  S  S19  1  0.06958159  0.97318468  0.20657740  1
  S  S20  1  0.41923489  0.95780711  0.99121553  1
  S  S21  1  0.58411316  0.01171645  0.02531873  1
  S  S22  1  0.18153260  0.99528313  0.89949754  1
  S  S23  1  0.84073105  0.97812626  0.11196664  1
  S  S24  1  0.11442270  0.51768027  0.65873503  1
  S  S25  1  0.89028230  0.47991218  0.33663733  1
  S  S26  1  0.73757502  0.98808924  0.32574644  1
  S  S27  1  0.26149263  0.03482734  0.68443420  1
  S  S28  1  0.15916119  0.46317454  0.45296423  1
  S  S29  1  0.83634442  0.56772197  0.55502763  1
  S  S30  1  0.44887653  0.48680034  0.82265930  1
  S  S31  1  0.57346080  0.55930823  0.20685150  1
  S  S32  1  0.91182362  0.45399170  0.97571171  1
  S  S33  1  0.07768316  0.44716401  0.00428114  1
  S  S34  1  0.68722580  0.44012307  0.90702142  1
  S  S35  1  0.35141502  0.46151518  0.11406409  1
  S  S36  1  0.61710381  0.94688408  0.68642896  1
  S  S37  1  0.41757625  0.99805448  0.36244323  1
  S  S38  1  0.26129255  0.46360503  0.29155402  1
  S  S39  1  0.76260767  0.45726919  0.67658197  1
  S  S40  1  0.66609362  0.97223670  0.44566442  1
  S  S41  1  0.31532482  0.04920480  0.53268274  1
