# generated using pymatgen
data_Pr2Mn3(SbS3)4
_symmetry_space_group_name_H-M   'P 1'
_cell_length_a   20.02960800
_cell_length_b   3.90410600
_cell_length_c   14.95364829
_cell_angle_alpha   90.00000000
_cell_angle_beta   126.33350609
_cell_angle_gamma   90.00000000
_symmetry_Int_Tables_number   1
_chemical_formula_structural   Pr2Mn3(SbS3)4
_chemical_formula_sum   'Pr4 Mn6 Sb8 S24'
_cell_volume   942.00006694
_cell_formula_units_Z   2
loop_
 _symmetry_equiv_pos_site_id
 _symmetry_equiv_pos_as_xyz
  1  'x, y, z'
loop_
 _atom_site_type_symbol
 _atom_site_label
 _atom_site_symmetry_multiplicity
 _atom_site_fract_x
 _atom_site_fract_y
 _atom_site_fract_z
 _atom_site_occupancy
  Pr  Pr0  1  0.26474673  0.46225099  0.87139064  1
  Pr  Pr1  1  0.73176933  0.54415398  0.13408093  1
  Pr  Pr2  1  0.77526238  0.99430292  0.87000143  1
  Pr  Pr3  1  0.22986065  0.96706798  0.13053028  1
  Mn  Mn4  1  0.28642432  0.57174460  0.59298966  1
  Mn  Mn5  1  0.70389756  0.50915773  0.39836390  1
  Mn  Mn6  1  0.99123242  0.92058481  0.98482947  1
  Mn  Mn7  1  0.79016751  0.05259097  0.59558188  1
  Mn  Mn8  1  0.18154009  0.99672245  0.38827470  1
  Mn  Mn9  1  0.51863426  0.49776326  0.01978816  1
  Sb  Sb10  1  0.89572836  0.00918877  0.45156648  1
  Sb  Sb11  1  0.11022491  0.98416292  0.54624163  1
  Sb  Sb12  1  0.02717299  0.50796477  0.80387062  1
  Sb  Sb13  1  0.96935062  0.45820114  0.19041783  1
  Sb  Sb14  1  0.40241929  0.51872713  0.46490315  1
  Sb  Sb15  1  0.60113843  0.42692319  0.55186112  1
  Sb  Sb16  1  0.52600099  0.99149209  0.81092127  1
  Sb  Sb17  1  0.46939984  0.98827154  0.18788970  1
  S  S18  1  0.93418876  0.94164748  0.80310408  1
  S  S19  1  0.06965871  0.97551587  0.20620588  1
  S  S20  1  0.41922308  0.95709911  0.99113774  1
  S  S21  1  0.58370531  0.01161808  0.02498067  1
  S  S22  1  0.18154233  0.99509365  0.89953464  1
  S  S23  1  0.84098372  0.97819428  0.11226102  1
  S  S24  1  0.11421185  0.51753448  0.65839140  1
  S  S25  1  0.89030699  0.48158667  0.33688186  1
  S  S26  1  0.73737703  0.98715978  0.32519864  1
  S  S27  1  0.26157660  0.03553166  0.68430035  1
  S  S28  1  0.15901632  0.46263581  0.45258305  1
  S  S29  1  0.83655741  0.56798066  0.55552499  1
  S  S30  1  0.44905020  0.48638400  0.82265126  1
  S  S31  1  0.57393031  0.55889632  0.20748997  1
  S  S32  1  0.91187524  0.45493651  0.97580230  1
  S  S33  1  0.07803060  0.44759756  0.00452222  1
  S  S34  1  0.68757640  0.44145871  0.90717085  1
  S  S35  1  0.35141999  0.46026053  0.11358663  1
  S  S36  1  0.61722196  0.94621055  0.68630191  1
  S  S37  1  0.41722911  0.99694465  0.36216797  1
  S  S38  1  0.26138445  0.46432380  0.29150227  1
  S  S39  1  0.76264094  0.45763350  0.67639319  1
  S  S40  1  0.66631961  0.97126381  0.44626925  1
  S  S41  1  0.31565037  0.04840781  0.53293405  1
