# generated using pymatgen
data_Pr2Mn3(SbS3)4
_symmetry_space_group_name_H-M   'P 1'
_cell_length_a   20.02960800
_cell_length_b   3.90410600
_cell_length_c   14.95364829
_cell_angle_alpha   90.00000000
_cell_angle_beta   126.33350609
_cell_angle_gamma   90.00000000
_symmetry_Int_Tables_number   1
_chemical_formula_structural   Pr2Mn3(SbS3)4
_chemical_formula_sum   'Pr4 Mn6 Sb8 S24'
_cell_volume   942.00006694
_cell_formula_units_Z   2
loop_
 _symmetry_equiv_pos_site_id
 _symmetry_equiv_pos_as_xyz
  1  'x, y, z'
loop_
 _atom_site_type_symbol
 _atom_site_label
 _atom_site_symmetry_multiplicity
 _atom_site_fract_x
 _atom_site_fract_y
 _atom_site_fract_z
 _atom_site_occupancy
  Pr  Pr0  1  0.26479244  0.46204787  0.87124206  1
  Pr  Pr1  1  0.73161052  0.54374624  0.13396645  1
  Pr  Pr2  1  0.77534363  0.99431963  0.86998480  1
  Pr  Pr3  1  0.22986447  0.96694089  0.13043452  1
  Mn  Mn4  1  0.28661775  0.57124093  0.59341682  1
  Mn  Mn5  1  0.70347129  0.50947430  0.39788360  1
  Mn  Mn6  1  0.99091778  0.91955355  0.98451575  1
  Mn  Mn7  1  0.79007737  0.05270249  0.59550961  1
  Mn  Mn8  1  0.18166079  0.99725409  0.38821279  1
  Mn  Mn9  1  0.51867737  0.49786238  0.01984649  1
  Sb  Sb10  1  0.89570678  0.00941720  0.45152201  1
  Sb  Sb11  1  0.11040254  0.98367073  0.54628369  1
  Sb  Sb12  1  0.02721196  0.50817124  0.80385132  1
  Sb  Sb13  1  0.96938338  0.45818760  0.19033411  1
  Sb  Sb14  1  0.40226654  0.51928371  0.46485619  1
  Sb  Sb15  1  0.60110157  0.42688649  0.55172336  1
  Sb  Sb16  1  0.52586233  0.99188346  0.81091883  1
  Sb  Sb17  1  0.46951955  0.98782884  0.18811429  1
  S  S18  1  0.93429959  0.94263754  0.80288363  1
  S  S19  1  0.06962312  0.97820860  0.20556488  1
  S  S20  1  0.41913425  0.95665378  0.99092081  1
  S  S21  1  0.58322789  0.01077876  0.02464430  1
  S  S22  1  0.18155204  0.99453680  0.89953251  1
  S  S23  1  0.84113043  0.97798027  0.11240407  1
  S  S24  1  0.11403699  0.51728036  0.65790589  1
  S  S25  1  0.89023083  0.48350754  0.33686442  1
  S  S26  1  0.73723881  0.98599826  0.32495678  1
  S  S27  1  0.26158200  0.03648844  0.68408719  1
  S  S28  1  0.15905825  0.46164508  0.45231152  1
  S  S29  1  0.83694630  0.56817201  0.55614162  1
  S  S30  1  0.44926580  0.48553683  0.82262643  1
  S  S31  1  0.57427496  0.55836520  0.20800365  1
  S  S32  1  0.91184381  0.45509452  0.97594131  1
  S  S33  1  0.07828156  0.44799226  0.00459834  1
  S  S34  1  0.68777040  0.44213711  0.90728391  1
  S  S35  1  0.35143599  0.45911447  0.11317281  1
  S  S36  1  0.61753522  0.94509652  0.68635436  1
  S  S37  1  0.41703974  0.99581509  0.36194239  1
  S  S38  1  0.26145677  0.46514825  0.29148834  1
  S  S39  1  0.76247433  0.45811502  0.67610817  1
  S  S40  1  0.66642886  0.96963806  0.44681394  1
  S  S41  1  0.31594284  0.04775127  0.53307697  1
