# generated using pymatgen
data_Pr2Mn3(SbS3)4
_symmetry_space_group_name_H-M   'P 1'
_cell_length_a   20.02960800
_cell_length_b   3.90410600
_cell_length_c   14.95364829
_cell_angle_alpha   90.00000000
_cell_angle_beta   126.33350609
_cell_angle_gamma   90.00000000
_symmetry_Int_Tables_number   1
_chemical_formula_structural   Pr2Mn3(SbS3)4
_chemical_formula_sum   'Pr4 Mn6 Sb8 S24'
_cell_volume   942.00006694
_cell_formula_units_Z   2
loop_
 _symmetry_equiv_pos_site_id
 _symmetry_equiv_pos_as_xyz
  1  'x, y, z'
loop_
 _atom_site_type_symbol
 _atom_site_label
 _atom_site_symmetry_multiplicity
 _atom_site_fract_x
 _atom_site_fract_y
 _atom_site_fract_z
 _atom_site_occupancy
  Pr  Pr0  1  0.26480761  0.46197216  0.87119025  1
  Pr  Pr1  1  0.73142327  0.54389520  0.13384872  1
  Pr  Pr2  1  0.77549619  0.99459386  0.86996422  1
  Pr  Pr3  1  0.22996370  0.96691067  0.13039989  1
  Mn  Mn4  1  0.28674432  0.57045496  0.59378567  1
  Mn  Mn5  1  0.70315900  0.50962891  0.39751880  1
  Mn  Mn6  1  0.99061060  0.91881280  0.98432557  1
  Mn  Mn7  1  0.79007279  0.05306827  0.59548136  1
  Mn  Mn8  1  0.18160676  0.99827592  0.38800650  1
  Mn  Mn9  1  0.51872892  0.49791962  0.01985599  1
  Sb  Sb10  1  0.89569706  0.00951801  0.45140527  1
  Sb  Sb11  1  0.11059449  0.98335887  0.54635283  1
  Sb  Sb12  1  0.02728001  0.50825462  0.80387018  1
  Sb  Sb13  1  0.96942335  0.45839869  0.19033064  1
  Sb  Sb14  1  0.40211689  0.51989023  0.46486833  1
  Sb  Sb15  1  0.60110421  0.42672058  0.55153673  1
  Sb  Sb16  1  0.52573244  0.99231595  0.81088028  1
  Sb  Sb17  1  0.46963083  0.98733309  0.18832040  1
  S  S18  1  0.93431021  0.94301889  0.80261628  1
  S  S19  1  0.06960720  0.98042604  0.20502253  1
  S  S20  1  0.41905942  0.95596717  0.99068954  1
  S  S21  1  0.58283076  0.01044861  0.02453135  1
  S  S22  1  0.18150146  0.99474764  0.89949595  1
  S  S23  1  0.84123410  0.97738530  0.11250716  1
  S  S24  1  0.11391606  0.51757668  0.65730914  1
  S  S25  1  0.89016915  0.48564300  0.33698127  1
  S  S26  1  0.73722164  0.98536800  0.32488402  1
  S  S27  1  0.26154973  0.03737149  0.68381755  1
  S  S28  1  0.15910412  0.46072755  0.45215408  1
  S  S29  1  0.83733059  0.56807103  0.55688406  1
  S  S30  1  0.44954791  0.48439496  0.82276805  1
  S  S31  1  0.57459097  0.55760585  0.20827977  1
  S  S32  1  0.91179242  0.45442765  0.97606433  1
  S  S33  1  0.07857556  0.44763638  0.00470866  1
  S  S34  1  0.68792150  0.44240406  0.90727682  1
  S  S35  1  0.35131955  0.45823407  0.11272160  1
  S  S36  1  0.61789381  0.94363571  0.68657069  1
  S  S37  1  0.41682710  0.99497113  0.36171092  1
  S  S38  1  0.26159932  0.46604452  0.29148648  1
  S  S39  1  0.76233868  0.45919568  0.67563659  1
  S  S40  1  0.66656315  0.96761341  0.44737962  1
  S  S41  1  0.31616508  0.04713563  0.53304079  1
