# generated using pymatgen
data_Pr2Mn3(SbS3)4
_symmetry_space_group_name_H-M   'P 1'
_cell_length_a   20.02960800
_cell_length_b   3.90410600
_cell_length_c   14.95364829
_cell_angle_alpha   90.00000000
_cell_angle_beta   126.33350609
_cell_angle_gamma   90.00000000
_symmetry_Int_Tables_number   1
_chemical_formula_structural   Pr2Mn3(SbS3)4
_chemical_formula_sum   'Pr4 Mn6 Sb8 S24'
_cell_volume   942.00006694
_cell_formula_units_Z   2
loop_
 _symmetry_equiv_pos_site_id
 _symmetry_equiv_pos_as_xyz
  1  'x, y, z'
loop_
 _atom_site_type_symbol
 _atom_site_label
 _atom_site_symmetry_multiplicity
 _atom_site_fract_x
 _atom_site_fract_y
 _atom_site_fract_z
 _atom_site_occupancy
  Pr  Pr0  1  0.26963178  0.50276074  0.86747942  1
  Pr  Pr1  1  0.73336076  0.51352552  0.13366497  1
  Pr  Pr2  1  0.76536097  0.02973353  0.86812074  1
  Pr  Pr3  1  0.23146169  0.98858331  0.13108429  1
  Mn  Mn4  1  0.30120060  0.46961215  0.60763602  1
  Mn  Mn5  1  0.68572800  0.46685951  0.36286994  1
  Mn  Mn6  1  0.00274832  0.99077404  0.01060418  1
  Mn  Mn7  1  0.79425035  0.01853158  0.61536703  1
  Mn  Mn8  1  0.19334227  0.99567992  0.36551337  1
  Mn  Mn9  1  0.48296749  0.47269861  0.98216559  1
  Sb  Sb10  1  0.88963177  0.98587034  0.44804651  1
  Sb  Sb11  1  0.11010237  0.98094973  0.54575702  1
  Sb  Sb12  1  0.03457712  0.53183624  0.82102400  1
  Sb  Sb13  1  0.96677876  0.49772586  0.18939417  1
  Sb  Sb14  1  0.39452382  0.49907938  0.44968285  1
  Sb  Sb15  1  0.61026423  0.48003883  0.54749957  1
  Sb  Sb16  1  0.53244848  0.97432793  0.80660795  1
  Sb  Sb17  1  0.46504571  0.02350585  0.18739906  1
  S  S18  1  0.93820621  0.01975960  0.80933059  1
  S  S19  1  0.06779554  0.00779523  0.20806761  1
  S  S20  1  0.41842404  0.97147484  0.98465961  1
  S  S21  1  0.58767748  0.03903101  0.01616973  1
  S  S22  1  0.16641223  0.03883725  0.90127622  1
  S  S23  1  0.82644142  0.01481672  0.10495877  1
  S  S24  1  0.08648759  0.49682751  0.64217816  1
  S  S25  1  0.91384777  0.48063977  0.35073253  1
  S  S26  1  0.73635177  0.00741229  0.29657051  1
  S  S27  1  0.25743194  0.02006837  0.70400741  1
  S  S28  1  0.16857407  0.51327561  0.43788394  1
  S  S29  1  0.80919350  0.50807900  0.53796311  1
  S  S30  1  0.43080643  0.47400058  0.79660014  1
  S  S31  1  0.55263816  0.51462084  0.17948954  1
  S  S32  1  0.92398770  0.50426154  0.99385469  1
  S  S33  1  0.09100695  0.49862896  0.02697758  1
  S  S34  1  0.66703442  0.56076864  0.89914134  1
  S  S35  1  0.32873655  0.46767022  0.09439837  1
  S  S36  1  0.58664185  0.99250402  0.64612868  1
  S  S37  1  0.39554562  0.97618729  0.33470558  1
  S  S38  1  0.24702919  0.47664786  0.31656175  1
  S  S39  1  0.76058707  0.52606924  0.68970558  1
  S  S40  1  0.66288960  0.98363367  0.44369042  1
  S  S41  1  0.32884443  0.98029339  0.55293078  1
