# generated using pymatgen
data_Pr2Mn3(SbS3)4
_symmetry_space_group_name_H-M   'P 1'
_cell_length_a   20.02960800
_cell_length_b   3.90410600
_cell_length_c   14.95364829
_cell_angle_alpha   90.00000000
_cell_angle_beta   126.33350609
_cell_angle_gamma   90.00000000
_symmetry_Int_Tables_number   1
_chemical_formula_structural   Pr2Mn3(SbS3)4
_chemical_formula_sum   'Pr4 Mn6 Sb8 S24'
_cell_volume   942.00006694
_cell_formula_units_Z   2
loop_
 _symmetry_equiv_pos_site_id
 _symmetry_equiv_pos_as_xyz
  1  'x, y, z'
loop_
 _atom_site_type_symbol
 _atom_site_label
 _atom_site_symmetry_multiplicity
 _atom_site_fract_x
 _atom_site_fract_y
 _atom_site_fract_z
 _atom_site_occupancy
  Pr  Pr0  1  0.26480369  0.46203967  0.87105916  1
  Pr  Pr1  1  0.73125260  0.54436146  0.13379038  1
  Pr  Pr2  1  0.77563231  0.99472011  0.86989895  1
  Pr  Pr3  1  0.23011884  0.96664538  0.13044817  1
  Mn  Mn4  1  0.28694118  0.56953520  0.59410377  1
  Mn  Mn5  1  0.70288365  0.50970971  0.39722399  1
  Mn  Mn6  1  0.99034602  0.91846540  0.98417248  1
  Mn  Mn7  1  0.79018368  0.05326395  0.59549393  1
  Mn  Mn8  1  0.18158620  0.99918199  0.38770288  1
  Mn  Mn9  1  0.51868968  0.49774486  0.01988025  1
  Sb  Sb10  1  0.89571201  0.00983969  0.45139518  1
  Sb  Sb11  1  0.11082551  0.98323741  0.54652749  1
  Sb  Sb12  1  0.02731310  0.50814586  0.80387528  1
  Sb  Sb13  1  0.96941924  0.45864729  0.19039899  1
  Sb  Sb14  1  0.40190769  0.52012769  0.46482087  1
  Sb  Sb15  1  0.60114084  0.42640103  0.55141888  1
  Sb  Sb16  1  0.52555531  0.99283321  0.81084313  1
  Sb  Sb17  1  0.46971304  0.98707550  0.18849269  1
  S  S18  1  0.93432523  0.94373729  0.80226195  1
  S  S19  1  0.06955711  0.98221853  0.20450205  1
  S  S20  1  0.41905029  0.95564804  0.99050780  1
  S  S21  1  0.58256208  0.00964111  0.02444238  1
  S  S22  1  0.18145283  0.99517457  0.89946908  1
  S  S23  1  0.84123366  0.97746980  0.11262481  1
  S  S24  1  0.11370942  0.51723423  0.65683264  1
  S  S25  1  0.89013347  0.48850576  0.33696164  1
  S  S26  1  0.73730293  0.98432919  0.32487656  1
  S  S27  1  0.26146040  0.03824645  0.68354473  1
  S  S28  1  0.15905939  0.46071317  0.45183006  1
  S  S29  1  0.83760112  0.56801161  0.55750663  1
  S  S30  1  0.44965001  0.48361959  0.82295758  1
  S  S31  1  0.57465225  0.55680360  0.20841211  1
  S  S32  1  0.91179637  0.45368906  0.97613510  1
  S  S33  1  0.07888102  0.44734159  0.00468707  1
  S  S34  1  0.68802507  0.44233472  0.90734749  1
  S  S35  1  0.35119406  0.45739721  0.11230530  1
  S  S36  1  0.61807384  0.94264475  0.68661714  1
  S  S37  1  0.41663955  0.99463712  0.36151937  1
  S  S38  1  0.26167881  0.46694326  0.29123756  1
  S  S39  1  0.76220590  0.46069154  0.67526845  1
  S  S40  1  0.66674029  0.96671600  0.44774739  1
  S  S41  1  0.31629091  0.04531794  0.53295947  1
