# generated using pymatgen
data_Pr2Mn3(SbS3)4
_symmetry_space_group_name_H-M   'P 1'
_cell_length_a   20.02960800
_cell_length_b   3.90410600
_cell_length_c   14.95364829
_cell_angle_alpha   90.00000000
_cell_angle_beta   126.33350609
_cell_angle_gamma   90.00000000
_symmetry_Int_Tables_number   1
_chemical_formula_structural   Pr2Mn3(SbS3)4
_chemical_formula_sum   'Pr4 Mn6 Sb8 S24'
_cell_volume   942.00006694
_cell_formula_units_Z   2
loop_
 _symmetry_equiv_pos_site_id
 _symmetry_equiv_pos_as_xyz
  1  'x, y, z'
loop_
 _atom_site_type_symbol
 _atom_site_label
 _atom_site_symmetry_multiplicity
 _atom_site_fract_x
 _atom_site_fract_y
 _atom_site_fract_z
 _atom_site_occupancy
  Pr  Pr0  1  0.26479587  0.46189252  0.87093254  1
  Pr  Pr1  1  0.73108457  0.54486531  0.13377158  1
  Pr  Pr2  1  0.77571449  0.99489905  0.86987752  1
  Pr  Pr3  1  0.23025798  0.96649883  0.13046353  1
  Mn  Mn4  1  0.28702466  0.56891057  0.59423682  1
  Mn  Mn5  1  0.70268761  0.50966455  0.39703883  1
  Mn  Mn6  1  0.99015349  0.91830125  0.98413807  1
  Mn  Mn7  1  0.79035882  0.05336375  0.59570275  1
  Mn  Mn8  1  0.18169171  0.99981824  0.38759745  1
  Mn  Mn9  1  0.51880850  0.49751912  0.02009878  1
  Sb  Sb10  1  0.89572434  0.01062754  0.45134978  1
  Sb  Sb11  1  0.11102449  0.98359107  0.54669560  1
  Sb  Sb12  1  0.02739950  0.50800083  0.80394456  1
  Sb  Sb13  1  0.96953055  0.45906724  0.19053082  1
  Sb  Sb14  1  0.40175770  0.52014826  0.46484772  1
  Sb  Sb15  1  0.60131186  0.42609278  0.55134361  1
  Sb  Sb16  1  0.52545980  0.99363204  0.81079774  1
  Sb  Sb17  1  0.46979254  0.98692590  0.18860844  1
  S  S18  1  0.93414376  0.94493974  0.80177775  1
  S  S19  1  0.06950388  0.98375982  0.20404044  1
  S  S20  1  0.41928744  0.95557055  0.99066348  1
  S  S21  1  0.58218912  0.00904283  0.02432073  1
  S  S22  1  0.18132758  0.99514939  0.89927761  1
  S  S23  1  0.84119041  0.97701068  0.11276027  1
  S  S24  1  0.11329865  0.51677793  0.65616948  1
  S  S25  1  0.89013603  0.49125812  0.33692254  1
  S  S26  1  0.73738995  0.98382010  0.32481429  1
  S  S27  1  0.26123950  0.03841705  0.68330400  1
  S  S28  1  0.15897184  0.46112792  0.45150881  1
  S  S29  1  0.83765718  0.56816106  0.55805626  1
  S  S30  1  0.44970593  0.48265057  0.82311485  1
  S  S31  1  0.57488199  0.55588732  0.20861765  1
  S  S32  1  0.91194954  0.45271901  0.97633944  1
  S  S33  1  0.07929216  0.44680423  0.00490553  1
  S  S34  1  0.68825492  0.44241465  0.90746566  1
  S  S35  1  0.35125000  0.45673288  0.11217230  1
  S  S36  1  0.61819635  0.94131307  0.68664712  1
  S  S37  1  0.41639307  0.99440675  0.36129968  1
  S  S38  1  0.26181467  0.46799385  0.29115439  1
  S  S39  1  0.76215918  0.46189785  0.67495346  1
  S  S40  1  0.66693078  0.96623642  0.44815141  1
  S  S41  1  0.31648223  0.04366247  0.53276987  1
