# generated using pymatgen
data_Pr2Mn3(SbS3)4
_symmetry_space_group_name_H-M   'P 1'
_cell_length_a   20.02960800
_cell_length_b   3.90410600
_cell_length_c   14.95364829
_cell_angle_alpha   90.00000000
_cell_angle_beta   126.33350609
_cell_angle_gamma   90.00000000
_symmetry_Int_Tables_number   1
_chemical_formula_structural   Pr2Mn3(SbS3)4
_chemical_formula_sum   'Pr4 Mn6 Sb8 S24'
_cell_volume   942.00006694
_cell_formula_units_Z   2
loop_
 _symmetry_equiv_pos_site_id
 _symmetry_equiv_pos_as_xyz
  1  'x, y, z'
loop_
 _atom_site_type_symbol
 _atom_site_label
 _atom_site_symmetry_multiplicity
 _atom_site_fract_x
 _atom_site_fract_y
 _atom_site_fract_z
 _atom_site_occupancy
  Pr  Pr0  1  0.26481012  0.46182468  0.87087220  1
  Pr  Pr1  1  0.73092886  0.54542938  0.13370126  1
  Pr  Pr2  1  0.77580306  0.99488009  0.86989266  1
  Pr  Pr3  1  0.23035627  0.96677268  0.13046985  1
  Mn  Mn4  1  0.28715840  0.56794231  0.59452191  1
  Mn  Mn5  1  0.70268694  0.50940609  0.39686029  1
  Mn  Mn6  1  0.98994765  0.91865351  0.98398385  1
  Mn  Mn7  1  0.79058297  0.05360203  0.59598212  1
  Mn  Mn8  1  0.18181054  0.00050845  0.38750683  1
  Mn  Mn9  1  0.51900462  0.49747756  0.02042971  1
  Sb  Sb10  1  0.89573124  0.01137032  0.45134960  1
  Sb  Sb11  1  0.11123074  0.98356399  0.54688835  1
  Sb  Sb12  1  0.02745923  0.50816119  0.80404445  1
  Sb  Sb13  1  0.96964476  0.45975170  0.19071028  1
  Sb  Sb14  1  0.40157892  0.52024652  0.46478251  1
  Sb  Sb15  1  0.60149535  0.42599931  0.55127522  1
  Sb  Sb16  1  0.52531211  0.99393772  0.81068328  1
  Sb  Sb17  1  0.46981321  0.98709009  0.18865334  1
  S  S18  1  0.93401315  0.94594794  0.80123408  1
  S  S19  1  0.06949893  0.98591609  0.20375311  1
  S  S20  1  0.41957599  0.95571262  0.99072471  1
  S  S21  1  0.58194387  0.00932707  0.02431832  1
  S  S22  1  0.18120162  0.99521103  0.89911198  1
  S  S23  1  0.84110335  0.97728856  0.11281645  1
  S  S24  1  0.11281887  0.51570775  0.65539377  1
  S  S25  1  0.89005910  0.49346163  0.33678794  1
  S  S26  1  0.73746403  0.98371850  0.32478961  1
  S  S27  1  0.26112690  0.03888731  0.68330618  1
  S  S28  1  0.15886885  0.46110721  0.45113391  1
  S  S29  1  0.83763242  0.56787503  0.55851216  1
  S  S30  1  0.44968763  0.48185977  0.82318127  1
  S  S31  1  0.57518409  0.55451008  0.20882517  1
  S  S32  1  0.91194481  0.45189982  0.97639277  1
  S  S33  1  0.07949215  0.44671492  0.00481004  1
  S  S34  1  0.68864528  0.44273677  0.90750487  1
  S  S35  1  0.35118291  0.45568587  0.11198703  1
  S  S36  1  0.61830460  0.94013041  0.68674516  1
  S  S37  1  0.41618721  0.99345327  0.36126960  1
  S  S38  1  0.26172931  0.46961419  0.29100299  1
  S  S39  1  0.76219364  0.46349777  0.67483216  1
  S  S40  1  0.66727848  0.96589669  0.44861700  1
  S  S41  1  0.31676327  0.04284715  0.53247683  1
