# generated using pymatgen
data_Pr2Mn3(SbS3)4
_symmetry_space_group_name_H-M   'P 1'
_cell_length_a   20.02960800
_cell_length_b   3.90410600
_cell_length_c   14.95364829
_cell_angle_alpha   90.00000000
_cell_angle_beta   126.33350609
_cell_angle_gamma   90.00000000
_symmetry_Int_Tables_number   1
_chemical_formula_structural   Pr2Mn3(SbS3)4
_chemical_formula_sum   'Pr4 Mn6 Sb8 S24'
_cell_volume   942.00006694
_cell_formula_units_Z   2
loop_
 _symmetry_equiv_pos_site_id
 _symmetry_equiv_pos_as_xyz
  1  'x, y, z'
loop_
 _atom_site_type_symbol
 _atom_site_label
 _atom_site_symmetry_multiplicity
 _atom_site_fract_x
 _atom_site_fract_y
 _atom_site_fract_z
 _atom_site_occupancy
  Pr  Pr0  1  0.26489447  0.46156503  0.87085954  1
  Pr  Pr1  1  0.73076096  0.54605108  0.13353781  1
  Pr  Pr2  1  0.77594810  0.99463116  0.87000924  1
  Pr  Pr3  1  0.23040967  0.96698063  0.13056733  1
  Mn  Mn4  1  0.28745567  0.56726078  0.59488545  1
  Mn  Mn5  1  0.70271259  0.50907370  0.39662620  1
  Mn  Mn6  1  0.98972853  0.91961407  0.98380243  1
  Mn  Mn7  1  0.79078949  0.05353742  0.59639675  1
  Mn  Mn8  1  0.18183313  0.00085384  0.38744530  1
  Mn  Mn9  1  0.51915326  0.49710993  0.02071827  1
  Sb  Sb10  1  0.89575916  0.01200030  0.45124250  1
  Sb  Sb11  1  0.11145296  0.98351672  0.54716512  1
  Sb  Sb12  1  0.02756354  0.50863443  0.80411268  1
  Sb  Sb13  1  0.96971568  0.46039029  0.19086320  1
  Sb  Sb14  1  0.40138615  0.52020497  0.46470637  1
  Sb  Sb15  1  0.60164190  0.42590819  0.55129422  1
  Sb  Sb16  1  0.52513434  0.99420129  0.81050587  1
  Sb  Sb17  1  0.46983054  0.98729008  0.18866438  1
  S  S18  1  0.93389359  0.94716760  0.80078254  1
  S  S19  1  0.06936598  0.98753952  0.20339836  1
  S  S20  1  0.41969726  0.95572692  0.99062233  1
  S  S21  1  0.58182617  0.00948177  0.02412919  1
  S  S22  1  0.18122684  0.99547436  0.89899934  1
  S  S23  1  0.84083723  0.97769574  0.11254415  1
  S  S24  1  0.11219870  0.51534047  0.65458589  1
  S  S25  1  0.89007178  0.49491124  0.33673544  1
  S  S26  1  0.73753944  0.98447764  0.32479503  1
  S  S27  1  0.26102095  0.03948269  0.68321204  1
  S  S28  1  0.15889457  0.46126753  0.45079533  1
  S  S29  1  0.83771594  0.56732862  0.55905644  1
  S  S30  1  0.44970630  0.48171512  0.82323365  1
  S  S31  1  0.57545001  0.55279964  0.20897841  1
  S  S32  1  0.91207047  0.45162620  0.97650183  1
  S  S33  1  0.07971953  0.44636891  0.00482372  1
  S  S34  1  0.68901998  0.44359072  0.90760974  1
  S  S35  1  0.35101774  0.45444612  0.11159977  1
  S  S36  1  0.61847573  0.93925250  0.68676936  1
  S  S37  1  0.41601452  0.99257862  0.36131404  1
  S  S38  1  0.26163073  0.47121370  0.29077701  1
  S  S39  1  0.76221891  0.46481460  0.67469086  1
  S  S40  1  0.66748632  0.96610912  0.44874265  1
  S  S41  1  0.31706193  0.04259194  0.53227188  1
