# generated using pymatgen
data_Pr2Mn3(SbS3)4
_symmetry_space_group_name_H-M   'P 1'
_cell_length_a   20.02960800
_cell_length_b   3.90410600
_cell_length_c   14.95364829
_cell_angle_alpha   90.00000000
_cell_angle_beta   126.33350609
_cell_angle_gamma   90.00000000
_symmetry_Int_Tables_number   1
_chemical_formula_structural   Pr2Mn3(SbS3)4
_chemical_formula_sum   'Pr4 Mn6 Sb8 S24'
_cell_volume   942.00006694
_cell_formula_units_Z   2
loop_
 _symmetry_equiv_pos_site_id
 _symmetry_equiv_pos_as_xyz
  1  'x, y, z'
loop_
 _atom_site_type_symbol
 _atom_site_label
 _atom_site_symmetry_multiplicity
 _atom_site_fract_x
 _atom_site_fract_y
 _atom_site_fract_z
 _atom_site_occupancy
  Pr  Pr0  1  0.26498147  0.46103992  0.87075857  1
  Pr  Pr1  1  0.73070442  0.54655964  0.13351934  1
  Pr  Pr2  1  0.77611818  0.99432797  0.87007259  1
  Pr  Pr3  1  0.23038922  0.96704187  0.13054304  1
  Mn  Mn4  1  0.28785236  0.56687081  0.59536071  1
  Mn  Mn5  1  0.70280335  0.50815340  0.39636387  1
  Mn  Mn6  1  0.98931617  0.92067062  0.98352841  1
  Mn  Mn7  1  0.79091815  0.05369601  0.59649860  1
  Mn  Mn8  1  0.18174396  0.00130035  0.38731201  1
  Mn  Mn9  1  0.51927597  0.49703039  0.02095165  1
  Sb  Sb10  1  0.89574055  0.01295448  0.45117268  1
  Sb  Sb11  1  0.11168129  0.98343930  0.54743169  1
  Sb  Sb12  1  0.02770539  0.50873853  0.80417985  1
  Sb  Sb13  1  0.96977269  0.46111259  0.19094356  1
  Sb  Sb14  1  0.40115364  0.52003166  0.46460863  1
  Sb  Sb15  1  0.60178321  0.42603847  0.55139554  1
  Sb  Sb16  1  0.52506678  0.99439390  0.81046559  1
  Sb  Sb17  1  0.46981565  0.98750095  0.18869189  1
  S  S18  1  0.93390984  0.94846978  0.80053070  1
  S  S19  1  0.06919077  0.98828040  0.20312420  1
  S  S20  1  0.41982455  0.95561775  0.99052420  1
  S  S21  1  0.58174163  0.00986093  0.02399212  1
  S  S22  1  0.18122370  0.99502506  0.89882730  1
  S  S23  1  0.84042091  0.97866663  0.11216201  1
  S  S24  1  0.11160581  0.51527290  0.65387497  1
  S  S25  1  0.89014081  0.49581555  0.33671085  1
  S  S26  1  0.73764991  0.98543359  0.32487845  1
  S  S27  1  0.26105200  0.03995176  0.68339104  1
  S  S28  1  0.15919862  0.46185459  0.45069466  1
  S  S29  1  0.83787268  0.56687666  0.55966473  1
  S  S30  1  0.44970647  0.48215135  0.82311237  1
  S  S31  1  0.57577031  0.55049114  0.20925348  1
  S  S32  1  0.91217382  0.45159345  0.97654924  1
  S  S33  1  0.07998132  0.44584219  0.00479691  1
  S  S34  1  0.68945045  0.44444017  0.90779687  1
  S  S35  1  0.35085622  0.45339932  0.11125022  1
  S  S36  1  0.61867538  0.93870027  0.68669109  1
  S  S37  1  0.41566010  0.99121609  0.36123819  1
  S  S38  1  0.26139964  0.47271571  0.29046253  1
  S  S39  1  0.76231594  0.46641496  0.67464171  1
  S  S40  1  0.66779505  0.96643091  0.44888351  1
  S  S41  1  0.31730071  0.04199066  0.53202181  1
