# generated using pymatgen
data_Pr2Mn3(SbS3)4
_symmetry_space_group_name_H-M   'P 1'
_cell_length_a   20.02960800
_cell_length_b   3.90410600
_cell_length_c   14.95364829
_cell_angle_alpha   90.00000000
_cell_angle_beta   126.33350609
_cell_angle_gamma   90.00000000
_symmetry_Int_Tables_number   1
_chemical_formula_structural   Pr2Mn3(SbS3)4
_chemical_formula_sum   'Pr4 Mn6 Sb8 S24'
_cell_volume   942.00006694
_cell_formula_units_Z   2
loop_
 _symmetry_equiv_pos_site_id
 _symmetry_equiv_pos_as_xyz
  1  'x, y, z'
loop_
 _atom_site_type_symbol
 _atom_site_label
 _atom_site_symmetry_multiplicity
 _atom_site_fract_x
 _atom_site_fract_y
 _atom_site_fract_z
 _atom_site_occupancy
  Pr  Pr0  1  0.26507849  0.46028298  0.87074164  1
  Pr  Pr1  1  0.73071857  0.54703058  0.13357302  1
  Pr  Pr2  1  0.77620763  0.99408003  0.87005557  1
  Pr  Pr3  1  0.23036652  0.96744408  0.13054716  1
  Mn  Mn4  1  0.28815216  0.56651089  0.59568434  1
  Mn  Mn5  1  0.70286785  0.50747460  0.39595250  1
  Mn  Mn6  1  0.98902607  0.92171242  0.98356494  1
  Mn  Mn7  1  0.79107745  0.05379271  0.59664608  1
  Mn  Mn8  1  0.18154242  0.00176806  0.38710117  1
  Mn  Mn9  1  0.51944197  0.49669048  0.02130233  1
  Sb  Sb10  1  0.89575318  0.01376888  0.45113143  1
  Sb  Sb11  1  0.11195470  0.98340564  0.54766570  1
  Sb  Sb12  1  0.02783815  0.50869961  0.80429315  1
  Sb  Sb13  1  0.96984895  0.46170487  0.19098800  1
  Sb  Sb14  1  0.40099150  0.51986761  0.46451996  1
  Sb  Sb15  1  0.60192435  0.42625831  0.55146591  1
  Sb  Sb16  1  0.52503326  0.99427793  0.81041540  1
  Sb  Sb17  1  0.46984093  0.98788671  0.18862927  1
  S  S18  1  0.93383737  0.94911521  0.80018349  1
  S  S19  1  0.06891063  0.98928271  0.20255935  1
  S  S20  1  0.41982325  0.95568539  0.99014593  1
  S  S21  1  0.58179512  0.01022709  0.02381813  1
  S  S22  1  0.18134114  0.99463893  0.89871328  1
  S  S23  1  0.83978650  0.98008613  0.11162153  1
  S  S24  1  0.11103468  0.51489217  0.65331360  1
  S  S25  1  0.89023152  0.49722610  0.33665958  1
  S  S26  1  0.73760242  0.98651659  0.32479798  1
  S  S27  1  0.26107754  0.03978515  0.68337474  1
  S  S28  1  0.15947359  0.46251659  0.45053883  1
  S  S29  1  0.83808680  0.56711716  0.56038227  1
  S  S30  1  0.44969244  0.48261118  0.82288581  1
  S  S31  1  0.57618871  0.54919458  0.20957121  1
  S  S32  1  0.91223832  0.45115088  0.97668848  1
  S  S33  1  0.08014876  0.44560401  0.00473365  1
  S  S34  1  0.68985659  0.44509765  0.90809205  1
  S  S35  1  0.35085284  0.45223071  0.11096836  1
  S  S36  1  0.61868583  0.93809443  0.68651053  1
  S  S37  1  0.41543538  0.99048030  0.36115458  1
  S  S38  1  0.26134720  0.47440441  0.29019387  1
  S  S39  1  0.76241362  0.46844718  0.67464315  1
  S  S40  1  0.66831563  0.96752672  0.44911509  1
  S  S41  1  0.31749787  0.04228944  0.53205771  1
