# generated using pymatgen
data_Pr2Mn3(SbS3)4
_symmetry_space_group_name_H-M   'P 1'
_cell_length_a   20.02960800
_cell_length_b   3.90410600
_cell_length_c   14.95364829
_cell_angle_alpha   90.00000000
_cell_angle_beta   126.33350609
_cell_angle_gamma   90.00000000
_symmetry_Int_Tables_number   1
_chemical_formula_structural   Pr2Mn3(SbS3)4
_chemical_formula_sum   'Pr4 Mn6 Sb8 S24'
_cell_volume   942.00006694
_cell_formula_units_Z   2
loop_
 _symmetry_equiv_pos_site_id
 _symmetry_equiv_pos_as_xyz
  1  'x, y, z'
loop_
 _atom_site_type_symbol
 _atom_site_label
 _atom_site_symmetry_multiplicity
 _atom_site_fract_x
 _atom_site_fract_y
 _atom_site_fract_z
 _atom_site_occupancy
  Pr  Pr0  1  0.26519290  0.45957450  0.87072930  1
  Pr  Pr1  1  0.73085097  0.54734830  0.13374567  1
  Pr  Pr2  1  0.77636209  0.99373623  0.87020443  1
  Pr  Pr3  1  0.23029753  0.96787080  0.13050939  1
  Mn  Mn4  1  0.28830815  0.56664275  0.59586072  1
  Mn  Mn5  1  0.70284296  0.50660286  0.39556030  1
  Mn  Mn6  1  0.98867254  0.92271170  0.98348702  1
  Mn  Mn7  1  0.79114978  0.05344277  0.59668220  1
  Mn  Mn8  1  0.18143590  0.00249983  0.38716820  1
  Mn  Mn9  1  0.51954049  0.49648244  0.02160654  1
  Sb  Sb10  1  0.89579937  0.01439217  0.45108719  1
  Sb  Sb11  1  0.11220409  0.98316985  0.54792330  1
  Sb  Sb12  1  0.02804232  0.50875915  0.80450858  1
  Sb  Sb13  1  0.96987842  0.46217077  0.19099226  1
  Sb  Sb14  1  0.40088575  0.51929331  0.46452191  1
  Sb  Sb15  1  0.60209221  0.42606792  0.55149025  1
  Sb  Sb16  1  0.52496244  0.99381043  0.81021962  1
  Sb  Sb17  1  0.46977520  0.98812651  0.18849982  1
  S  S18  1  0.93365462  0.94965949  0.79977745  1
  S  S19  1  0.06871399  0.98982130  0.20200224  1
  S  S20  1  0.41969530  0.95545833  0.98953996  1
  S  S21  1  0.58193048  0.01044634  0.02374770  1
  S  S22  1  0.18131428  0.99445182  0.89851521  1
  S  S23  1  0.83918122  0.98218884  0.11101100  1
  S  S24  1  0.11043534  0.51389450  0.65288919  1
  S  S25  1  0.89037856  0.49879408  0.33667288  1
  S  S26  1  0.73757335  0.98766667  0.32467806  1
  S  S27  1  0.26102012  0.04033109  0.68321440  1
  S  S28  1  0.15960097  0.46309382  0.45023788  1
  S  S29  1  0.83838054  0.56690021  0.56124055  1
  S  S30  1  0.44968745  0.48283496  0.82284672  1
  S  S31  1  0.57655495  0.54763845  0.20991238  1
  S  S32  1  0.91211549  0.45048156  0.97671278  1
  S  S33  1  0.08037211  0.44443522  0.00476839  1
  S  S34  1  0.69027381  0.44629476  0.90822725  1
  S  S35  1  0.35096044  0.45125336  0.11083294  1
  S  S36  1  0.61863388  0.93697998  0.68616255  1
  S  S37  1  0.41534596  0.98977873  0.36112370  1
  S  S38  1  0.26130167  0.47570000  0.29001639  1
  S  S39  1  0.76245321  0.47030794  0.67463016  1
  S  S40  1  0.66880966  0.96853730  0.44933583  1
  S  S41  1  0.31772016  0.04252083  0.53205947  1
