# generated using pymatgen
data_Pr2Mn3(SbS3)4
_symmetry_space_group_name_H-M   'P 1'
_cell_length_a   20.02960800
_cell_length_b   3.90410600
_cell_length_c   14.95364829
_cell_angle_alpha   90.00000000
_cell_angle_beta   126.33350609
_cell_angle_gamma   90.00000000
_symmetry_Int_Tables_number   1
_chemical_formula_structural   Pr2Mn3(SbS3)4
_chemical_formula_sum   'Pr4 Mn6 Sb8 S24'
_cell_volume   942.00006694
_cell_formula_units_Z   2
loop_
 _symmetry_equiv_pos_site_id
 _symmetry_equiv_pos_as_xyz
  1  'x, y, z'
loop_
 _atom_site_type_symbol
 _atom_site_label
 _atom_site_symmetry_multiplicity
 _atom_site_fract_x
 _atom_site_fract_y
 _atom_site_fract_z
 _atom_site_occupancy
  Pr  Pr0  1  0.26543281  0.45880867  0.87081398  1
  Pr  Pr1  1  0.73099199  0.54749153  0.13389874  1
  Pr  Pr2  1  0.77655078  0.99347608  0.87034456  1
  Pr  Pr3  1  0.23018900  0.96825060  0.13042235  1
  Mn  Mn4  1  0.28842150  0.56651154  0.59612974  1
  Mn  Mn5  1  0.70289152  0.50601551  0.39534686  1
  Mn  Mn6  1  0.98842238  0.92383069  0.98354903  1
  Mn  Mn7  1  0.79125881  0.05328365  0.59677047  1
  Mn  Mn8  1  0.18135929  0.00297363  0.38710659  1
  Mn  Mn9  1  0.51967389  0.49606423  0.02184199  1
  Sb  Sb10  1  0.89588655  0.01486251  0.45116083  1
  Sb  Sb11  1  0.11239286  0.98291338  0.54818207  1
  Sb  Sb12  1  0.02827167  0.50874038  0.80474708  1
  Sb  Sb13  1  0.96988457  0.46267789  0.19099835  1
  Sb  Sb14  1  0.40077620  0.51870431  0.46450467  1
  Sb  Sb15  1  0.60229503  0.42574552  0.55157953  1
  Sb  Sb16  1  0.52492214  0.99313715  0.81005084  1
  Sb  Sb17  1  0.46971675  0.98822041  0.18842260  1
  S  S18  1  0.93348299  0.94962607  0.79928652  1
  S  S19  1  0.06858124  0.99057774  0.20148855  1
  S  S20  1  0.41943415  0.95546970  0.98903616  1
  S  S21  1  0.58186729  0.01145906  0.02344813  1
  S  S22  1  0.18121637  0.99379712  0.89825500  1
  S  S23  1  0.83855478  0.98451248  0.11062389  1
  S  S24  1  0.10981477  0.51287737  0.65233825  1
  S  S25  1  0.89051715  0.49977336  0.33658490  1
  S  S26  1  0.73749746  0.98896246  0.32473367  1
  S  S27  1  0.26114820  0.04062175  0.68323778  1
  S  S28  1  0.15986129  0.46346231  0.45022173  1
  S  S29  1  0.83868803  0.56658719  0.56201625  1
  S  S30  1  0.44957117  0.48376148  0.82282088  1
  S  S31  1  0.57702714  0.54605851  0.21025787  1
  S  S32  1  0.91203605  0.44934737  0.97686267  1
  S  S33  1  0.08063361  0.44367624  0.00482176  1
  S  S34  1  0.69092926  0.44787227  0.90867502  1
  S  S35  1  0.35105242  0.45046557  0.11071574  1
  S  S36  1  0.61864510  0.93605614  0.68582745  1
  S  S37  1  0.41541913  0.98905951  0.36123559  1
  S  S38  1  0.26118665  0.47679113  0.28968715  1
  S  S39  1  0.76255447  0.47221016  0.67462596  1
  S  S40  1  0.66927336  0.96897717  0.44945553  1
  S  S41  1  0.31803256  0.04224023  0.53211449  1
