# generated using pymatgen
data_Pr2Mn3(SbS3)4
_symmetry_space_group_name_H-M   'P 1'
_cell_length_a   20.02960800
_cell_length_b   3.90410600
_cell_length_c   14.95364829
_cell_angle_alpha   90.00000000
_cell_angle_beta   126.33350609
_cell_angle_gamma   90.00000000
_symmetry_Int_Tables_number   1
_chemical_formula_structural   Pr2Mn3(SbS3)4
_chemical_formula_sum   'Pr4 Mn6 Sb8 S24'
_cell_volume   942.00006694
_cell_formula_units_Z   2
loop_
 _symmetry_equiv_pos_site_id
 _symmetry_equiv_pos_as_xyz
  1  'x, y, z'
loop_
 _atom_site_type_symbol
 _atom_site_label
 _atom_site_symmetry_multiplicity
 _atom_site_fract_x
 _atom_site_fract_y
 _atom_site_fract_z
 _atom_site_occupancy
  Pr  Pr0  1  0.26557908  0.45794304  0.87086425  1
  Pr  Pr1  1  0.73116522  0.54740908  0.13411706  1
  Pr  Pr2  1  0.77674607  0.99298974  0.87035777  1
  Pr  Pr3  1  0.22998410  0.96845820  0.13033427  1
  Mn  Mn4  1  0.28860209  0.56637707  0.59643544  1
  Mn  Mn5  1  0.70288666  0.50444301  0.39488360  1
  Mn  Mn6  1  0.98810303  0.92462090  0.98349643  1
  Mn  Mn7  1  0.79131219  0.05363978  0.59683185  1
  Mn  Mn8  1  0.18129941  0.00336313  0.38692003  1
  Mn  Mn9  1  0.51975962  0.49542326  0.02197001  1
  Sb  Sb10  1  0.89591059  0.01501368  0.45127131  1
  Sb  Sb11  1  0.11257952  0.98263581  0.54842913  1
  Sb  Sb12  1  0.02841511  0.50862573  0.80504934  1
  Sb  Sb13  1  0.96982142  0.46317271  0.19091509  1
  Sb  Sb14  1  0.40075443  0.51814204  0.46446107  1
  Sb  Sb15  1  0.60250858  0.42543070  0.55172663  1
  Sb  Sb16  1  0.52493848  0.99251499  0.80990085  1
  Sb  Sb17  1  0.46961856  0.98817441  0.18841778  1
  S  S18  1  0.93330099  0.94947925  0.79863413  1
  S  S19  1  0.06846667  0.99149087  0.20120616  1
  S  S20  1  0.41930122  0.95553298  0.98860927  1
  S  S21  1  0.58195398  0.01262494  0.02317005  1
  S  S22  1  0.18102548  0.99384624  0.89799051  1
  S  S23  1  0.83800407  0.98671528  0.11025184  1
  S  S24  1  0.10916995  0.51219682  0.65182208  1
  S  S25  1  0.89051328  0.50095212  0.33648210  1
  S  S26  1  0.73747339  0.99079156  0.32492494  1
  S  S27  1  0.26138851  0.04090964  0.68335608  1
  S  S28  1  0.16016630  0.46375200  0.45050567  1
  S  S29  1  0.83907369  0.56628426  0.56298094  1
  S  S30  1  0.44933222  0.48476494  0.82273472  1
  S  S31  1  0.57753842  0.54396831  0.21071229  1
  S  S32  1  0.91213866  0.44893974  0.97721148  1
  S  S33  1  0.08080959  0.44315546  0.00485885  1
  S  S34  1  0.69140072  0.44892120  0.90911336  1
  S  S35  1  0.35089487  0.45026605  0.11022828  1
  S  S36  1  0.61867423  0.93508469  0.68562689  1
  S  S37  1  0.41550895  0.98890505  0.36134640  1
  S  S38  1  0.26109769  0.47785905  0.28948968  1
  S  S39  1  0.76269563  0.47414821  0.67474330  1
  S  S40  1  0.66976358  0.96991529  0.44951216  1
  S  S41  1  0.31828012  0.04200967  0.53204776  1
