# generated using pymatgen
data_Pr2Mn3(SbS3)4
_symmetry_space_group_name_H-M   'P 1'
_cell_length_a   20.02960800
_cell_length_b   3.90410600
_cell_length_c   14.95364829
_cell_angle_alpha   90.00000000
_cell_angle_beta   126.33350609
_cell_angle_gamma   90.00000000
_symmetry_Int_Tables_number   1
_chemical_formula_structural   Pr2Mn3(SbS3)4
_chemical_formula_sum   'Pr4 Mn6 Sb8 S24'
_cell_volume   942.00006694
_cell_formula_units_Z   2
loop_
 _symmetry_equiv_pos_site_id
 _symmetry_equiv_pos_as_xyz
  1  'x, y, z'
loop_
 _atom_site_type_symbol
 _atom_site_label
 _atom_site_symmetry_multiplicity
 _atom_site_fract_x
 _atom_site_fract_y
 _atom_site_fract_z
 _atom_site_occupancy
  Pr  Pr0  1  0.26569511  0.45733517  0.87087534  1
  Pr  Pr1  1  0.73133777  0.54708524  0.13437214  1
  Pr  Pr2  1  0.77696134  0.99266688  0.87030882  1
  Pr  Pr3  1  0.22979587  0.96866083  0.13029696  1
  Mn  Mn4  1  0.28885957  0.56634540  0.59684382  1
  Mn  Mn5  1  0.70304917  0.50265550  0.39455253  1
  Mn  Mn6  1  0.98781674  0.92517649  0.98341447  1
  Mn  Mn7  1  0.79127757  0.05352441  0.59668715  1
  Mn  Mn8  1  0.18117884  0.00370744  0.38677047  1
  Mn  Mn9  1  0.51986566  0.49461691  0.02210913  1
  Sb  Sb10  1  0.89590628  0.01523073  0.45127667  1
  Sb  Sb11  1  0.11281158  0.98239415  0.54875613  1
  Sb  Sb12  1  0.02854768  0.50844224  0.80526703  1
  Sb  Sb13  1  0.96979256  0.46376696  0.19087854  1
  Sb  Sb14  1  0.40074861  0.51770478  0.46452993  1
  Sb  Sb15  1  0.60261176  0.42551372  0.55179020  1
  Sb  Sb16  1  0.52499252  0.99187766  0.80981920  1
  Sb  Sb17  1  0.46949836  0.98801777  0.18832958  1
  S  S18  1  0.93319941  0.94973691  0.79820764  1
  S  S19  1  0.06844463  0.99275477  0.20099852  1
  S  S20  1  0.41919718  0.95566783  0.98824611  1
  S  S21  1  0.58217671  0.01317851  0.02297595  1
  S  S22  1  0.18082728  0.99450127  0.89779454  1
  S  S23  1  0.83744571  0.98833503  0.10995799  1
  S  S24  1  0.10859487  0.51162791  0.65150166  1
  S  S25  1  0.89065081  0.50175051  0.33658458  1
  S  S26  1  0.73738311  0.99263609  0.32502077  1
  S  S27  1  0.26152786  0.04057021  0.68329998  1
  S  S28  1  0.16042774  0.46428126  0.45067113  1
  S  S29  1  0.83956706  0.56561727  0.56391298  1
  S  S30  1  0.44910070  0.48575454  0.82264859  1
  S  S31  1  0.57788620  0.54204637  0.21108208  1
  S  S32  1  0.91243138  0.44919960  0.97784607  1
  S  S33  1  0.08101220  0.44251237  0.00505593  1
  S  S34  1  0.69168855  0.45012525  0.90952999  1
  S  S35  1  0.35068648  0.45075113  0.10969119  1
  S  S36  1  0.61860500  0.93420566  0.68548755  1
  S  S37  1  0.41560226  0.98876272  0.36141763  1
  S  S38  1  0.26115256  0.47876305  0.28935868  1
  S  S39  1  0.76292238  0.47656983  0.67485500  1
  S  S40  1  0.67026724  0.97138967  0.44963211  1
  S  S41  1  0.31850674  0.04161463  0.53216407  1
