# generated using pymatgen
data_Pr2Mn3(SbS3)4
_symmetry_space_group_name_H-M   'P 1'
_cell_length_a   20.02960800
_cell_length_b   3.90410600
_cell_length_c   14.95364829
_cell_angle_alpha   90.00000000
_cell_angle_beta   126.33350609
_cell_angle_gamma   90.00000000
_symmetry_Int_Tables_number   1
_chemical_formula_structural   Pr2Mn3(SbS3)4
_chemical_formula_sum   'Pr4 Mn6 Sb8 S24'
_cell_volume   942.00006694
_cell_formula_units_Z   2
loop_
 _symmetry_equiv_pos_site_id
 _symmetry_equiv_pos_as_xyz
  1  'x, y, z'
loop_
 _atom_site_type_symbol
 _atom_site_label
 _atom_site_symmetry_multiplicity
 _atom_site_fract_x
 _atom_site_fract_y
 _atom_site_fract_z
 _atom_site_occupancy
  Pr  Pr0  1  0.26961473  0.50307655  0.86743936  1
  Pr  Pr1  1  0.73343806  0.51353045  0.13383813  1
  Pr  Pr2  1  0.76535894  0.03007279  0.86831883  1
  Pr  Pr3  1  0.23132001  0.98831907  0.13115772  1
  Mn  Mn4  1  0.30124328  0.46854022  0.60764424  1
  Mn  Mn5  1  0.68573682  0.46692686  0.36309134  1
  Mn  Mn6  1  0.00271617  0.99103190  0.01049965  1
  Mn  Mn7  1  0.79408379  0.01967419  0.61525217  1
  Mn  Mn8  1  0.19333465  0.99676978  0.36541310  1
  Mn  Mn9  1  0.48297937  0.47221989  0.98209884  1
  Sb  Sb10  1  0.88958250  0.98602748  0.44799139  1
  Sb  Sb11  1  0.11015179  0.98072558  0.54587723  1
  Sb  Sb12  1  0.03459532  0.53141301  0.82113106  1
  Sb  Sb13  1  0.96677439  0.49749575  0.18949574  1
  Sb  Sb14  1  0.39456856  0.49884680  0.44980752  1
  Sb  Sb15  1  0.61040438  0.48022946  0.54755105  1
  Sb  Sb16  1  0.53242157  0.97428726  0.80661671  1
  Sb  Sb17  1  0.46517973  0.02336506  0.18751633  1
  S  S18  1  0.93828464  0.01977168  0.80915093  1
  S  S19  1  0.06761856  0.00673909  0.20796654  1
  S  S20  1  0.41854042  0.97165829  0.98425595  1
  S  S21  1  0.58776330  0.03824299  0.01614575  1
  S  S22  1  0.16609460  0.03880412  0.90140430  1
  S  S23  1  0.82644216  0.01335214  0.10497812  1
  S  S24  1  0.08643602  0.49714376  0.64186765  1
  S  S25  1  0.91397493  0.48081185  0.35078818  1
  S  S26  1  0.73622885  0.00846798  0.29645471  1
  S  S27  1  0.25750970  0.02075875  0.70397627  1
  S  S28  1  0.16832640  0.51283931  0.43777449  1
  S  S29  1  0.80927538  0.50837910  0.53815009  1
  S  S30  1  0.43094591  0.47479822  0.79687200  1
  S  S31  1  0.55281272  0.51429943  0.17955288  1
  S  S32  1  0.92404074  0.50435113  0.99346758  1
  S  S33  1  0.09121042  0.49776458  0.02707655  1
  S  S34  1  0.66715040  0.56162080  0.89915545  1
  S  S35  1  0.32866748  0.46700334  0.09440078  1
  S  S36  1  0.58674439  0.99267505  0.64622245  1
  S  S37  1  0.39540989  0.97620143  0.33429414  1
  S  S38  1  0.24696900  0.47637077  0.31659336  1
  S  S39  1  0.76078392  0.52465803  0.68984676  1
  S  S40  1  0.66278834  0.98369128  0.44330822  1
  S  S41  1  0.32878412  0.98021047  0.55264363  1
