# generated using pymatgen
data_Pr2Mn3(SbS3)4
_symmetry_space_group_name_H-M   'P 1'
_cell_length_a   20.02960800
_cell_length_b   3.90410600
_cell_length_c   14.95364829
_cell_angle_alpha   90.00000000
_cell_angle_beta   126.33350609
_cell_angle_gamma   90.00000000
_symmetry_Int_Tables_number   1
_chemical_formula_structural   Pr2Mn3(SbS3)4
_chemical_formula_sum   'Pr4 Mn6 Sb8 S24'
_cell_volume   942.00006694
_cell_formula_units_Z   2
loop_
 _symmetry_equiv_pos_site_id
 _symmetry_equiv_pos_as_xyz
  1  'x, y, z'
loop_
 _atom_site_type_symbol
 _atom_site_label
 _atom_site_symmetry_multiplicity
 _atom_site_fract_x
 _atom_site_fract_y
 _atom_site_fract_z
 _atom_site_occupancy
  Pr  Pr0  1  0.26580451  0.45678161  0.87092303  1
  Pr  Pr1  1  0.73163728  0.54647931  0.13479555  1
  Pr  Pr2  1  0.77712865  0.99234563  0.87023769  1
  Pr  Pr3  1  0.22960623  0.96865828  0.13026639  1
  Mn  Mn4  1  0.28911824  0.56624888  0.59722942  1
  Mn  Mn5  1  0.70319793  0.50121862  0.39432338  1
  Mn  Mn6  1  0.98763730  0.92629523  0.98349850  1
  Mn  Mn7  1  0.79121698  0.05383404  0.59646153  1
  Mn  Mn8  1  0.18107137  0.00434549  0.38649254  1
  Mn  Mn9  1  0.52008944  0.49448484  0.02245069  1
  Sb  Sb10  1  0.89587044  0.01527692  0.45134876  1
  Sb  Sb11  1  0.11299502  0.98243086  0.54898222  1
  Sb  Sb12  1  0.02867614  0.50821739  0.80547222  1
  Sb  Sb13  1  0.96972954  0.46478382  0.19080396  1
  Sb  Sb14  1  0.40071194  0.51722896  0.46455984  1
  Sb  Sb15  1  0.60261365  0.42569701  0.55186281  1
  Sb  Sb16  1  0.52501534  0.99138054  0.80968528  1
  Sb  Sb17  1  0.46939567  0.98791257  0.18824837  1
  S  S18  1  0.93314496  0.95030541  0.79779386  1
  S  S19  1  0.06834137  0.99410098  0.20092845  1
  S  S20  1  0.41916244  0.95564532  0.98794782  1
  S  S21  1  0.58234731  0.01418852  0.02281049  1
  S  S22  1  0.18068556  0.99527244  0.89769583  1
  S  S23  1  0.83699015  0.99074592  0.10971274  1
  S  S24  1  0.10800741  0.51164741  0.65115173  1
  S  S25  1  0.89078117  0.50300383  0.33663120  1
  S  S26  1  0.73731895  0.99382550  0.32521556  1
  S  S27  1  0.26165050  0.03978650  0.68306383  1
  S  S28  1  0.16063883  0.46474311  0.45079530  1
  S  S29  1  0.84001217  0.56466418  0.56474027  1
  S  S30  1  0.44893108  0.48699278  0.82250309  1
  S  S31  1  0.57820627  0.54090792  0.21134379  1
  S  S32  1  0.91275204  0.44946790  0.97853249  1
  S  S33  1  0.08111833  0.44250069  0.00499312  1
  S  S34  1  0.69196560  0.45179055  0.91000436  1
  S  S35  1  0.35053214  0.45127886  0.10933293  1
  S  S36  1  0.61863366  0.93320384  0.68552169  1
  S  S37  1  0.41562179  0.98815034  0.36156644  1
  S  S38  1  0.26118250  0.47948107  0.28921122  1
  S  S39  1  0.76291214  0.47790356  0.67472522  1
  S  S40  1  0.67064862  0.97273406  0.44952780  1
  S  S41  1  0.31875887  0.04124631  0.53232168  1
