# generated using pymatgen
data_Pr2Mn3(SbS3)4
_symmetry_space_group_name_H-M   'P 1'
_cell_length_a   20.02960800
_cell_length_b   3.90410600
_cell_length_c   14.95364829
_cell_angle_alpha   90.00000000
_cell_angle_beta   126.33350609
_cell_angle_gamma   90.00000000
_symmetry_Int_Tables_number   1
_chemical_formula_structural   Pr2Mn3(SbS3)4
_chemical_formula_sum   'Pr4 Mn6 Sb8 S24'
_cell_volume   942.00006694
_cell_formula_units_Z   2
loop_
 _symmetry_equiv_pos_site_id
 _symmetry_equiv_pos_as_xyz
  1  'x, y, z'
loop_
 _atom_site_type_symbol
 _atom_site_label
 _atom_site_symmetry_multiplicity
 _atom_site_fract_x
 _atom_site_fract_y
 _atom_site_fract_z
 _atom_site_occupancy
  Pr  Pr0  1  0.26594126  0.45644239  0.87084969  1
  Pr  Pr1  1  0.73190950  0.54549659  0.13514193  1
  Pr  Pr2  1  0.77721412  0.99186379  0.87009735  1
  Pr  Pr3  1  0.22947360  0.96866367  0.13028324  1
  Mn  Mn4  1  0.28930307  0.56619903  0.59743501  1
  Mn  Mn5  1  0.70331049  0.49999221  0.39414840  1
  Mn  Mn6  1  0.98759896  0.92765533  0.98365696  1
  Mn  Mn7  1  0.79112517  0.05396853  0.59623051  1
  Mn  Mn8  1  0.18095345  0.00500099  0.38629252  1
  Mn  Mn9  1  0.52019253  0.49461986  0.02260824  1
  Sb  Sb10  1  0.89584104  0.01543117  0.45138095  1
  Sb  Sb11  1  0.11316662  0.98259346  0.54923625  1
  Sb  Sb12  1  0.02871840  0.50807101  0.80557083  1
  Sb  Sb13  1  0.96967726  0.46580515  0.19075982  1
  Sb  Sb14  1  0.40064350  0.51641966  0.46458991  1
  Sb  Sb15  1  0.60265341  0.42620965  0.55202936  1
  Sb  Sb16  1  0.52507806  0.99082057  0.80948990  1
  Sb  Sb17  1  0.46928363  0.98773958  0.18817059  1
  S  S18  1  0.93315378  0.95025408  0.79750617  1
  S  S19  1  0.06809385  0.99522850  0.20070700  1
  S  S20  1  0.41913334  0.95571271  0.98785457  1
  S  S21  1  0.58261783  0.01468926  0.02299850  1
  S  S22  1  0.18063216  0.99607556  0.89766867  1
  S  S23  1  0.83670903  0.99292162  0.10968111  1
  S  S24  1  0.10767170  0.51143831  0.65095713  1
  S  S25  1  0.89077633  0.50381829  0.33641171  1
  S  S26  1  0.73725156  0.99490232  0.32529755  1
  S  S27  1  0.26176732  0.03931553  0.68272997  1
  S  S28  1  0.16090915  0.46504537  0.45096143  1
  S  S29  1  0.84037548  0.56344989  0.56540071  1
  S  S30  1  0.44895432  0.48851274  0.82258793  1
  S  S31  1  0.57852126  0.53959077  0.21167148  1
  S  S32  1  0.91299076  0.44975320  0.97902925  1
  S  S33  1  0.08107639  0.44309230  0.00474475  1
  S  S34  1  0.69215947  0.45369125  0.91021604  1
  S  S35  1  0.35028550  0.45145350  0.10900453  1
  S  S36  1  0.61871953  0.93314243  0.68559965  1
  S  S37  1  0.41558994  0.98779688  0.36169748  1
  S  S38  1  0.26115279  0.48088971  0.28901124  1
  S  S39  1  0.76284699  0.47930871  0.67443365  1
  S  S40  1  0.67096118  0.97326865  0.44929991  1
  S  S41  1  0.31895022  0.04084360  0.53231351  1
