# generated using pymatgen
data_Pr2Mn3(SbS3)4
_symmetry_space_group_name_H-M   'P 1'
_cell_length_a   20.02960800
_cell_length_b   3.90410600
_cell_length_c   14.95364829
_cell_angle_alpha   90.00000000
_cell_angle_beta   126.33350609
_cell_angle_gamma   90.00000000
_symmetry_Int_Tables_number   1
_chemical_formula_structural   Pr2Mn3(SbS3)4
_chemical_formula_sum   'Pr4 Mn6 Sb8 S24'
_cell_volume   942.00006694
_cell_formula_units_Z   2
loop_
 _symmetry_equiv_pos_site_id
 _symmetry_equiv_pos_as_xyz
  1  'x, y, z'
loop_
 _atom_site_type_symbol
 _atom_site_label
 _atom_site_symmetry_multiplicity
 _atom_site_fract_x
 _atom_site_fract_y
 _atom_site_fract_z
 _atom_site_occupancy
  Pr  Pr0  1  0.26609052  0.45637856  0.87079790  1
  Pr  Pr1  1  0.73222648  0.54478033  0.13543916  1
  Pr  Pr2  1  0.77731404  0.99137199  0.86996802  1
  Pr  Pr3  1  0.22937391  0.96895852  0.13036614  1
  Mn  Mn4  1  0.28948052  0.56590645  0.59761623  1
  Mn  Mn5  1  0.70340769  0.49944095  0.39392513  1
  Mn  Mn6  1  0.98761344  0.92917211  0.98385922  1
  Mn  Mn7  1  0.79114334  0.05383327  0.59619324  1
  Mn  Mn8  1  0.18092482  0.00592766  0.38604102  1
  Mn  Mn9  1  0.52034223  0.49452124  0.02280787  1
  Sb  Sb10  1  0.89578138  0.01535797  0.45143499  1
  Sb  Sb11  1  0.11334212  0.98262711  0.54951887  1
  Sb  Sb12  1  0.02870819  0.50780664  0.80563316  1
  Sb  Sb13  1  0.96965820  0.46704882  0.19072908  1
  Sb  Sb14  1  0.40059507  0.51623014  0.46471700  1
  Sb  Sb15  1  0.60265699  0.42651034  0.55214242  1
  Sb  Sb16  1  0.52518660  0.99005175  0.80940583  1
  Sb  Sb17  1  0.46920022  0.98754352  0.18824033  1
  S  S18  1  0.93328796  0.95007564  0.79741874  1
  S  S19  1  0.06788078  0.99674754  0.20067987  1
  S  S20  1  0.41893758  0.95565917  0.98769165  1
  S  S21  1  0.58266441  0.01473281  0.02291438  1
  S  S22  1  0.18065543  0.99682320  0.89785487  1
  S  S23  1  0.83647919  0.99449109  0.10956043  1
  S  S24  1  0.10728588  0.51159616  0.65064013  1
  S  S25  1  0.89073145  0.50414216  0.33602642  1
  S  S26  1  0.73712532  0.99650039  0.32543920  1
  S  S27  1  0.26209844  0.03933276  0.68275739  1
  S  S28  1  0.16125456  0.46556203  0.45117490  1
  S  S29  1  0.84068193  0.56226263  0.56598372  1
  S  S30  1  0.44886858  0.48965960  0.82260937  1
  S  S31  1  0.57889552  0.53801742  0.21196724  1
  S  S32  1  0.91314300  0.45042031  0.97931486  1
  S  S33  1  0.08104510  0.44387770  0.00456964  1
  S  S34  1  0.69230559  0.45505046  0.91038749  1
  S  S35  1  0.35020111  0.45147072  0.10888025  1
  S  S36  1  0.61873111  0.93374039  0.68558680  1
  S  S37  1  0.41580835  0.98703193  0.36190777  1
  S  S38  1  0.26111687  0.48230480  0.28904359  1
  S  S39  1  0.76282831  0.48126179  0.67439441  1
  S  S40  1  0.67109929  0.97378052  0.44895833  1
  S  S41  1  0.31907344  0.04070036  0.53229866  1
