# generated using pymatgen
data_Pr2Mn3(SbS3)4
_symmetry_space_group_name_H-M   'P 1'
_cell_length_a   20.02960800
_cell_length_b   3.90410600
_cell_length_c   14.95364829
_cell_angle_alpha   90.00000000
_cell_angle_beta   126.33350609
_cell_angle_gamma   90.00000000
_symmetry_Int_Tables_number   1
_chemical_formula_structural   Pr2Mn3(SbS3)4
_chemical_formula_sum   'Pr4 Mn6 Sb8 S24'
_cell_volume   942.00006694
_cell_formula_units_Z   2
loop_
 _symmetry_equiv_pos_site_id
 _symmetry_equiv_pos_as_xyz
  1  'x, y, z'
loop_
 _atom_site_type_symbol
 _atom_site_label
 _atom_site_symmetry_multiplicity
 _atom_site_fract_x
 _atom_site_fract_y
 _atom_site_fract_z
 _atom_site_occupancy
  Pr  Pr0  1  0.26628318  0.45602741  0.87079055  1
  Pr  Pr1  1  0.73254938  0.54426307  0.13567222  1
  Pr  Pr2  1  0.77742981  0.99086607  0.86990283  1
  Pr  Pr3  1  0.22932135  0.96940952  0.13041440  1
  Mn  Mn4  1  0.28958109  0.56555061  0.59778184  1
  Mn  Mn5  1  0.70363908  0.49914218  0.39384519  1
  Mn  Mn6  1  0.98762644  0.93025983  0.98403483  1
  Mn  Mn7  1  0.79117555  0.05414431  0.59616421  1
  Mn  Mn8  1  0.18095377  0.00722610  0.38588717  1
  Mn  Mn9  1  0.52045590  0.49480349  0.02289320  1
  Sb  Sb10  1  0.89571282  0.01519034  0.45145823  1
  Sb  Sb11  1  0.11352185  0.98277547  0.54978475  1
  Sb  Sb12  1  0.02870329  0.50731999  0.80574925  1
  Sb  Sb13  1  0.96962166  0.46810255  0.19080062  1
  Sb  Sb14  1  0.40055304  0.51599070  0.46481430  1
  Sb  Sb15  1  0.60270425  0.42719823  0.55237012  1
  Sb  Sb16  1  0.52524782  0.98942198  0.80928099  1
  Sb  Sb17  1  0.46908715  0.98733226  0.18826289  1
  S  S18  1  0.93328670  0.94973549  0.79723778  1
  S  S19  1  0.06759033  0.99810090  0.20065534  1
  S  S20  1  0.41879900  0.95587215  0.98743328  1
  S  S21  1  0.58275842  0.01533836  0.02297702  1
  S  S22  1  0.18058663  0.99736346  0.89798873  1
  S  S23  1  0.83630313  0.99534259  0.10947735  1
  S  S24  1  0.10683121  0.51228108  0.65023509  1
  S  S25  1  0.89057299  0.50381961  0.33556724  1
  S  S26  1  0.73701864  0.99857521  0.32540651  1
  S  S27  1  0.26230847  0.03936164  0.68274003  1
  S  S28  1  0.16176487  0.46597625  0.45170884  1
  S  S29  1  0.84103989  0.56126449  0.56634902  1
  S  S30  1  0.44886313  0.49035491  0.82278191  1
  S  S31  1  0.57923130  0.53654215  0.21207931  1
  S  S32  1  0.91332021  0.45061029  0.97968262  1
  S  S33  1  0.08107776  0.44554487  0.00424639  1
  S  S34  1  0.69240497  0.45622867  0.91058413  1
  S  S35  1  0.35013821  0.45117478  0.10868264  1
  S  S36  1  0.61873018  0.93451482  0.68567705  1
  S  S37  1  0.41591794  0.98647950  0.36189452  1
  S  S38  1  0.26103738  0.48335982  0.28902064  1
  S  S39  1  0.76283967  0.48343079  0.67449680  1
  S  S40  1  0.67115624  0.97447299  0.44863925  1
  S  S41  1  0.31922191  0.04000030  0.53223069  1
