# generated using pymatgen
data_Pr2Mn3(SbS3)4
_symmetry_space_group_name_H-M   'P 1'
_cell_length_a   20.02960800
_cell_length_b   3.90410600
_cell_length_c   14.95364829
_cell_angle_alpha   90.00000000
_cell_angle_beta   126.33350609
_cell_angle_gamma   90.00000000
_symmetry_Int_Tables_number   1
_chemical_formula_structural   Pr2Mn3(SbS3)4
_chemical_formula_sum   'Pr4 Mn6 Sb8 S24'
_cell_volume   942.00006694
_cell_formula_units_Z   2
loop_
 _symmetry_equiv_pos_site_id
 _symmetry_equiv_pos_as_xyz
  1  'x, y, z'
loop_
 _atom_site_type_symbol
 _atom_site_label
 _atom_site_symmetry_multiplicity
 _atom_site_fract_x
 _atom_site_fract_y
 _atom_site_fract_z
 _atom_site_occupancy
  Pr  Pr0  1  0.26639094  0.45587584  0.87070407  1
  Pr  Pr1  1  0.73287511  0.54410795  0.13594987  1
  Pr  Pr2  1  0.77759428  0.99008043  0.86988762  1
  Pr  Pr3  1  0.22929473  0.96975270  0.13044792  1
  Mn  Mn4  1  0.28974413  0.56473477  0.59800218  1
  Mn  Mn5  1  0.70376073  0.49964855  0.39365582  1
  Mn  Mn6  1  0.98769075  0.93119123  0.98419228  1
  Mn  Mn7  1  0.79122007  0.05440928  0.59620341  1
  Mn  Mn8  1  0.18096784  0.00804106  0.38562187  1
  Mn  Mn9  1  0.52055516  0.49511731  0.02292481  1
  Sb  Sb10  1  0.89564266  0.01483053  0.45145978  1
  Sb  Sb11  1  0.11372523  0.98289028  0.55002594  1
  Sb  Sb12  1  0.02869576  0.50688439  0.80584414  1
  Sb  Sb13  1  0.96949030  0.46906957  0.19073983  1
  Sb  Sb14  1  0.40050164  0.51557233  0.46483609  1
  Sb  Sb15  1  0.60271720  0.42754770  0.55249186  1
  Sb  Sb16  1  0.52528224  0.98876787  0.80918550  1
  Sb  Sb17  1  0.46901682  0.98718189  0.18838216  1
  S  S18  1  0.93325843  0.94911684  0.79728356  1
  S  S19  1  0.06713233  0.99938923  0.20028535  1
  S  S20  1  0.41883546  0.95636276  0.98726919  1
  S  S21  1  0.58285938  0.01591115  0.02299613  1
  S  S22  1  0.18059696  0.99766844  0.89814995  1
  S  S23  1  0.83619825  0.99622934  0.10943675  1
  S  S24  1  0.10626177  0.51264651  0.64989921  1
  S  S25  1  0.89040131  0.50331823  0.33523873  1
  S  S26  1  0.73695197  0.00051801  0.32542149  1
  S  S27  1  0.26240647  0.03948861  0.68279764  1
  S  S28  1  0.16224672  0.46703647  0.45211139  1
  S  S29  1  0.84134927  0.56123256  0.56671386  1
  S  S30  1  0.44896851  0.49138396  0.82299990  1
  S  S31  1  0.57958553  0.53441542  0.21229457  1
  S  S32  1  0.91336980  0.45102412  0.97987710  1
  S  S33  1  0.08117079  0.44736865  0.00397310  1
  S  S34  1  0.69242549  0.45696307  0.91078478  1
  S  S35  1  0.35005754  0.45083347  0.10854275  1
  S  S36  1  0.61877273  0.93540599  0.68564983  1
  S  S37  1  0.41614449  0.98662245  0.36193996  1
  S  S38  1  0.26095126  0.48434790  0.28916954  1
  S  S39  1  0.76283937  0.48500017  0.67464575  1
  S  S40  1  0.67113076  0.97545204  0.44819368  1
  S  S41  1  0.31949354  0.03998430  0.53207332  1
