# generated using pymatgen
data_Pr2Mn3(SbS3)4
_symmetry_space_group_name_H-M   'P 1'
_cell_length_a   20.02960800
_cell_length_b   3.90410600
_cell_length_c   14.95364829
_cell_angle_alpha   90.00000000
_cell_angle_beta   126.33350609
_cell_angle_gamma   90.00000000
_symmetry_Int_Tables_number   1
_chemical_formula_structural   Pr2Mn3(SbS3)4
_chemical_formula_sum   'Pr4 Mn6 Sb8 S24'
_cell_volume   942.00006694
_cell_formula_units_Z   2
loop_
 _symmetry_equiv_pos_site_id
 _symmetry_equiv_pos_as_xyz
  1  'x, y, z'
loop_
 _atom_site_type_symbol
 _atom_site_label
 _atom_site_symmetry_multiplicity
 _atom_site_fract_x
 _atom_site_fract_y
 _atom_site_fract_z
 _atom_site_occupancy
  Pr  Pr0  1  0.26645721  0.45570926  0.87056074  1
  Pr  Pr1  1  0.73322831  0.54396489  0.13628494  1
  Pr  Pr2  1  0.77778331  0.98906859  0.86984864  1
  Pr  Pr3  1  0.22936047  0.97010987  0.13051445  1
  Mn  Mn4  1  0.28976264  0.56340838  0.59823556  1
  Mn  Mn5  1  0.70391046  0.50057911  0.39344863  1
  Mn  Mn6  1  0.98772895  0.93194645  0.98419474  1
  Mn  Mn7  1  0.79123879  0.05480418  0.59613913  1
  Mn  Mn8  1  0.18097226  0.00903016  0.38537681  1
  Mn  Mn9  1  0.52071958  0.49582736  0.02303057  1
  Sb  Sb10  1  0.89559588  0.01461696  0.45144667  1
  Sb  Sb11  1  0.11395642  0.98325147  0.55034177  1
  Sb  Sb12  1  0.02868700  0.50629599  0.80591757  1
  Sb  Sb13  1  0.96929469  0.46964043  0.19063963  1
  Sb  Sb14  1  0.40047328  0.51480322  0.46489223  1
  Sb  Sb15  1  0.60270944  0.42792187  0.55250592  1
  Sb  Sb16  1  0.52533169  0.98819730  0.80912338  1
  Sb  Sb17  1  0.46896852  0.98705835  0.18845256  1
  S  S18  1  0.93318465  0.94916984  0.79723991  1
  S  S19  1  0.06667945  0.00071480  0.20000764  1
  S  S20  1  0.41903671  0.95635533  0.98732031  1
  S  S21  1  0.58307394  0.01613744  0.02300679  1
  S  S22  1  0.18046232  0.99731671  0.89813066  1
  S  S23  1  0.83609771  0.99675428  0.10939880  1
  S  S24  1  0.10567926  0.51309012  0.64944556  1
  S  S25  1  0.89022182  0.50243005  0.33491759  1
  S  S26  1  0.73693642  0.00269344  0.32542885  1
  S  S27  1  0.26248904  0.03944902  0.68277718  1
  S  S28  1  0.16275552  0.46862675  0.45251607  1
  S  S29  1  0.84168791  0.56099073  0.56725027  1
  S  S30  1  0.44898478  0.49229169  0.82318196  1
  S  S31  1  0.57979437  0.53279732  0.21236532  1
  S  S32  1  0.91346021  0.45179187  0.98029965  1
  S  S33  1  0.08124451  0.44971756  0.00355655  1
  S  S34  1  0.69258380  0.45787286  0.91115436  1
  S  S35  1  0.34993042  0.45074746  0.10830745  1
  S  S36  1  0.61869010  0.93598244  0.68549637  1
  S  S37  1  0.41635736  0.98700561  0.36192011  1
  S  S38  1  0.26086526  0.48434696  0.28920232  1
  S  S39  1  0.76294677  0.48721673  0.67498006  1
  S  S40  1  0.67102996  0.97715317  0.44770229  1
  S  S41  1  0.31978027  0.03971903  0.53190126  1
