# generated using pymatgen
data_Pr2Mn3(SbS3)4
_symmetry_space_group_name_H-M   'P 1'
_cell_length_a   20.02960800
_cell_length_b   3.90410600
_cell_length_c   14.95364829
_cell_angle_alpha   90.00000000
_cell_angle_beta   126.33350609
_cell_angle_gamma   90.00000000
_symmetry_Int_Tables_number   1
_chemical_formula_structural   Pr2Mn3(SbS3)4
_chemical_formula_sum   'Pr4 Mn6 Sb8 S24'
_cell_volume   942.00006694
_cell_formula_units_Z   2
loop_
 _symmetry_equiv_pos_site_id
 _symmetry_equiv_pos_as_xyz
  1  'x, y, z'
loop_
 _atom_site_type_symbol
 _atom_site_label
 _atom_site_symmetry_multiplicity
 _atom_site_fract_x
 _atom_site_fract_y
 _atom_site_fract_z
 _atom_site_occupancy
  Pr  Pr0  1  0.26649241  0.45571192  0.87045101  1
  Pr  Pr1  1  0.73354503  0.54397816  0.13657782  1
  Pr  Pr2  1  0.77794734  0.98804221  0.86987354  1
  Pr  Pr3  1  0.22941700  0.97038267  0.13059895  1
  Mn  Mn4  1  0.28968685  0.56244548  0.59846230  1
  Mn  Mn5  1  0.70414191  0.50153547  0.39324754  1
  Mn  Mn6  1  0.98777200  0.93261629  0.98426793  1
  Mn  Mn7  1  0.79128252  0.05545910  0.59608721  1
  Mn  Mn8  1  0.18094739  0.01004147  0.38523136  1
  Mn  Mn9  1  0.52087193  0.49623920  0.02300522  1
  Sb  Sb10  1  0.89558269  0.01423230  0.45148527  1
  Sb  Sb11  1  0.11412696  0.98323683  0.55056232  1
  Sb  Sb12  1  0.02868654  0.50613727  0.80601953  1
  Sb  Sb13  1  0.96906294  0.47023113  0.19050625  1
  Sb  Sb14  1  0.40040611  0.51401128  0.46487762  1
  Sb  Sb15  1  0.60269709  0.42844740  0.55246587  1
  Sb  Sb16  1  0.52541797  0.98719779  0.80910303  1
  Sb  Sb17  1  0.46893250  0.98691359  0.18844628  1
  S  S18  1  0.93319368  0.94980488  0.79749698  1
  S  S19  1  0.06652731  0.00160446  0.19994637  1
  S  S20  1  0.41929038  0.95654749  0.98730790  1
  S  S21  1  0.58325263  0.01600600  0.02291739  1
  S  S22  1  0.18042734  0.99681111  0.89822029  1
  S  S23  1  0.83572819  0.99746296  0.10907303  1
  S  S24  1  0.10515093  0.51315275  0.64924784  1
  S  S25  1  0.89018082  0.50153089  0.33475249  1
  S  S26  1  0.73687122  0.00488576  0.32543936  1
  S  S27  1  0.26260816  0.04001404  0.68276887  1
  S  S28  1  0.16309560  0.47037218  0.45271058  1
  S  S29  1  0.84197819  0.56038690  0.56764332  1
  S  S30  1  0.44894571  0.49363544  0.82331842  1
  S  S31  1  0.58006881  0.53171570  0.21242826  1
  S  S32  1  0.91364331  0.45236202  0.98093989  1
  S  S33  1  0.08113209  0.45199058  0.00307155  1
  S  S34  1  0.69256395  0.45846124  0.91153090  1
  S  S35  1  0.34977502  0.45106066  0.10802641  1
  S  S36  1  0.61858765  0.93649506  0.68549799  1
  S  S37  1  0.41643997  0.98713215  0.36173298  1
  S  S38  1  0.26094590  0.48407047  0.28926308  1
  S  S39  1  0.76299063  0.48922722  0.67518256  1
  S  S40  1  0.67096277  0.97918582  0.44708572  1
  S  S41  1  0.31992366  0.03986814  0.53158937  1
