# generated using pymatgen
data_Pr2Mn3(SbS3)4
_symmetry_space_group_name_H-M   'P 1'
_cell_length_a   20.02960800
_cell_length_b   3.90410600
_cell_length_c   14.95364829
_cell_angle_alpha   90.00000000
_cell_angle_beta   126.33350609
_cell_angle_gamma   90.00000000
_symmetry_Int_Tables_number   1
_chemical_formula_structural   Pr2Mn3(SbS3)4
_chemical_formula_sum   'Pr4 Mn6 Sb8 S24'
_cell_volume   942.00006694
_cell_formula_units_Z   2
loop_
 _symmetry_equiv_pos_site_id
 _symmetry_equiv_pos_as_xyz
  1  'x, y, z'
loop_
 _atom_site_type_symbol
 _atom_site_label
 _atom_site_symmetry_multiplicity
 _atom_site_fract_x
 _atom_site_fract_y
 _atom_site_fract_z
 _atom_site_occupancy
  Pr  Pr0  1  0.26656410  0.45588547  0.87038479  1
  Pr  Pr1  1  0.73375859  0.54394682  0.13684566  1
  Pr  Pr2  1  0.77805302  0.98736311  0.86989095  1
  Pr  Pr3  1  0.22943795  0.97055866  0.13056663  1
  Mn  Mn4  1  0.28957902  0.56139635  0.59854703  1
  Mn  Mn5  1  0.70433637  0.50261628  0.39304649  1
  Mn  Mn6  1  0.98774684  0.93309663  0.98438957  1
  Mn  Mn7  1  0.79140533  0.05597931  0.59619238  1
  Mn  Mn8  1  0.18099638  0.01092100  0.38515593  1
  Mn  Mn9  1  0.52087553  0.49688072  0.02292479  1
  Sb  Sb10  1  0.89561018  0.01386514  0.45160301  1
  Sb  Sb11  1  0.11428380  0.98362580  0.55076301  1
  Sb  Sb12  1  0.02872364  0.50585947  0.80620475  1
  Sb  Sb13  1  0.96881276  0.47069420  0.19038830  1
  Sb  Sb14  1  0.40034866  0.51318831  0.46486206  1
  Sb  Sb15  1  0.60266865  0.42881356  0.55237590  1
  Sb  Sb16  1  0.52541332  0.98616480  0.80895905  1
  Sb  Sb17  1  0.46886809  0.98658395  0.18844899  1
  S  S18  1  0.93320520  0.95014615  0.79765551  1
  S  S19  1  0.06645665  0.00159663  0.20013683  1
  S  S20  1  0.41954490  0.95655481  0.98725658  1
  S  S21  1  0.58339231  0.01561673  0.02282162  1
  S  S22  1  0.18036939  0.99642369  0.89825025  1
  S  S23  1  0.83533872  0.99766925  0.10883075  1
  S  S24  1  0.10452781  0.51321163  0.64901115  1
  S  S25  1  0.89000452  0.50074569  0.33444802  1
  S  S26  1  0.73697365  0.00667267  0.32555506  1
  S  S27  1  0.26290419  0.04038895  0.68292064  1
  S  S28  1  0.16334589  0.47199183  0.45275709  1
  S  S29  1  0.84213510  0.56012330  0.56779637  1
  S  S30  1  0.44899381  0.49484392  0.82349480  1
  S  S31  1  0.58009123  0.53042904  0.21239947  1
  S  S32  1  0.91387674  0.45312246  0.98160419  1
  S  S33  1  0.08117154  0.45451587  0.00268096  1
  S  S34  1  0.69253552  0.45887528  0.91192733  1
  S  S35  1  0.34974207  0.45118269  0.10773209  1
  S  S36  1  0.61855542  0.93717372  0.68548142  1
  S  S37  1  0.41671693  0.98713409  0.36179250  1
  S  S38  1  0.26098871  0.48363590  0.28909724  1
  S  S39  1  0.76294113  0.49071514  0.67531072  1
  S  S40  1  0.67092233  0.98146674  0.44670883  1
  S  S41  1  0.31986815  0.03989966  0.53106631  1
