# generated using pymatgen
data_Pr2Mn3(SbS3)4
_symmetry_space_group_name_H-M   'P 1'
_cell_length_a   20.02960800
_cell_length_b   3.90410600
_cell_length_c   14.95364829
_cell_angle_alpha   90.00000000
_cell_angle_beta   126.33350609
_cell_angle_gamma   90.00000000
_symmetry_Int_Tables_number   1
_chemical_formula_structural   Pr2Mn3(SbS3)4
_chemical_formula_sum   'Pr4 Mn6 Sb8 S24'
_cell_volume   942.00006694
_cell_formula_units_Z   2
loop_
 _symmetry_equiv_pos_site_id
 _symmetry_equiv_pos_as_xyz
  1  'x, y, z'
loop_
 _atom_site_type_symbol
 _atom_site_label
 _atom_site_symmetry_multiplicity
 _atom_site_fract_x
 _atom_site_fract_y
 _atom_site_fract_z
 _atom_site_occupancy
  Pr  Pr0  1  0.26664982  0.45606229  0.87026523  1
  Pr  Pr1  1  0.73392841  0.54387581  0.13717960  1
  Pr  Pr2  1  0.77811783  0.98645272  0.86988409  1
  Pr  Pr3  1  0.22948566  0.97089699  0.13050981  1
  Mn  Mn4  1  0.28960938  0.56063059  0.59877817  1
  Mn  Mn5  1  0.70449480  0.50303889  0.39289564  1
  Mn  Mn6  1  0.98767143  0.93332710  0.98435463  1
  Mn  Mn7  1  0.79160379  0.05649526  0.59634361  1
  Mn  Mn8  1  0.18108125  0.01195668  0.38528357  1
  Mn  Mn9  1  0.52095695  0.49692754  0.02290489  1
  Sb  Sb10  1  0.89563898  0.01356573  0.45171773  1
  Sb  Sb11  1  0.11443879  0.98437203  0.55104639  1
  Sb  Sb12  1  0.02881883  0.50533406  0.80640854  1
  Sb  Sb13  1  0.96862483  0.47123584  0.19024776  1
  Sb  Sb14  1  0.40036551  0.51243317  0.46488297  1
  Sb  Sb15  1  0.60257510  0.42904200  0.55223540  1
  Sb  Sb16  1  0.52546707  0.98514172  0.80888283  1
  Sb  Sb17  1  0.46874584  0.98650506  0.18843385  1
  S  S18  1  0.93329454  0.95035794  0.79799418  1
  S  S19  1  0.06643596  0.00230036  0.20031437  1
  S  S20  1  0.41973476  0.95616101  0.98726173  1
  S  S21  1  0.58357850  0.01473006  0.02298108  1
  S  S22  1  0.18038755  0.99663079  0.89823610  1
  S  S23  1  0.83503518  0.99723731  0.10865444  1
  S  S24  1  0.10393833  0.51358016  0.64886450  1
  S  S25  1  0.88966363  0.50037713  0.33422860  1
  S  S26  1  0.73724770  0.00782518  0.32588613  1
  S  S27  1  0.26309153  0.04058060  0.68307265  1
  S  S28  1  0.16341435  0.47427207  0.45276409  1
  S  S29  1  0.84223915  0.55957520  0.56785913  1
  S  S30  1  0.44888426  0.49549366  0.82363517  1
  S  S31  1  0.58008866  0.52951812  0.21236485  1
  S  S32  1  0.91406047  0.45411413  0.98207618  1
  S  S33  1  0.08121866  0.45685048  0.00222627  1
  S  S34  1  0.69253759  0.45891599  0.91225437  1
  S  S35  1  0.34954422  0.45122906  0.10732608  1
  S  S36  1  0.61854872  0.93764298  0.68551002  1
  S  S37  1  0.41702634  0.98696358  0.36183111  1
  S  S38  1  0.26094086  0.48334868  0.28909394  1
  S  S39  1  0.76301389  0.49168544  0.67550319  1
  S  S40  1  0.67062679  0.98357012  0.44619130  1
  S  S41  1  0.31994519  0.03974868  0.53051284  1
