# generated using pymatgen
data_Pr2Mn3(SbS3)4
_symmetry_space_group_name_H-M   'P 1'
_cell_length_a   20.02960800
_cell_length_b   3.90410600
_cell_length_c   14.95364829
_cell_angle_alpha   90.00000000
_cell_angle_beta   126.33350609
_cell_angle_gamma   90.00000000
_symmetry_Int_Tables_number   1
_chemical_formula_structural   Pr2Mn3(SbS3)4
_chemical_formula_sum   'Pr4 Mn6 Sb8 S24'
_cell_volume   942.00006694
_cell_formula_units_Z   2
loop_
 _symmetry_equiv_pos_site_id
 _symmetry_equiv_pos_as_xyz
  1  'x, y, z'
loop_
 _atom_site_type_symbol
 _atom_site_label
 _atom_site_symmetry_multiplicity
 _atom_site_fract_x
 _atom_site_fract_y
 _atom_site_fract_z
 _atom_site_occupancy
  Pr  Pr0  1  0.26669309  0.45602415  0.87019789  1
  Pr  Pr1  1  0.73415868  0.54387363  0.13750731  1
  Pr  Pr2  1  0.77823446  0.98592326  0.86993073  1
  Pr  Pr3  1  0.22956309  0.97115188  0.13045251  1
  Mn  Mn4  1  0.28957901  0.55966153  0.59890525  1
  Mn  Mn5  1  0.70464230  0.50346832  0.39274189  1
  Mn  Mn6  1  0.98759994  0.93307033  0.98422487  1
  Mn  Mn7  1  0.79177555  0.05736399  0.59646704  1
  Mn  Mn8  1  0.18108836  0.01272274  0.38534393  1
  Mn  Mn9  1  0.52095923  0.49697707  0.02280370  1
  Sb  Sb10  1  0.89564282  0.01319148  0.45187261  1
  Sb  Sb11  1  0.11457819  0.98556568  0.55123451  1
  Sb  Sb12  1  0.02891085  0.50489935  0.80654053  1
  Sb  Sb13  1  0.96837143  0.47170947  0.19016979  1
  Sb  Sb14  1  0.40038789  0.51176309  0.46489435  1
  Sb  Sb15  1  0.60252907  0.42950654  0.55214114  1
  Sb  Sb16  1  0.52553232  0.98409304  0.80885053  1
  Sb  Sb17  1  0.46862376  0.98642904  0.18831383  1
  S  S18  1  0.93347660  0.95017067  0.79850821  1
  S  S19  1  0.06655393  0.00304527  0.20051795  1
  S  S20  1  0.41985233  0.95566448  0.98720178  1
  S  S21  1  0.58377133  0.01365426  0.02306961  1
  S  S22  1  0.18049838  0.99716549  0.89829647  1
  S  S23  1  0.83471056  0.99661159  0.10839620  1
  S  S24  1  0.10341637  0.51380877  0.64876027  1
  S  S25  1  0.88951249  0.49986971  0.33412619  1
  S  S26  1  0.73753749  0.00912391  0.32615401  1
  S  S27  1  0.26346358  0.04065434  0.68326355  1
  S  S28  1  0.16350835  0.47669521  0.45281919  1
  S  S29  1  0.84239576  0.55922058  0.56784780  1
  S  S30  1  0.44890567  0.49544766  0.82401990  1
  S  S31  1  0.58007316  0.52923640  0.21222027  1
  S  S32  1  0.91426969  0.45565586  0.98252872  1
  S  S33  1  0.08115627  0.45875585  0.00175643  1
  S  S34  1  0.69265838  0.45901222  0.91259228  1
  S  S35  1  0.34942195  0.45141986  0.10691639  1
  S  S36  1  0.61850091  0.93761541  0.68528905  1
  S  S37  1  0.41749734  0.98663344  0.36200277  1
  S  S38  1  0.26099335  0.48347503  0.28917126  1
  S  S39  1  0.76308891  0.49369741  0.67554818  1
  S  S40  1  0.67024013  0.98478876  0.44569770  1
  S  S41  1  0.32010353  0.03971613  0.53007606  1
