# generated using pymatgen
data_Pr2Mn3(SbS3)4
_symmetry_space_group_name_H-M   'P 1'
_cell_length_a   20.02960800
_cell_length_b   3.90410600
_cell_length_c   14.95364829
_cell_angle_alpha   90.00000000
_cell_angle_beta   126.33350609
_cell_angle_gamma   90.00000000
_symmetry_Int_Tables_number   1
_chemical_formula_structural   Pr2Mn3(SbS3)4
_chemical_formula_sum   'Pr4 Mn6 Sb8 S24'
_cell_volume   942.00006694
_cell_formula_units_Z   2
loop_
 _symmetry_equiv_pos_site_id
 _symmetry_equiv_pos_as_xyz
  1  'x, y, z'
loop_
 _atom_site_type_symbol
 _atom_site_label
 _atom_site_symmetry_multiplicity
 _atom_site_fract_x
 _atom_site_fract_y
 _atom_site_fract_z
 _atom_site_occupancy
  Pr  Pr0  1  0.26958378  0.50323607  0.86738112  1
  Pr  Pr1  1  0.73348784  0.51365501  0.13390351  1
  Pr  Pr2  1  0.76529704  0.03011023  0.86844172  1
  Pr  Pr3  1  0.23120387  0.98814296  0.13116564  1
  Mn  Mn4  1  0.30121911  0.46744463  0.60774398  1
  Mn  Mn5  1  0.68574725  0.46697890  0.36328098  1
  Mn  Mn6  1  0.00264205  0.99133658  0.01037893  1
  Mn  Mn7  1  0.79392915  0.02080242  0.61521501  1
  Mn  Mn8  1  0.19333561  0.99733658  0.36527833  1
  Mn  Mn9  1  0.48291729  0.47209017  0.98202658  1
  Sb  Sb10  1  0.88952695  0.98607749  0.44793108  1
  Sb  Sb11  1  0.11017462  0.98053976  0.54597100  1
  Sb  Sb12  1  0.03463477  0.53079578  0.82125724  1
  Sb  Sb13  1  0.96680468  0.49707485  0.18966485  1
  Sb  Sb14  1  0.39459190  0.49869383  0.44988027  1
  Sb  Sb15  1  0.61052450  0.48023997  0.54755883  1
  Sb  Sb16  1  0.53233931  0.97411825  0.80661538  1
  Sb  Sb17  1  0.46529860  0.02335006  0.18753148  1
  S  S18  1  0.93849315  0.02025660  0.80903648  1
  S  S19  1  0.06750527  0.00612250  0.20791288  1
  S  S20  1  0.41872857  0.97175218  0.98395287  1
  S  S21  1  0.58767533  0.03743568  0.01604174  1
  S  S22  1  0.16579562  0.03815954  0.90146734  1
  S  S23  1  0.82642712  0.01150054  0.10506379  1
  S  S24  1  0.08636383  0.49764577  0.64149684  1
  S  S25  1  0.91405841  0.48096839  0.35086518  1
  S  S26  1  0.73597668  0.00986570  0.29618968  1
  S  S27  1  0.25755161  0.02102034  0.70399360  1
  S  S28  1  0.16811644  0.51293987  0.43768192  1
  S  S29  1  0.80929933  0.50902276  0.53837939  1
  S  S30  1  0.43113039  0.47477661  0.79727204  1
  S  S31  1  0.55298571  0.51417307  0.17964867  1
  S  S32  1  0.92410700  0.50446568  0.99320710  1
  S  S33  1  0.09138645  0.49698666  0.02731357  1
  S  S34  1  0.66722929  0.56166735  0.89909410  1
  S  S35  1  0.32860521  0.46643566  0.09443296  1
  S  S36  1  0.58704164  0.99312493  0.64654283  1
  S  S37  1  0.39534928  0.97622775  0.33396041  1
  S  S38  1  0.24691824  0.47620120  0.31657488  1
  S  S39  1  0.76106925  0.52306497  0.69008957  1
  S  S40  1  0.66264361  0.98358108  0.44289785  1
  S  S41  1  0.32879055  0.97965041  0.55241931  1
