# generated using pymatgen
data_Pr2Mn3(SbS3)4
_symmetry_space_group_name_H-M   'P 1'
_cell_length_a   20.02960800
_cell_length_b   3.90410600
_cell_length_c   14.95364829
_cell_angle_alpha   90.00000000
_cell_angle_beta   126.33350609
_cell_angle_gamma   90.00000000
_symmetry_Int_Tables_number   1
_chemical_formula_structural   Pr2Mn3(SbS3)4
_chemical_formula_sum   'Pr4 Mn6 Sb8 S24'
_cell_volume   942.00006694
_cell_formula_units_Z   2
loop_
 _symmetry_equiv_pos_site_id
 _symmetry_equiv_pos_as_xyz
  1  'x, y, z'
loop_
 _atom_site_type_symbol
 _atom_site_label
 _atom_site_symmetry_multiplicity
 _atom_site_fract_x
 _atom_site_fract_y
 _atom_site_fract_z
 _atom_site_occupancy
  Pr  Pr0  1  0.26679978  0.45635189  0.87009561  1
  Pr  Pr1  1  0.73440056  0.54380612  0.13787201  1
  Pr  Pr2  1  0.77833747  0.98543493  0.86997136  1
  Pr  Pr3  1  0.22961302  0.97201202  0.13036039  1
  Mn  Mn4  1  0.28944514  0.55865219  0.59887484  1
  Mn  Mn5  1  0.70473947  0.50350927  0.39262749  1
  Mn  Mn6  1  0.98746653  0.93248233  0.98404238  1
  Mn  Mn7  1  0.79190564  0.05849013  0.59662264  1
  Mn  Mn8  1  0.18110214  0.01351060  0.38548014  1
  Mn  Mn9  1  0.52104949  0.49705251  0.02284730  1
  Sb  Sb10  1  0.89571287  0.01279781  0.45205818  1
  Sb  Sb11  1  0.11466633  0.98681920  0.55139359  1
  Sb  Sb12  1  0.02902120  0.50463418  0.80667554  1
  Sb  Sb13  1  0.96821909  0.47211031  0.19020106  1
  Sb  Sb14  1  0.40040385  0.51085937  0.46485857  1
  Sb  Sb15  1  0.60248332  0.42997381  0.55200016  1
  Sb  Sb16  1  0.52561645  0.98314938  0.80880987  1
  Sb  Sb17  1  0.46851638  0.98635049  0.18818330  1
  S  S18  1  0.93370702  0.94943606  0.79897978  1
  S  S19  1  0.06638374  0.00414179  0.20057390  1
  S  S20  1  0.42007990  0.95513885  0.98722114  1
  S  S21  1  0.58411848  0.01273057  0.02330125  1
  S  S22  1  0.18060928  0.99800999  0.89841683  1
  S  S23  1  0.83463158  0.99612292  0.10837143  1
  S  S24  1  0.10294918  0.51447835  0.64879090  1
  S  S25  1  0.88943871  0.49902521  0.33389095  1
  S  S26  1  0.73788342  0.00938580  0.32630151  1
  S  S27  1  0.26380885  0.04081828  0.68338741  1
  S  S28  1  0.16352171  0.47922625  0.45283462  1
  S  S29  1  0.84239566  0.55809135  0.56771862  1
  S  S30  1  0.44897397  0.49467131  0.82429494  1
  S  S31  1  0.58013222  0.52898848  0.21211547  1
  S  S32  1  0.91443931  0.45709364  0.98303392  1
  S  S33  1  0.08124161  0.46060276  0.00137979  1
  S  S34  1  0.69283374  0.45897369  0.91299947  1
  S  S35  1  0.34931717  0.45161459  0.10641783  1
  S  S36  1  0.61831994  0.93774701  0.68484934  1
  S  S37  1  0.41807831  0.98588611  0.36247783  1
  S  S38  1  0.26093451  0.48381369  0.28906947  1
  S  S39  1  0.76322749  0.49544088  0.67577529  1
  S  S40  1  0.66987346  0.98518362  0.44522051  1
  S  S41  1  0.32015355  0.03974646  0.52961184  1
