# generated using pymatgen
data_Pr2Mn3(SbS3)4
_symmetry_space_group_name_H-M   'P 1'
_cell_length_a   20.02960800
_cell_length_b   3.90410600
_cell_length_c   14.95364829
_cell_angle_alpha   90.00000000
_cell_angle_beta   126.33350609
_cell_angle_gamma   90.00000000
_symmetry_Int_Tables_number   1
_chemical_formula_structural   Pr2Mn3(SbS3)4
_chemical_formula_sum   'Pr4 Mn6 Sb8 S24'
_cell_volume   942.00006694
_cell_formula_units_Z   2
loop_
 _symmetry_equiv_pos_site_id
 _symmetry_equiv_pos_as_xyz
  1  'x, y, z'
loop_
 _atom_site_type_symbol
 _atom_site_label
 _atom_site_symmetry_multiplicity
 _atom_site_fract_x
 _atom_site_fract_y
 _atom_site_fract_z
 _atom_site_occupancy
  Pr  Pr0  1  0.26684075  0.45666476  0.86985361  1
  Pr  Pr1  1  0.73464753  0.54375571  0.13822289  1
  Pr  Pr2  1  0.77851219  0.98485659  0.87010295  1
  Pr  Pr3  1  0.22960674  0.97281843  0.13030139  1
  Mn  Mn4  1  0.28920534  0.55820136  0.59873826  1
  Mn  Mn5  1  0.70477351  0.50392086  0.39257664  1
  Mn  Mn6  1  0.98745192  0.93167697  0.98399322  1
  Mn  Mn7  1  0.79214849  0.05890143  0.59686473  1
  Mn  Mn8  1  0.18110669  0.01415293  0.38559582  1
  Mn  Mn9  1  0.52117250  0.49683532  0.02292202  1
  Sb  Sb10  1  0.89580027  0.01223752  0.45219072  1
  Sb  Sb11  1  0.11480598  0.98786401  0.55158434  1
  Sb  Sb12  1  0.02909048  0.50451248  0.80675790  1
  Sb  Sb13  1  0.96804904  0.47247064  0.19020706  1
  Sb  Sb14  1  0.40037989  0.50983162  0.46474515  1
  Sb  Sb15  1  0.60241755  0.43063387  0.55186743  1
  Sb  Sb16  1  0.52575379  0.98178483  0.80884441  1
  Sb  Sb17  1  0.46834513  0.98662217  0.18800092  1
  S  S18  1  0.93405198  0.94899894  0.79951302  1
  S  S19  1  0.06611819  0.00523726  0.20082870  1
  S  S20  1  0.42042002  0.95475064  0.98730030  1
  S  S21  1  0.58423326  0.01180720  0.02322320  1
  S  S22  1  0.18066288  0.99818908  0.89843197  1
  S  S23  1  0.83449991  0.99606119  0.10824358  1
  S  S24  1  0.10259976  0.51486157  0.64877494  1
  S  S25  1  0.88946876  0.49778306  0.33381206  1
  S  S26  1  0.73823780  0.00971245  0.32656691  1
  S  S27  1  0.26406257  0.04128408  0.68342380  1
  S  S28  1  0.16363697  0.48183477  0.45302322  1
  S  S29  1  0.84235283  0.55716155  0.56739343  1
  S  S30  1  0.44905974  0.49348212  0.82464763  1
  S  S31  1  0.58014809  0.52817002  0.21177437  1
  S  S32  1  0.91453627  0.45833268  0.98361557  1
  S  S33  1  0.08136727  0.46265539  0.00109702  1
  S  S34  1  0.69308607  0.45877493  0.91342319  1
  S  S35  1  0.34929776  0.45204706  0.10605279  1
  S  S36  1  0.61816057  0.93763795  0.68437437  1
  S  S37  1  0.41868256  0.98512307  0.36299661  1
  S  S38  1  0.26087985  0.48398697  0.28902864  1
  S  S39  1  0.76343783  0.49653451  0.67619180  1
  S  S40  1  0.66951679  0.98571168  0.44509491  1
  S  S41  1  0.32011927  0.04063784  0.52908792  1
