# generated using pymatgen
data_Pr2Mn3(SbS3)4
_symmetry_space_group_name_H-M   'P 1'
_cell_length_a   20.02960800
_cell_length_b   3.90410600
_cell_length_c   14.95364829
_cell_angle_alpha   90.00000000
_cell_angle_beta   126.33350609
_cell_angle_gamma   90.00000000
_symmetry_Int_Tables_number   1
_chemical_formula_structural   Pr2Mn3(SbS3)4
_chemical_formula_sum   'Pr4 Mn6 Sb8 S24'
_cell_volume   942.00006694
_cell_formula_units_Z   2
loop_
 _symmetry_equiv_pos_site_id
 _symmetry_equiv_pos_as_xyz
  1  'x, y, z'
loop_
 _atom_site_type_symbol
 _atom_site_label
 _atom_site_symmetry_multiplicity
 _atom_site_fract_x
 _atom_site_fract_y
 _atom_site_fract_z
 _atom_site_occupancy
  Pr  Pr0  1  0.26687971  0.45696771  0.86969765  1
  Pr  Pr1  1  0.73488355  0.54397452  0.13862034  1
  Pr  Pr2  1  0.77867905  0.98430206  0.87025630  1
  Pr  Pr3  1  0.22957651  0.97331445  0.13024937  1
  Mn  Mn4  1  0.28895940  0.55772733  0.59853766  1
  Mn  Mn5  1  0.70486031  0.50430525  0.39249023  1
  Mn  Mn6  1  0.98747961  0.93069553  0.98404248  1
  Mn  Mn7  1  0.79238221  0.05886061  0.59707594  1
  Mn  Mn8  1  0.18116505  0.01467533  0.38565301  1
  Mn  Mn9  1  0.52140251  0.49668403  0.02307471  1
  Sb  Sb10  1  0.89595870  0.01153428  0.45234091  1
  Sb  Sb11  1  0.11489475  0.98905641  0.55174335  1
  Sb  Sb12  1  0.02925313  0.50467233  0.80695006  1
  Sb  Sb13  1  0.96787898  0.47282465  0.19020381  1
  Sb  Sb14  1  0.40038491  0.50878165  0.46463069  1
  Sb  Sb15  1  0.60229356  0.43111325  0.55159210  1
  Sb  Sb16  1  0.52583110  0.98029814  0.80891357  1
  Sb  Sb17  1  0.46816426  0.98670650  0.18779523  1
  S  S18  1  0.93423904  0.94820401  0.79990671  1
  S  S19  1  0.06597549  0.00559133  0.20117483  1
  S  S20  1  0.42055907  0.95443064  0.98740526  1
  S  S21  1  0.58436389  0.01070042  0.02314131  1
  S  S22  1  0.18071610  0.99789012  0.89851970  1
  S  S23  1  0.83456289  0.99657955  0.10830562  1
  S  S24  1  0.10224497  0.51442241  0.64864991  1
  S  S25  1  0.88937547  0.49694459  0.33375416  1
  S  S26  1  0.73842001  0.01038359  0.32671271  1
  S  S27  1  0.26433159  0.04079906  0.68348046  1
  S  S28  1  0.16371190  0.48432389  0.45295872  1
  S  S29  1  0.84249591  0.55539798  0.56715650  1
  S  S30  1  0.44906050  0.49204790  0.82490507  1
  S  S31  1  0.58020863  0.52720936  0.21166928  1
  S  S32  1  0.91462713  0.45954318  0.98406786  1
  S  S33  1  0.08162197  0.46436364  0.00112713  1
  S  S34  1  0.69325554  0.45863540  0.91372869  1
  S  S35  1  0.34959090  0.45234570  0.10580635  1
  S  S36  1  0.61820232  0.93767141  0.68410089  1
  S  S37  1  0.41953634  0.98492490  0.36383130  1
  S  S38  1  0.26088843  0.48390256  0.28905519  1
  S  S39  1  0.76350018  0.49742386  0.67637490  1
  S  S40  1  0.66911692  0.98543084  0.44495823  1
  S  S41  1  0.31998891  0.04169967  0.52864106  1
