# generated using pymatgen
data_Pr2Mn3(SbS3)4
_symmetry_space_group_name_H-M   'P 1'
_cell_length_a   20.02960800
_cell_length_b   3.90410600
_cell_length_c   14.95364829
_cell_angle_alpha   90.00000000
_cell_angle_beta   126.33350609
_cell_angle_gamma   90.00000000
_symmetry_Int_Tables_number   1
_chemical_formula_structural   Pr2Mn3(SbS3)4
_chemical_formula_sum   'Pr4 Mn6 Sb8 S24'
_cell_volume   942.00006694
_cell_formula_units_Z   2
loop_
 _symmetry_equiv_pos_site_id
 _symmetry_equiv_pos_as_xyz
  1  'x, y, z'
loop_
 _atom_site_type_symbol
 _atom_site_label
 _atom_site_symmetry_multiplicity
 _atom_site_fract_x
 _atom_site_fract_y
 _atom_site_fract_z
 _atom_site_occupancy
  Pr  Pr0  1  0.26686781  0.45694931  0.86954663  1
  Pr  Pr1  1  0.73509499  0.54408976  0.13894270  1
  Pr  Pr2  1  0.77874742  0.98365778  0.87038670  1
  Pr  Pr3  1  0.22954949  0.97392645  0.13024146  1
  Mn  Mn4  1  0.28864059  0.55749025  0.59833113  1
  Mn  Mn5  1  0.70488751  0.50495207  0.39246719  1
  Mn  Mn6  1  0.98752612  0.92984842  0.98409430  1
  Mn  Mn7  1  0.79264765  0.05861818  0.59733617  1
  Mn  Mn8  1  0.18133229  0.01491877  0.38590399  1
  Mn  Mn9  1  0.52167493  0.49690405  0.02320652  1
  Sb  Sb10  1  0.89611602  0.01086452  0.45254029  1
  Sb  Sb11  1  0.11490863  0.98981336  0.55194584  1
  Sb  Sb12  1  0.02940656  0.50497575  0.80707527  1
  Sb  Sb13  1  0.96770210  0.47287940  0.19018216  1
  Sb  Sb14  1  0.40035578  0.50760056  0.46449601  1
  Sb  Sb15  1  0.60219810  0.43146414  0.55131796  1
  Sb  Sb16  1  0.52585439  0.97905768  0.80892123  1
  Sb  Sb17  1  0.46799810  0.98687536  0.18757539  1
  S  S18  1  0.93455070  0.94801200  0.80033383  1
  S  S19  1  0.06577451  0.00625877  0.20149673  1
  S  S20  1  0.42085540  0.95405890  0.98767588  1
  S  S21  1  0.58445973  0.00998166  0.02301889  1
  S  S22  1  0.18075153  0.99740530  0.89859593  1
  S  S23  1  0.83468464  0.99750854  0.10847908  1
  S  S24  1  0.10185107  0.51411998  0.64855471  1
  S  S25  1  0.88922911  0.49581852  0.33354517  1
  S  S26  1  0.73856802  0.01054702  0.32688359  1
  S  S27  1  0.26465964  0.03963029  0.68361533  1
  S  S28  1  0.16384158  0.48638404  0.45298129  1
  S  S29  1  0.84271534  0.55372831  0.56702345  1
  S  S30  1  0.44893761  0.49069284  0.82517740  1
  S  S31  1  0.58033250  0.52685923  0.21185457  1
  S  S32  1  0.91476971  0.46049853  0.98456535  1
  S  S33  1  0.08170427  0.46621318  0.00110933  1
  S  S34  1  0.69339746  0.45884365  0.91419334  1
  S  S35  1  0.34991732  0.45205191  0.10560591  1
  S  S36  1  0.61821896  0.93726577  0.68362421  1
  S  S37  1  0.42037210  0.98499686  0.36461469  1
  S  S38  1  0.26071418  0.48375016  0.28908450  1
  S  S39  1  0.76355041  0.49828048  0.67653988  1
  S  S40  1  0.66878054  0.98505287  0.44477033  1
  S  S41  1  0.31973149  0.04244463  0.52804845  1
