# generated using pymatgen
data_Pr2Mn3(SbS3)4
_symmetry_space_group_name_H-M   'P 1'
_cell_length_a   20.02960800
_cell_length_b   3.90410600
_cell_length_c   14.95364829
_cell_angle_alpha   90.00000000
_cell_angle_beta   126.33350609
_cell_angle_gamma   90.00000000
_symmetry_Int_Tables_number   1
_chemical_formula_structural   Pr2Mn3(SbS3)4
_chemical_formula_sum   'Pr4 Mn6 Sb8 S24'
_cell_volume   942.00006694
_cell_formula_units_Z   2
loop_
 _symmetry_equiv_pos_site_id
 _symmetry_equiv_pos_as_xyz
  1  'x, y, z'
loop_
 _atom_site_type_symbol
 _atom_site_label
 _atom_site_symmetry_multiplicity
 _atom_site_fract_x
 _atom_site_fract_y
 _atom_site_fract_z
 _atom_site_occupancy
  Pr  Pr0  1  0.26676719  0.45676903  0.86929884  1
  Pr  Pr1  1  0.73524161  0.54416675  0.13914542  1
  Pr  Pr2  1  0.77875733  0.98297637  0.87053001  1
  Pr  Pr3  1  0.22962944  0.97452142  0.13032466  1
  Mn  Mn4  1  0.28835588  0.55698053  0.59820933  1
  Mn  Mn5  1  0.70490990  0.50532820  0.39244992  1
  Mn  Mn6  1  0.98756401  0.92886028  0.98419101  1
  Mn  Mn7  1  0.79292593  0.05820546  0.59768874  1
  Mn  Mn8  1  0.18163039  0.01483057  0.38633281  1
  Mn  Mn9  1  0.52194669  0.49741642  0.02330845  1
  Sb  Sb10  1  0.89626109  0.01057444  0.45277400  1
  Sb  Sb11  1  0.11493611  0.99067575  0.55209192  1
  Sb  Sb12  1  0.02953182  0.50564020  0.80712729  1
  Sb  Sb13  1  0.96760466  0.47294501  0.19028734  1
  Sb  Sb14  1  0.40039335  0.50678151  0.46441638  1
  Sb  Sb15  1  0.60208413  0.43176298  0.55114363  1
  Sb  Sb16  1  0.52592734  0.97815631  0.80897061  1
  Sb  Sb17  1  0.46793210  0.98709503  0.18747675  1
  S  S18  1  0.93482287  0.94798440  0.80076823  1
  S  S19  1  0.06551092  0.00690196  0.20154488  1
  S  S20  1  0.42097866  0.95334707  0.98776764  1
  S  S21  1  0.58442463  0.00894388  0.02265980  1
  S  S22  1  0.18067979  0.99713940  0.89851124  1
  S  S23  1  0.83477423  0.99868141  0.10853245  1
  S  S24  1  0.10148301  0.51316471  0.64839466  1
  S  S25  1  0.88918344  0.49518814  0.33344391  1
  S  S26  1  0.73869499  0.01060691  0.32705039  1
  S  S27  1  0.26498537  0.03828535  0.68383609  1
  S  S28  1  0.16394682  0.48788803  0.45270046  1
  S  S29  1  0.84300780  0.55292319  0.56691893  1
  S  S30  1  0.44882264  0.48961290  0.82535070  1
  S  S31  1  0.58040742  0.52662724  0.21211592  1
  S  S32  1  0.91496376  0.46125498  0.98519544  1
  S  S33  1  0.08187922  0.46763719  0.00117711  1
  S  S34  1  0.69337458  0.45893505  0.91444734  1
  S  S35  1  0.35011168  0.45185518  0.10530107  1
  S  S36  1  0.61841078  0.93727051  0.68316973  1
  S  S37  1  0.42087514  0.98422374  0.36515873  1
  S  S38  1  0.26058264  0.48331803  0.28914071  1
  S  S39  1  0.76368079  0.49902448  0.67687877  1
  S  S40  1  0.66849414  0.98456434  0.44473880  1
  S  S41  1  0.31959356  0.04321494  0.52771957  1
