# generated using pymatgen
data_Pr2Mn3(SbS3)4
_symmetry_space_group_name_H-M   'P 1'
_cell_length_a   20.02960800
_cell_length_b   3.90410600
_cell_length_c   14.95364829
_cell_angle_alpha   90.00000000
_cell_angle_beta   126.33350609
_cell_angle_gamma   90.00000000
_symmetry_Int_Tables_number   1
_chemical_formula_structural   Pr2Mn3(SbS3)4
_chemical_formula_sum   'Pr4 Mn6 Sb8 S24'
_cell_volume   942.00006694
_cell_formula_units_Z   2
loop_
 _symmetry_equiv_pos_site_id
 _symmetry_equiv_pos_as_xyz
  1  'x, y, z'
loop_
 _atom_site_type_symbol
 _atom_site_label
 _atom_site_symmetry_multiplicity
 _atom_site_fract_x
 _atom_site_fract_y
 _atom_site_fract_z
 _atom_site_occupancy
  Pr  Pr0  1  0.26664598  0.45661612  0.86900489  1
  Pr  Pr1  1  0.73542636  0.54427500  0.13938410  1
  Pr  Pr2  1  0.77869057  0.98222365  0.87049368  1
  Pr  Pr3  1  0.22966253  0.97497401  0.13038390  1
  Mn  Mn4  1  0.28805868  0.55655815  0.59803849  1
  Mn  Mn5  1  0.70488083  0.50558550  0.39251856  1
  Mn  Mn6  1  0.98764226  0.92878814  0.98438753  1
  Mn  Mn7  1  0.79319415  0.05789845  0.59817584  1
  Mn  Mn8  1  0.18196063  0.01444800  0.38676661  1
  Mn  Mn9  1  0.52216491  0.49807311  0.02334604  1
  Sb  Sb10  1  0.89638492  0.01009169  0.45298094  1
  Sb  Sb11  1  0.11502564  0.99141151  0.55225659  1
  Sb  Sb12  1  0.02970450  0.50614481  0.80717396  1
  Sb  Sb13  1  0.96746297  0.47283305  0.19036976  1
  Sb  Sb14  1  0.40040524  0.50627749  0.46434631  1
  Sb  Sb15  1  0.60197534  0.43214383  0.55091728  1
  Sb  Sb16  1  0.52595594  0.97731396  0.80903218  1
  Sb  Sb17  1  0.46786656  0.98738173  0.18736479  1
  S  S18  1  0.93508300  0.94809009  0.80128145  1
  S  S19  1  0.06513352  0.00768398  0.20158528  1
  S  S20  1  0.42112142  0.95254864  0.98797896  1
  S  S21  1  0.58437184  0.00805989  0.02221002  1
  S  S22  1  0.18083122  0.99664150  0.89864254  1
  S  S23  1  0.83467459  0.00019913  0.10846374  1
  S  S24  1  0.10118806  0.51185407  0.64812074  1
  S  S25  1  0.88922651  0.49421121  0.33346452  1
  S  S26  1  0.73884641  0.01003279  0.32734855  1
  S  S27  1  0.26529673  0.03709239  0.68401774  1
  S  S28  1  0.16393960  0.48911479  0.45249681  1
  S  S29  1  0.84323432  0.55241982  0.56681308  1
  S  S30  1  0.44874849  0.48773878  0.82550950  1
  S  S31  1  0.58061949  0.52602737  0.21236307  1
  S  S32  1  0.91535668  0.46167806  0.98592178  1
  S  S33  1  0.08184992  0.46848886  0.00122045  1
  S  S34  1  0.69330668  0.45925474  0.91484068  1
  S  S35  1  0.35019299  0.45193989  0.10487738  1
  S  S36  1  0.61847054  0.93722976  0.68267164  1
  S  S37  1  0.42140944  0.98416638  0.36591994  1
  S  S38  1  0.26039239  0.48225476  0.28926801  1
  S  S39  1  0.76384716  0.49945962  0.67719222  1
  S  S40  1  0.66844957  0.98439525  0.44484629  1
  S  S41  1  0.31947103  0.04347264  0.52738438  1
