# generated using pymatgen
data_Pr2Mn3(SbS3)4
_symmetry_space_group_name_H-M   'P 1'
_cell_length_a   20.02960800
_cell_length_b   3.90410600
_cell_length_c   14.95364829
_cell_angle_alpha   90.00000000
_cell_angle_beta   126.33350609
_cell_angle_gamma   90.00000000
_symmetry_Int_Tables_number   1
_chemical_formula_structural   Pr2Mn3(SbS3)4
_chemical_formula_sum   'Pr4 Mn6 Sb8 S24'
_cell_volume   942.00006694
_cell_formula_units_Z   2
loop_
 _symmetry_equiv_pos_site_id
 _symmetry_equiv_pos_as_xyz
  1  'x, y, z'
loop_
 _atom_site_type_symbol
 _atom_site_label
 _atom_site_symmetry_multiplicity
 _atom_site_fract_x
 _atom_site_fract_y
 _atom_site_fract_z
 _atom_site_occupancy
  Pr  Pr0  1  0.26654922  0.45645273  0.86872022  1
  Pr  Pr1  1  0.73565501  0.54450934  0.13968581  1
  Pr  Pr2  1  0.77860260  0.98155431  0.87042277  1
  Pr  Pr3  1  0.22973626  0.97528219  0.13051321  1
  Mn  Mn4  1  0.28780809  0.55638853  0.59798397  1
  Mn  Mn5  1  0.70478199  0.50555332  0.39240874  1
  Mn  Mn6  1  0.98763339  0.92796846  0.98445483  1
  Mn  Mn7  1  0.79335194  0.05786075  0.59859042  1
  Mn  Mn8  1  0.18224517  0.01381525  0.38723902  1
  Mn  Mn9  1  0.52234748  0.49909065  0.02344948  1
  Sb  Sb10  1  0.89658567  0.00923321  0.45322322  1
  Sb  Sb11  1  0.11505747  0.99218779  0.55235756  1
  Sb  Sb12  1  0.02988545  0.50684996  0.80717783  1
  Sb  Sb13  1  0.96728712  0.47270316  0.19034357  1
  Sb  Sb14  1  0.40049653  0.50595908  0.46435052  1
  Sb  Sb15  1  0.60191683  0.43260588  0.55067404  1
  Sb  Sb16  1  0.52595713  0.97646962  0.80912574  1
  Sb  Sb17  1  0.46781925  0.98782468  0.18726475  1
  S  S18  1  0.93522278  0.94795306  0.80160276  1
  S  S19  1  0.06479437  0.00882728  0.20157038  1
  S  S20  1  0.42119416  0.95224250  0.98828352  1
  S  S21  1  0.58421478  0.00741867  0.02166745  1
  S  S22  1  0.18102020  0.99529768  0.89893908  1
  S  S23  1  0.83462797  0.00108163  0.10827232  1
  S  S24  1  0.10087327  0.51049425  0.64784161  1
  S  S25  1  0.88953124  0.49288793  0.33384512  1
  S  S26  1  0.73902159  0.00969747  0.32763807  1
  S  S27  1  0.26550813  0.03578556  0.68416296  1
  S  S28  1  0.16409073  0.49033179  0.45252925  1
  S  S29  1  0.84356268  0.55198712  0.56680413  1
  S  S30  1  0.44852816  0.48613874  0.82540716  1
  S  S31  1  0.58087527  0.52600137  0.21263210  1
  S  S32  1  0.91587235  0.46256865  0.98674438  1
  S  S33  1  0.08176768  0.46970424  0.00113894  1
  S  S34  1  0.69317823  0.45912979  0.91514738  1
  S  S35  1  0.35029785  0.45246572  0.10449097  1
  S  S36  1  0.61854330  0.93680590  0.68213812  1
  S  S37  1  0.42189732  0.98403721  0.36668893  1
  S  S38  1  0.26019356  0.48120262  0.28936172  1
  S  S39  1  0.76400731  0.49955220  0.67752331  1
  S  S40  1  0.66836786  0.98461688  0.44482793  1
  S  S41  1  0.31943106  0.04358633  0.52721016  1
