# generated using pymatgen
data_Pr2Mn3(SbS3)4
_symmetry_space_group_name_H-M   'P 1'
_cell_length_a   20.02960800
_cell_length_b   3.90410600
_cell_length_c   14.95364829
_cell_angle_alpha   90.00000000
_cell_angle_beta   126.33350609
_cell_angle_gamma   90.00000000
_symmetry_Int_Tables_number   1
_chemical_formula_structural   Pr2Mn3(SbS3)4
_chemical_formula_sum   'Pr4 Mn6 Sb8 S24'
_cell_volume   942.00006694
_cell_formula_units_Z   2
loop_
 _symmetry_equiv_pos_site_id
 _symmetry_equiv_pos_as_xyz
  1  'x, y, z'
loop_
 _atom_site_type_symbol
 _atom_site_label
 _atom_site_symmetry_multiplicity
 _atom_site_fract_x
 _atom_site_fract_y
 _atom_site_fract_z
 _atom_site_occupancy
  Pr  Pr0  1  0.26643654  0.45625990  0.86841738  1
  Pr  Pr1  1  0.73589778  0.54483631  0.13997299  1
  Pr  Pr2  1  0.77851711  0.98118294  0.87030963  1
  Pr  Pr3  1  0.22975451  0.97577783  0.13055722  1
  Mn  Mn4  1  0.28749519  0.55589242  0.59788767  1
  Mn  Mn5  1  0.70476072  0.50517275  0.39244221  1
  Mn  Mn6  1  0.98761832  0.92665405  0.98459496  1
  Mn  Mn7  1  0.79348243  0.05833150  0.59895764  1
  Mn  Mn8  1  0.18251061  0.01272291  0.38752711  1
  Mn  Mn9  1  0.52247910  0.50036225  0.02348225  1
  Sb  Sb10  1  0.89672485  0.00825426  0.45329200  1
  Sb  Sb11  1  0.11508418  0.99286183  0.55240258  1
  Sb  Sb12  1  0.03005556  0.50725542  0.80723828  1
  Sb  Sb13  1  0.96713350  0.47250439  0.19033957  1
  Sb  Sb14  1  0.40064222  0.50597348  0.46442899  1
  Sb  Sb15  1  0.60194509  0.43327169  0.55046561  1
  Sb  Sb16  1  0.52600677  0.97556603  0.80918466  1
  Sb  Sb17  1  0.46768954  0.98808279  0.18706038  1
  S  S18  1  0.93526913  0.94759629  0.80198142  1
  S  S19  1  0.06456015  0.00953528  0.20146565  1
  S  S20  1  0.42143694  0.95200180  0.98863614  1
  S  S21  1  0.58417916  0.00637688  0.02111481  1
  S  S22  1  0.18139091  0.99391546  0.89951059  1
  S  S23  1  0.83464344  0.00206429  0.10815652  1
  S  S24  1  0.10050810  0.50888756  0.64754574  1
  S  S25  1  0.88961965  0.49165795  0.33410046  1
  S  S26  1  0.73920864  0.00958878  0.32791898  1
  S  S27  1  0.26563867  0.03529512  0.68420269  1
  S  S28  1  0.16418217  0.49150172  0.45237693  1
  S  S29  1  0.84380729  0.55088670  0.56673289  1
  S  S30  1  0.44825870  0.48352994  0.82538002  1
  S  S31  1  0.58100586  0.52571925  0.21287009  1
  S  S32  1  0.91632546  0.46281171  0.98746834  1
  S  S33  1  0.08177392  0.47054634  0.00116920  1
  S  S34  1  0.69304912  0.45938649  0.91552489  1
  S  S35  1  0.35024474  0.45352337  0.10413163  1
  S  S36  1  0.61851655  0.93602836  0.68144465  1
  S  S37  1  0.42242137  0.98351599  0.36743774  1
  S  S38  1  0.25988393  0.48056988  0.28940020  1
  S  S39  1  0.76416358  0.50024195  0.67779387  1
  S  S40  1  0.66828757  0.98531531  0.44465208  1
  S  S41  1  0.31951529  0.04324794  0.52700827  1
