# generated using pymatgen
data_Pr2Mn3(SbS3)4
_symmetry_space_group_name_H-M   'P 1'
_cell_length_a   20.02960800
_cell_length_b   3.90410600
_cell_length_c   14.95364829
_cell_angle_alpha   90.00000000
_cell_angle_beta   126.33350609
_cell_angle_gamma   90.00000000
_symmetry_Int_Tables_number   1
_chemical_formula_structural   Pr2Mn3(SbS3)4
_chemical_formula_sum   'Pr4 Mn6 Sb8 S24'
_cell_volume   942.00006694
_cell_formula_units_Z   2
loop_
 _symmetry_equiv_pos_site_id
 _symmetry_equiv_pos_as_xyz
  1  'x, y, z'
loop_
 _atom_site_type_symbol
 _atom_site_label
 _atom_site_symmetry_multiplicity
 _atom_site_fract_x
 _atom_site_fract_y
 _atom_site_fract_z
 _atom_site_occupancy
  Pr  Pr0  1  0.26624631  0.45600730  0.86812465  1
  Pr  Pr1  1  0.73602878  0.54515148  0.14007948  1
  Pr  Pr2  1  0.77842259  0.98106096  0.87015436  1
  Pr  Pr3  1  0.22979174  0.97626211  0.13056294  1
  Mn  Mn4  1  0.28729796  0.55494666  0.59790155  1
  Mn  Mn5  1  0.70484707  0.50459772  0.39263547  1
  Mn  Mn6  1  0.98755494  0.92528157  0.98486054  1
  Mn  Mn7  1  0.79353782  0.05850676  0.59910189  1
  Mn  Mn8  1  0.18274860  0.01143111  0.38782903  1
  Mn  Mn9  1  0.52250800  0.50157061  0.02351573  1
  Sb  Sb10  1  0.89687207  0.00741022  0.45343630  1
  Sb  Sb11  1  0.11511561  0.99337326  0.55247410  1
  Sb  Sb12  1  0.03014774  0.50768398  0.80721705  1
  Sb  Sb13  1  0.96697834  0.47264592  0.19020271  1
  Sb  Sb14  1  0.40087440  0.50582767  0.46459019  1
  Sb  Sb15  1  0.60197663  0.43373284  0.55028440  1
  Sb  Sb16  1  0.52602159  0.97459472  0.80916506  1
  Sb  Sb17  1  0.46756413  0.98827368  0.18691137  1
  S  S18  1  0.93530135  0.94798062  0.80254263  1
  S  S19  1  0.06437634  0.01030469  0.20153732  1
  S  S20  1  0.42168786  0.95145904  0.98898615  1
  S  S21  1  0.58408311  0.00500901  0.02070147  1
  S  S22  1  0.18172772  0.99306866  0.90003631  1
  S  S23  1  0.83459710  0.00315422  0.10793619  1
  S  S24  1  0.10021881  0.50748107  0.64732746  1
  S  S25  1  0.88973763  0.49090063  0.33439154  1
  S  S26  1  0.73936102  0.00975176  0.32816697  1
  S  S27  1  0.26589505  0.03530146  0.68453596  1
  S  S28  1  0.16433018  0.49260676  0.45230777  1
  S  S29  1  0.84391022  0.54930377  0.56671227  1
  S  S30  1  0.44801995  0.48142058  0.82524724  1
  S  S31  1  0.58102070  0.52503634  0.21287143  1
  S  S32  1  0.91666808  0.46330482  0.98795322  1
  S  S33  1  0.08179813  0.47136242  0.00135972  1
  S  S34  1  0.69300581  0.45950523  0.91586326  1
  S  S35  1  0.35018615  0.45527920  0.10376956  1
  S  S36  1  0.61837481  0.93449939  0.68052824  1
  S  S37  1  0.42274117  0.98292720  0.36790262  1
  S  S38  1  0.25963959  0.48005913  0.28965725  1
  S  S39  1  0.76421759  0.49999710  0.67794797  1
  S  S40  1  0.66808059  0.98569573  0.44442000  1
  S  S41  1  0.31968472  0.04314762  0.52687454  1
