# generated using pymatgen
data_Pr2Mn3(SbS3)4
_symmetry_space_group_name_H-M   'P 1'
_cell_length_a   20.02960800
_cell_length_b   3.90410600
_cell_length_c   14.95364829
_cell_angle_alpha   90.00000000
_cell_angle_beta   126.33350609
_cell_angle_gamma   90.00000000
_symmetry_Int_Tables_number   1
_chemical_formula_structural   Pr2Mn3(SbS3)4
_chemical_formula_sum   'Pr4 Mn6 Sb8 S24'
_cell_volume   942.00006694
_cell_formula_units_Z   2
loop_
 _symmetry_equiv_pos_site_id
 _symmetry_equiv_pos_as_xyz
  1  'x, y, z'
loop_
 _atom_site_type_symbol
 _atom_site_label
 _atom_site_symmetry_multiplicity
 _atom_site_fract_x
 _atom_site_fract_y
 _atom_site_fract_z
 _atom_site_occupancy
  Pr  Pr0  1  0.26608310  0.45575806  0.86796853  1
  Pr  Pr1  1  0.73613859  0.54524152  0.14011910  1
  Pr  Pr2  1  0.77834677  0.98099924  0.87010229  1
  Pr  Pr3  1  0.22980982  0.97695815  0.13056740  1
  Mn  Mn4  1  0.28725717  0.55401290  0.59806975  1
  Mn  Mn5  1  0.70502624  0.50418695  0.39286923  1
  Mn  Mn6  1  0.98747456  0.92383018  0.98503175  1
  Mn  Mn7  1  0.79370439  0.05883534  0.59930908  1
  Mn  Mn8  1  0.18299195  0.01025982  0.38804712  1
  Mn  Mn9  1  0.52258568  0.50272519  0.02358200  1
  Sb  Sb10  1  0.89698752  0.00669337  0.45359372  1
  Sb  Sb11  1  0.11511208  0.99422654  0.55244499  1
  Sb  Sb12  1  0.03017851  0.50791174  0.80719142  1
  Sb  Sb13  1  0.96679840  0.47265335  0.18996643  1
  Sb  Sb14  1  0.40111933  0.50573084  0.46472298  1
  Sb  Sb15  1  0.60201836  0.43399059  0.55019590  1
  Sb  Sb16  1  0.52605781  0.97379806  0.80916264  1
  Sb  Sb17  1  0.46749694  0.98861739  0.18684502  1
  S  S18  1  0.93535578  0.94792531  0.80324479  1
  S  S19  1  0.06425263  0.01070503  0.20173395  1
  S  S20  1  0.42194106  0.95098166  0.98946011  1
  S  S21  1  0.58399050  0.00381565  0.02021762  1
  S  S22  1  0.18198725  0.99138213  0.90060032  1
  S  S23  1  0.83449830  0.00484048  0.10764325  1
  S  S24  1  0.10006568  0.50662063  0.64740955  1
  S  S25  1  0.88985742  0.49065651  0.33463087  1
  S  S26  1  0.73943034  0.00975178  0.32819996  1
  S  S27  1  0.26617243  0.03503242  0.68465699  1
  S  S28  1  0.16448273  0.49361388  0.45227474  1
  S  S29  1  0.84403169  0.54769192  0.56660047  1
  S  S30  1  0.44791826  0.47943579  0.82554643  1
  S  S31  1  0.58124697  0.52459844  0.21305513  1
  S  S32  1  0.91689491  0.46324391  0.98824664  1
  S  S33  1  0.08183808  0.47221723  0.00141992  1
  S  S34  1  0.69289864  0.45967852  0.91586755  1
  S  S35  1  0.35027600  0.45751132  0.10342282  1
  S  S36  1  0.61824404  0.93204352  0.67974311  1
  S  S37  1  0.42299028  0.98251418  0.36843536  1
  S  S38  1  0.25923183  0.48003417  0.28951214  1
  S  S39  1  0.76410827  0.49984717  0.67789537  1
  S  S40  1  0.66795052  0.98673680  0.44421142  1
  S  S41  1  0.31980171  0.04283188  0.52679435  1
