# generated using pymatgen
data_Pr2Mn3(SbS3)4
_symmetry_space_group_name_H-M   'P 1'
_cell_length_a   20.02960800
_cell_length_b   3.90410600
_cell_length_c   14.95364829
_cell_angle_alpha   90.00000000
_cell_angle_beta   126.33350609
_cell_angle_gamma   90.00000000
_symmetry_Int_Tables_number   1
_chemical_formula_structural   Pr2Mn3(SbS3)4
_chemical_formula_sum   'Pr4 Mn6 Sb8 S24'
_cell_volume   942.00006694
_cell_formula_units_Z   2
loop_
 _symmetry_equiv_pos_site_id
 _symmetry_equiv_pos_as_xyz
  1  'x, y, z'
loop_
 _atom_site_type_symbol
 _atom_site_label
 _atom_site_symmetry_multiplicity
 _atom_site_fract_x
 _atom_site_fract_y
 _atom_site_fract_z
 _atom_site_occupancy
  Pr  Pr0  1  0.26955776  0.50352024  0.86737859  1
  Pr  Pr1  1  0.73355065  0.51358311  0.13405955  1
  Pr  Pr2  1  0.76524156  0.03007018  0.86855032  1
  Pr  Pr3  1  0.23109427  0.98799992  0.13117160  1
  Mn  Mn4  1  0.30114627  0.46680009  0.60796231  1
  Mn  Mn5  1  0.68567904  0.46706745  0.36342661  1
  Mn  Mn6  1  0.00260057  0.99180314  0.01030796  1
  Mn  Mn7  1  0.79378836  0.02190288  0.61509850  1
  Mn  Mn8  1  0.19328347  0.99842057  0.36506739  1
  Mn  Mn9  1  0.48293238  0.47252900  0.98204788  1
  Sb  Sb10  1  0.88950580  0.98619034  0.44782229  1
  Sb  Sb11  1  0.11024608  0.98019758  0.54612526  1
  Sb  Sb12  1  0.03464967  0.53048416  0.82132485  1
  Sb  Sb13  1  0.96689691  0.49664618  0.18985981  1
  Sb  Sb14  1  0.39461134  0.49845641  0.44993624  1
  Sb  Sb15  1  0.61063142  0.48013843  0.54750616  1
  Sb  Sb16  1  0.53220790  0.97391414  0.80648951  1
  Sb  Sb17  1  0.46541394  0.02325995  0.18752972  1
  S  S18  1  0.93869728  0.02097182  0.80875856  1
  S  S19  1  0.06737263  0.00579481  0.20793151  1
  S  S20  1  0.41889502  0.97182787  0.98366604  1
  S  S21  1  0.58748992  0.03614448  0.01580000  1
  S  S22  1  0.16555419  0.03781932  0.90139753  1
  S  S23  1  0.82637119  0.00978268  0.10508675  1
  S  S24  1  0.08631827  0.49796213  0.64113014  1
  S  S25  1  0.91406523  0.48105471  0.35084995  1
  S  S26  1  0.73585181  0.01108156  0.29609294  1
  S  S27  1  0.25759940  0.02107718  0.70406723  1
  S  S28  1  0.16788902  0.51339341  0.43751915  1
  S  S29  1  0.80939952  0.50992241  0.53868218  1
  S  S30  1  0.43129254  0.47490195  0.79764466  1
  S  S31  1  0.55315057  0.51344817  0.17983155  1
  S  S32  1  0.92405225  0.50504635  0.99290104  1
  S  S33  1  0.09144665  0.49685645  0.02730845  1
  S  S34  1  0.66729921  0.56107323  0.89894770  1
  S  S35  1  0.32854384  0.46550560  0.09445705  1
  S  S36  1  0.58727075  0.99381440  0.64681000  1
  S  S37  1  0.39538922  0.97662117  0.33379383  1
  S  S38  1  0.24688531  0.47612114  0.31655610  1
  S  S39  1  0.76136305  0.52155704  0.69028511  1
  S  S40  1  0.66244176  0.98329906  0.44248057  1
  S  S41  1  0.32880062  0.97906037  0.55206345  1
