# generated using pymatgen
data_Pr2Mn3(SbS3)4
_symmetry_space_group_name_H-M   'P 1'
_cell_length_a   20.02960800
_cell_length_b   3.90410600
_cell_length_c   14.95364829
_cell_angle_alpha   90.00000000
_cell_angle_beta   126.33350609
_cell_angle_gamma   90.00000000
_symmetry_Int_Tables_number   1
_chemical_formula_structural   Pr2Mn3(SbS3)4
_chemical_formula_sum   'Pr4 Mn6 Sb8 S24'
_cell_volume   942.00006694
_cell_formula_units_Z   2
loop_
 _symmetry_equiv_pos_site_id
 _symmetry_equiv_pos_as_xyz
  1  'x, y, z'
loop_
 _atom_site_type_symbol
 _atom_site_label
 _atom_site_symmetry_multiplicity
 _atom_site_fract_x
 _atom_site_fract_y
 _atom_site_fract_z
 _atom_site_occupancy
  Pr  Pr0  1  0.26593890  0.45547086  0.86776770  1
  Pr  Pr1  1  0.73626355  0.54548822  0.14018885  1
  Pr  Pr2  1  0.77832879  0.98112224  0.87009575  1
  Pr  Pr3  1  0.22982391  0.97743537  0.13053799  1
  Mn  Mn4  1  0.28726394  0.55256907  0.59820980  1
  Mn  Mn5  1  0.70515384  0.50372610  0.39304240  1
  Mn  Mn6  1  0.98747817  0.92298514  0.98534787  1
  Mn  Mn7  1  0.79393186  0.05879138  0.59957026  1
  Mn  Mn8  1  0.18312211  0.00974262  0.38815376  1
  Mn  Mn9  1  0.52266895  0.50429250  0.02374880  1
  Sb  Sb10  1  0.89703188  0.00592224  0.45358561  1
  Sb  Sb11  1  0.11499675  0.99521171  0.55236736  1
  Sb  Sb12  1  0.03023157  0.50805219  0.80716241  1
  Sb  Sb13  1  0.96658019  0.47294778  0.18970435  1
  Sb  Sb14  1  0.40140956  0.50524147  0.46491877  1
  Sb  Sb15  1  0.60208247  0.43439768  0.55013516  1
  Sb  Sb16  1  0.52596189  0.97303333  0.80896293  1
  Sb  Sb17  1  0.46746082  0.98892744  0.18675024  1
  S  S18  1  0.93533927  0.94781425  0.80387827  1
  S  S19  1  0.06427042  0.01095168  0.20179976  1
  S  S20  1  0.42211606  0.95028951  0.98997239  1
  S  S21  1  0.58399537  0.00311890  0.01987719  1
  S  S22  1  0.18221987  0.98993192  0.90115846  1
  S  S23  1  0.83446164  0.00616908  0.10724315  1
  S  S24  1  0.09991924  0.50623934  0.64722488  1
  S  S25  1  0.88985695  0.49080997  0.33463901  1
  S  S26  1  0.73954817  0.00987842  0.32821702  1
  S  S27  1  0.26657290  0.03572328  0.68472863  1
  S  S28  1  0.16460668  0.49445013  0.45219835  1
  S  S29  1  0.84422789  0.54571999  0.56673675  1
  S  S30  1  0.44776165  0.47708374  0.82575311  1
  S  S31  1  0.58132895  0.52406971  0.21320024  1
  S  S32  1  0.91704763  0.46341332  0.98840281  1
  S  S33  1  0.08176666  0.47265031  0.00141488  1
  S  S34  1  0.69282394  0.45988298  0.91608594  1
  S  S35  1  0.35038302  0.45914415  0.10316374  1
  S  S36  1  0.61821568  0.92945092  0.67923952  1
  S  S37  1  0.42328031  0.98173113  0.36891241  1
  S  S38  1  0.25888649  0.48024065  0.28936420  1
  S  S39  1  0.76406046  0.50010493  0.67786962  1
  S  S40  1  0.66795709  0.98739137  0.44413032  1
  S  S41  1  0.31984768  0.04210969  0.52656631  1
