# generated using pymatgen
data_Pr2Mn3(SbS3)4
_symmetry_space_group_name_H-M   'P 1'
_cell_length_a   20.02960800
_cell_length_b   3.90410600
_cell_length_c   14.95364829
_cell_angle_alpha   90.00000000
_cell_angle_beta   126.33350609
_cell_angle_gamma   90.00000000
_symmetry_Int_Tables_number   1
_chemical_formula_structural   Pr2Mn3(SbS3)4
_chemical_formula_sum   'Pr4 Mn6 Sb8 S24'
_cell_volume   942.00006694
_cell_formula_units_Z   2
loop_
 _symmetry_equiv_pos_site_id
 _symmetry_equiv_pos_as_xyz
  1  'x, y, z'
loop_
 _atom_site_type_symbol
 _atom_site_label
 _atom_site_symmetry_multiplicity
 _atom_site_fract_x
 _atom_site_fract_y
 _atom_site_fract_z
 _atom_site_occupancy
  Pr  Pr0  1  0.26580638  0.45538231  0.86760158  1
  Pr  Pr1  1  0.73636243  0.54577238  0.14016913  1
  Pr  Pr2  1  0.77834429  0.98122215  0.87008607  1
  Pr  Pr3  1  0.22983286  0.97803926  0.13042663  1
  Mn  Mn4  1  0.28735876  0.55119906  0.59835176  1
  Mn  Mn5  1  0.70545133  0.50337682  0.39331010  1
  Mn  Mn6  1  0.98756202  0.92218233  0.98567042  1
  Mn  Mn7  1  0.79411390  0.05915053  0.59987063  1
  Mn  Mn8  1  0.18334413  0.00903172  0.38830688  1
  Mn  Mn9  1  0.52281692  0.50550371  0.02390126  1
  Sb  Sb10  1  0.89704677  0.00541625  0.45353246  1
  Sb  Sb11  1  0.11494170  0.99573583  0.55236892  1
  Sb  Sb12  1  0.03029571  0.50812879  0.80713742  1
  Sb  Sb13  1  0.96636322  0.47337451  0.18939101  1
  Sb  Sb14  1  0.40162108  0.50517733  0.46502113  1
  Sb  Sb15  1  0.60223782  0.43490038  0.55015767  1
  Sb  Sb16  1  0.52590416  0.97201078  0.80879390  1
  Sb  Sb17  1  0.46743563  0.98951520  0.18666338  1
  S  S18  1  0.93528188  0.94707150  0.80440344  1
  S  S19  1  0.06439258  0.01104842  0.20201796  1
  S  S20  1  0.42227158  0.94963692  0.99057887  1
  S  S21  1  0.58416226  0.00251519  0.01977100  1
  S  S22  1  0.18242061  0.98964422  0.90164479  1
  S  S23  1  0.83444471  0.00736572  0.10705843  1
  S  S24  1  0.09981805  0.50617307  0.64716045  1
  S  S25  1  0.88981727  0.49090955  0.33429720  1
  S  S26  1  0.73985005  0.01008294  0.32820630  1
  S  S27  1  0.26694691  0.03598394  0.68462211  1
  S  S28  1  0.16485920  0.49498295  0.45231277  1
  S  S29  1  0.84462048  0.54432141  0.56698626  1
  S  S30  1  0.44752321  0.47553267  0.82594108  1
  S  S31  1  0.58133661  0.52362172  0.21335511  1
  S  S32  1  0.91725977  0.46404101  0.98855963  1
  S  S33  1  0.08179396  0.47348403  0.00184398  1
  S  S34  1  0.69285063  0.45984951  0.91632956  1
  S  S35  1  0.35042636  0.46095963  0.10302472  1
  S  S36  1  0.61831150  0.92688652  0.67874685  1
  S  S37  1  0.42363685  0.98055554  0.36955194  1
  S  S38  1  0.25849858  0.48015100  0.28926796  1
  S  S39  1  0.76398181  0.50066477  0.67798108  1
  S  S40  1  0.66800026  0.98779262  0.44418569  1
  S  S41  1  0.32006642  0.04183441  0.52645086  1
