# generated using pymatgen
data_Pr2Mn3(SbS3)4
_symmetry_space_group_name_H-M   'P 1'
_cell_length_a   20.02960800
_cell_length_b   3.90410600
_cell_length_c   14.95364829
_cell_angle_alpha   90.00000000
_cell_angle_beta   126.33350609
_cell_angle_gamma   90.00000000
_symmetry_Int_Tables_number   1
_chemical_formula_structural   Pr2Mn3(SbS3)4
_chemical_formula_sum   'Pr4 Mn6 Sb8 S24'
_cell_volume   942.00006694
_cell_formula_units_Z   2
loop_
 _symmetry_equiv_pos_site_id
 _symmetry_equiv_pos_as_xyz
  1  'x, y, z'
loop_
 _atom_site_type_symbol
 _atom_site_label
 _atom_site_symmetry_multiplicity
 _atom_site_fract_x
 _atom_site_fract_y
 _atom_site_fract_z
 _atom_site_occupancy
  Pr  Pr0  1  0.26563426  0.45542475  0.86746221  1
  Pr  Pr1  1  0.73642834  0.54620090  0.14009780  1
  Pr  Pr2  1  0.77834425  0.98102118  0.87023694  1
  Pr  Pr3  1  0.22980333  0.97838486  0.13036583  1
  Mn  Mn4  1  0.28733714  0.54993329  0.59830912  1
  Mn  Mn5  1  0.70563364  0.50277567  0.39340522  1
  Mn  Mn6  1  0.98773276  0.92187014  0.98593850  1
  Mn  Mn7  1  0.79434002  0.05935333  0.60018105  1
  Mn  Mn8  1  0.18352551  0.00870746  0.38835470  1
  Mn  Mn9  1  0.52304184  0.50627080  0.02405223  1
  Sb  Sb10  1  0.89700788  0.00484866  0.45349715  1
  Sb  Sb11  1  0.11492179  0.99604924  0.55246602  1
  Sb  Sb12  1  0.03031642  0.50845237  0.80711984  1
  Sb  Sb13  1  0.96617403  0.47381600  0.18912910  1
  Sb  Sb14  1  0.40180001  0.50518730  0.46508164  1
  Sb  Sb15  1  0.60240721  0.43547645  0.55025168  1
  Sb  Sb16  1  0.52588888  0.97099095  0.80860412  1
  Sb  Sb17  1  0.46749510  0.98996886  0.18664448  1
  S  S18  1  0.93533981  0.94736108  0.80499123  1
  S  S19  1  0.06444749  0.01111416  0.20234233  1
  S  S20  1  0.42247556  0.94919728  0.99110677  1
  S  S21  1  0.58424243  0.00291234  0.01959873  1
  S  S22  1  0.18261939  0.98848906  0.90195362  1
  S  S23  1  0.83436543  0.00853539  0.10695386  1
  S  S24  1  0.09975042  0.50614638  0.64707328  1
  S  S25  1  0.88980009  0.49150877  0.33392846  1
  S  S26  1  0.74031387  0.01055441  0.32829391  1
  S  S27  1  0.26739784  0.03670277  0.68451330  1
  S  S28  1  0.16500066  0.49508998  0.45236316  1
  S  S29  1  0.84484435  0.54349361  0.56706507  1
  S  S30  1  0.44723097  0.47443568  0.82612635  1
  S  S31  1  0.58138655  0.52354262  0.21355253  1
  S  S32  1  0.91747878  0.46503274  0.98866839  1
  S  S33  1  0.08189793  0.47484006  0.00224884  1
  S  S34  1  0.69281082  0.46026968  0.91647813  1
  S  S35  1  0.35059004  0.46288115  0.10315856  1
  S  S36  1  0.61862748  0.92403257  0.67853897  1
  S  S37  1  0.42380714  0.97898671  0.36999188  1
  S  S38  1  0.25817680  0.47952189  0.28931039  1
  S  S39  1  0.76390174  0.50164852  0.67817046  1
  S  S40  1  0.66807358  0.98832051  0.44429137  1
  S  S41  1  0.32006654  0.04127837  0.52625731  1
