# generated using pymatgen
data_Pr2Mn3(SbS3)4
_symmetry_space_group_name_H-M   'P 1'
_cell_length_a   20.02960800
_cell_length_b   3.90410600
_cell_length_c   14.95364829
_cell_angle_alpha   90.00000000
_cell_angle_beta   126.33350609
_cell_angle_gamma   90.00000000
_symmetry_Int_Tables_number   1
_chemical_formula_structural   Pr2Mn3(SbS3)4
_chemical_formula_sum   'Pr4 Mn6 Sb8 S24'
_cell_volume   942.00006694
_cell_formula_units_Z   2
loop_
 _symmetry_equiv_pos_site_id
 _symmetry_equiv_pos_as_xyz
  1  'x, y, z'
loop_
 _atom_site_type_symbol
 _atom_site_label
 _atom_site_symmetry_multiplicity
 _atom_site_fract_x
 _atom_site_fract_y
 _atom_site_fract_z
 _atom_site_occupancy
  Pr  Pr0  1  0.26547344  0.45537648  0.86731924  1
  Pr  Pr1  1  0.73649765  0.54672987  0.14005033  1
  Pr  Pr2  1  0.77832023  0.98086338  0.87038594  1
  Pr  Pr3  1  0.22978959  0.97829204  0.13022934  1
  Mn  Mn4  1  0.28723476  0.54870912  0.59827080  1
  Mn  Mn5  1  0.70580794  0.50205378  0.39353272  1
  Mn  Mn6  1  0.98781960  0.92124116  0.98614226  1
  Mn  Mn7  1  0.79459302  0.05947977  0.60056621  1
  Mn  Mn8  1  0.18383407  0.00824987  0.38849410  1
  Mn  Mn9  1  0.52320853  0.50712892  0.02411248  1
  Sb  Sb10  1  0.89702507  0.00410523  0.45350755  1
  Sb  Sb11  1  0.11485552  0.99611785  0.55246273  1
  Sb  Sb12  1  0.03032419  0.50870068  0.80714131  1
  Sb  Sb13  1  0.96597845  0.47404293  0.18895856  1
  Sb  Sb14  1  0.40199111  0.50529166  0.46509888  1
  Sb  Sb15  1  0.60254189  0.43604883  0.55026142  1
  Sb  Sb16  1  0.52595988  0.97025939  0.80843318  1
  Sb  Sb17  1  0.46758077  0.99046685  0.18671544  1
  S  S18  1  0.93538082  0.94824557  0.80547643  1
  S  S19  1  0.06442848  0.01108376  0.20258140  1
  S  S20  1  0.42272531  0.94911259  0.99179661  1
  S  S21  1  0.58439150  0.00284891  0.01954677  1
  S  S22  1  0.18298308  0.98636437  0.90225349  1
  S  S23  1  0.83431314  0.00909473  0.10704818  1
  S  S24  1  0.09956197  0.50596396  0.64700770  1
  S  S25  1  0.88983633  0.49207325  0.33364191  1
  S  S26  1  0.74080781  0.01133579  0.32837749  1
  S  S27  1  0.26794142  0.03771918  0.68451380  1
  S  S28  1  0.16528260  0.49536951  0.45262300  1
  S  S29  1  0.84503931  0.54259331  0.56703707  1
  S  S30  1  0.44701748  0.47385690  0.82637260  1
  S  S31  1  0.58140208  0.52336332  0.21352376  1
  S  S32  1  0.91765283  0.46597340  0.98872132  1
  S  S33  1  0.08200346  0.47651249  0.00249474  1
  S  S34  1  0.69280760  0.46013135  0.91662008  1
  S  S35  1  0.35082793  0.46504183  0.10329468  1
  S  S36  1  0.61879959  0.92176425  0.67817292  1
  S  S37  1  0.42392652  0.97791405  0.37031607  1
  S  S38  1  0.25796138  0.47900819  0.28962225  1
  S  S39  1  0.76385608  0.50256930  0.67823569  1
  S  S40  1  0.66801080  0.98971069  0.44423829  1
  S  S41  1  0.32028348  0.04069159  0.52614453  1
