# generated using pymatgen
data_Pr2Mn3(SbS3)4
_symmetry_space_group_name_H-M   'P 1'
_cell_length_a   20.02960800
_cell_length_b   3.90410600
_cell_length_c   14.95364829
_cell_angle_alpha   90.00000000
_cell_angle_beta   126.33350609
_cell_angle_gamma   90.00000000
_symmetry_Int_Tables_number   1
_chemical_formula_structural   Pr2Mn3(SbS3)4
_chemical_formula_sum   'Pr4 Mn6 Sb8 S24'
_cell_volume   942.00006694
_cell_formula_units_Z   2
loop_
 _symmetry_equiv_pos_site_id
 _symmetry_equiv_pos_as_xyz
  1  'x, y, z'
loop_
 _atom_site_type_symbol
 _atom_site_label
 _atom_site_symmetry_multiplicity
 _atom_site_fract_x
 _atom_site_fract_y
 _atom_site_fract_z
 _atom_site_occupancy
  Pr  Pr0  1  0.26531861  0.45538623  0.86719425  1
  Pr  Pr1  1  0.73645882  0.54708392  0.13989330  1
  Pr  Pr2  1  0.77831162  0.98058679  0.87059184  1
  Pr  Pr3  1  0.22971892  0.97828776  0.13005235  1
  Mn  Mn4  1  0.28719099  0.54791296  0.59828222  1
  Mn  Mn5  1  0.70603649  0.50122471  0.39365015  1
  Mn  Mn6  1  0.98783087  0.92103529  0.98627365  1
  Mn  Mn7  1  0.79471435  0.05944258  0.60087552  1
  Mn  Mn8  1  0.18412912  0.00800184  0.38873330  1
  Mn  Mn9  1  0.52333597  0.50822390  0.02406580  1
  Sb  Sb10  1  0.89698225  0.00357425  0.45354188  1
  Sb  Sb11  1  0.11484985  0.99654480  0.55246165  1
  Sb  Sb12  1  0.03038415  0.50916924  0.80725187  1
  Sb  Sb13  1  0.96572289  0.47414584  0.18880318  1
  Sb  Sb14  1  0.40222927  0.50563343  0.46516209  1
  Sb  Sb15  1  0.60268547  0.43648684  0.55037004  1
  Sb  Sb16  1  0.52599761  0.96944353  0.80829821  1
  Sb  Sb17  1  0.46772646  0.99058782  0.18681621  1
  S  S18  1  0.93538542  0.94973201  0.80596119  1
  S  S19  1  0.06462635  0.01065467  0.20266554  1
  S  S20  1  0.42285833  0.94917748  0.99239536  1
  S  S21  1  0.58453126  0.00260451  0.01943718  1
  S  S22  1  0.18337668  0.98400694  0.90259255  1
  S  S23  1  0.83427561  0.00933657  0.10710481  1
  S  S24  1  0.09930967  0.50534229  0.64702441  1
  S  S25  1  0.88988780  0.49280260  0.33347805  1
  S  S26  1  0.74138960  0.01228093  0.32864346  1
  S  S27  1  0.26847511  0.03812002  0.68461520  1
  S  S28  1  0.16560610  0.49600491  0.45304860  1
  S  S29  1  0.84509276  0.54150068  0.56683455  1
  S  S30  1  0.44698677  0.47330440  0.82671433  1
  S  S31  1  0.58140742  0.52328824  0.21348217  1
  S  S32  1  0.91786940  0.46615684  0.98887445  1
  S  S33  1  0.08206043  0.47819728  0.00257400  1
  S  S34  1  0.69289716  0.46083167  0.91684835  1
  S  S35  1  0.35130225  0.46707883  0.10359137  1
  S  S36  1  0.61900753  0.91953653  0.67784010  1
  S  S37  1  0.42405014  0.97665454  0.37069560  1
  S  S38  1  0.25779108  0.47818431  0.28980036  1
  S  S39  1  0.76375916  0.50304938  0.67800735  1
  S  S40  1  0.66788003  0.99111900  0.44419354  1
  S  S41  1  0.32047568  0.04055756  0.52606798  1
