# generated using pymatgen
data_Pr2Mn3(SbS3)4
_symmetry_space_group_name_H-M   'P 1'
_cell_length_a   20.02960800
_cell_length_b   3.90410600
_cell_length_c   14.95364829
_cell_angle_alpha   90.00000000
_cell_angle_beta   126.33350609
_cell_angle_gamma   90.00000000
_symmetry_Int_Tables_number   1
_chemical_formula_structural   Pr2Mn3(SbS3)4
_chemical_formula_sum   'Pr4 Mn6 Sb8 S24'
_cell_volume   942.00006694
_cell_formula_units_Z   2
loop_
 _symmetry_equiv_pos_site_id
 _symmetry_equiv_pos_as_xyz
  1  'x, y, z'
loop_
 _atom_site_type_symbol
 _atom_site_label
 _atom_site_symmetry_multiplicity
 _atom_site_fract_x
 _atom_site_fract_y
 _atom_site_fract_z
 _atom_site_occupancy
  Pr  Pr0  1  0.26515215  0.45552475  0.86702013  1
  Pr  Pr1  1  0.73635733  0.54768953  0.13968625  1
  Pr  Pr2  1  0.77836387  0.98033301  0.87082191  1
  Pr  Pr3  1  0.22967767  0.97849800  0.12984813  1
  Mn  Mn4  1  0.28723078  0.54801713  0.59829954  1
  Mn  Mn5  1  0.70615898  0.50053507  0.39370018  1
  Mn  Mn6  1  0.98795331  0.92053693  0.98638346  1
  Mn  Mn7  1  0.79479412  0.05927868  0.60118982  1
  Mn  Mn8  1  0.18433046  0.00773096  0.38895229  1
  Mn  Mn9  1  0.52337634  0.50911007  0.02413367  1
  Sb  Sb10  1  0.89689113  0.00303710  0.45362265  1
  Sb  Sb11  1  0.11487459  0.99697324  0.55246969  1
  Sb  Sb12  1  0.03036449  0.50949783  0.80740774  1
  Sb  Sb13  1  0.96551000  0.47427792  0.18876341  1
  Sb  Sb14  1  0.40240840  0.50618551  0.46523826  1
  Sb  Sb15  1  0.60284820  0.43685629  0.55051431  1
  Sb  Sb16  1  0.52599026  0.96884579  0.80818502  1
  Sb  Sb17  1  0.46788000  0.99086141  0.18690112  1
  S  S18  1  0.93553275  0.95115715  0.80649295  1
  S  S19  1  0.06483897  0.01021018  0.20263388  1
  S  S20  1  0.42297136  0.94891699  0.99288309  1
  S  S21  1  0.58466731  0.00279398  0.01949173  1
  S  S22  1  0.18371343  0.98144674  0.90285266  1
  S  S23  1  0.83434491  0.00944509  0.10737150  1
  S  S24  1  0.09880858  0.50547046  0.64690485  1
  S  S25  1  0.88995440  0.49369679  0.33331037  1
  S  S26  1  0.74185218  0.01323574  0.32878595  1
  S  S27  1  0.26889897  0.03914916  0.68494041  1
  S  S28  1  0.16569806  0.49631382  0.45324856  1
  S  S29  1  0.84510486  0.54093830  0.56651338  1
  S  S30  1  0.44690430  0.47235389  0.82699061  1
  S  S31  1  0.58136791  0.52332399  0.21338392  1
  S  S32  1  0.91806732  0.46620320  0.98912369  1
  S  S33  1  0.08202049  0.47949159  0.00248683  1
  S  S34  1  0.69284500  0.46106638  0.91695265  1
  S  S35  1  0.35174489  0.46818436  0.10385560  1
  S  S36  1  0.61920573  0.91790167  0.67758293  1
  S  S37  1  0.42422574  0.97532968  0.37105062  1
  S  S38  1  0.25763281  0.47776051  0.28999423  1
  S  S39  1  0.76362727  0.50328455  0.67761718  1
  S  S40  1  0.66789616  0.99257120  0.44422478  1
  S  S41  1  0.32082370  0.04039823  0.52625854  1
