# generated using pymatgen
data_Pr2Mn3(SbS3)4
_symmetry_space_group_name_H-M   'P 1'
_cell_length_a   20.02960800
_cell_length_b   3.90410600
_cell_length_c   14.95364829
_cell_angle_alpha   90.00000000
_cell_angle_beta   126.33350609
_cell_angle_gamma   90.00000000
_symmetry_Int_Tables_number   1
_chemical_formula_structural   Pr2Mn3(SbS3)4
_chemical_formula_sum   'Pr4 Mn6 Sb8 S24'
_cell_volume   942.00006694
_cell_formula_units_Z   2
loop_
 _symmetry_equiv_pos_site_id
 _symmetry_equiv_pos_as_xyz
  1  'x, y, z'
loop_
 _atom_site_type_symbol
 _atom_site_label
 _atom_site_symmetry_multiplicity
 _atom_site_fract_x
 _atom_site_fract_y
 _atom_site_fract_z
 _atom_site_occupancy
  Pr  Pr0  1  0.26509646  0.45565782  0.86693444  1
  Pr  Pr1  1  0.73625590  0.54837965  0.13948481  1
  Pr  Pr2  1  0.77839525  0.98001944  0.87098979  1
  Pr  Pr3  1  0.22959289  0.97881360  0.12962948  1
  Mn  Mn4  1  0.28724788  0.54781311  0.59830116  1
  Mn  Mn5  1  0.70621672  0.50016441  0.39373639  1
  Mn  Mn6  1  0.98826642  0.92049501  0.98667101  1
  Mn  Mn7  1  0.79490962  0.05916943  0.60140096  1
  Mn  Mn8  1  0.18448306  0.00735416  0.38924546  1
  Mn  Mn9  1  0.52344177  0.50988176  0.02417143  1
  Sb  Sb10  1  0.89682458  0.00241137  0.45375180  1
  Sb  Sb11  1  0.11490353  0.99732028  0.55243825  1
  Sb  Sb12  1  0.03034624  0.50964167  0.80750524  1
  Sb  Sb13  1  0.96530791  0.47453145  0.18880638  1
  Sb  Sb14  1  0.40253055  0.50643474  0.46517695  1
  Sb  Sb15  1  0.60290736  0.43718058  0.55054222  1
  Sb  Sb16  1  0.52596148  0.96850150  0.80800283  1
  Sb  Sb17  1  0.46809402  0.99107157  0.18711251  1
  S  S18  1  0.93554183  0.95253630  0.80687398  1
  S  S19  1  0.06497074  0.00976550  0.20247050  1
  S  S20  1  0.42307032  0.94849190  0.99320475  1
  S  S21  1  0.58491999  0.00303333  0.01956952  1
  S  S22  1  0.18418222  0.97935266  0.90308623  1
  S  S23  1  0.83438767  0.00934787  0.10764203  1
  S  S24  1  0.09831764  0.50600161  0.64692821  1
  S  S25  1  0.89001579  0.49430782  0.33321118  1
  S  S26  1  0.74227074  0.01494817  0.32888865  1
  S  S27  1  0.26937545  0.04004680  0.68532003  1
  S  S28  1  0.16587456  0.49686063  0.45359245  1
  S  S29  1  0.84507795  0.53983767  0.56620037  1
  S  S30  1  0.44685873  0.47189970  0.82727473  1
  S  S31  1  0.58155014  0.52375017  0.21330231  1
  S  S32  1  0.91813754  0.46634297  0.98905870  1
  S  S33  1  0.08204285  0.48037705  0.00248573  1
  S  S34  1  0.69279038  0.46110014  0.91711570  1
  S  S35  1  0.35232631  0.46902611  0.10434528  1
  S  S36  1  0.61947442  0.91636026  0.67737628  1
  S  S37  1  0.42432711  0.97437379  0.37144239  1
  S  S38  1  0.25746719  0.47744023  0.29015440  1
  S  S39  1  0.76354677  0.50340252  0.67739919  1
  S  S40  1  0.66797194  0.99420989  0.44443814  1
  S  S41  1  0.32114418  0.04021689  0.52636949  1
