# generated using pymatgen
data_Pr2Mn3(SbS3)4
_symmetry_space_group_name_H-M   'P 1'
_cell_length_a   20.02960800
_cell_length_b   3.90410600
_cell_length_c   14.95364829
_cell_angle_alpha   90.00000000
_cell_angle_beta   126.33350609
_cell_angle_gamma   90.00000000
_symmetry_Int_Tables_number   1
_chemical_formula_structural   Pr2Mn3(SbS3)4
_chemical_formula_sum   'Pr4 Mn6 Sb8 S24'
_cell_volume   942.00006694
_cell_formula_units_Z   2
loop_
 _symmetry_equiv_pos_site_id
 _symmetry_equiv_pos_as_xyz
  1  'x, y, z'
loop_
 _atom_site_type_symbol
 _atom_site_label
 _atom_site_symmetry_multiplicity
 _atom_site_fract_x
 _atom_site_fract_y
 _atom_site_fract_z
 _atom_site_occupancy
  Pr  Pr0  1  0.26509191  0.45583081  0.86689381  1
  Pr  Pr1  1  0.73618997  0.54889022  0.13936436  1
  Pr  Pr2  1  0.77842578  0.97993339  0.87109101  1
  Pr  Pr3  1  0.22953704  0.97916237  0.12945827  1
  Mn  Mn4  1  0.28732701  0.54832925  0.59823347  1
  Mn  Mn5  1  0.70628929  0.49991421  0.39381711  1
  Mn  Mn6  1  0.98849523  0.92033897  0.98685395  1
  Mn  Mn7  1  0.79498826  0.05884558  0.60156055  1
  Mn  Mn8  1  0.18467533  0.00712529  0.38951114  1
  Mn  Mn9  1  0.52356845  0.51082733  0.02415325  1
  Sb  Sb10  1  0.89679948  0.00212097  0.45387388  1
  Sb  Sb11  1  0.11486785  0.99769520  0.55232136  1
  Sb  Sb12  1  0.03034693  0.51000976  0.80753494  1
  Sb  Sb13  1  0.96506091  0.47518240  0.18874349  1
  Sb  Sb14  1  0.40265416  0.50649726  0.46510078  1
  Sb  Sb15  1  0.60303018  0.43745004  0.55063577  1
  Sb  Sb16  1  0.52593049  0.96845285  0.80792036  1
  Sb  Sb17  1  0.46829023  0.99152321  0.18734464  1
  S  S18  1  0.93559094  0.95399184  0.80719037  1
  S  S19  1  0.06501363  0.00963854  0.20224911  1
  S  S20  1  0.42308698  0.94772538  0.99341604  1
  S  S21  1  0.58505133  0.00347991  0.01959318  1
  S  S22  1  0.18458706  0.97740364  0.90344555  1
  S  S23  1  0.83449284  0.00899226  0.10805215  1
  S  S24  1  0.09786584  0.50699509  0.64699980  1
  S  S25  1  0.88983263  0.49417697  0.33279652  1
  S  S26  1  0.74252341  0.01672941  0.32885800  1
  S  S27  1  0.26980756  0.04045780  0.68560872  1
  S  S28  1  0.16605121  0.49708429  0.45400471  1
  S  S29  1  0.84516220  0.53914492  0.56594716  1
  S  S30  1  0.44687957  0.47175710  0.82743035  1
  S  S31  1  0.58170670  0.52445778  0.21320286  1
  S  S32  1  0.91815434  0.46639349  0.98894527  1
  S  S33  1  0.08217996  0.48130752  0.00253594  1
  S  S34  1  0.69269907  0.46145081  0.91720497  1
  S  S35  1  0.35279909  0.46975010  0.10484538  1
  S  S36  1  0.61976027  0.91532933  0.67740697  1
  S  S37  1  0.42450787  0.97337853  0.37189305  1
  S  S38  1  0.25732955  0.47798827  0.29038064  1
  S  S39  1  0.76351108  0.50342930  0.67738002  1
  S  S40  1  0.66793603  0.99545606  0.44451644  1
  S  S41  1  0.32145683  0.04005427  0.52654786  1
