# generated using pymatgen
data_Pr2Mn3(SbS3)4
_symmetry_space_group_name_H-M   'P 1'
_cell_length_a   20.02960800
_cell_length_b   3.90410600
_cell_length_c   14.95364829
_cell_angle_alpha   90.00000000
_cell_angle_beta   126.33350609
_cell_angle_gamma   90.00000000
_symmetry_Int_Tables_number   1
_chemical_formula_structural   Pr2Mn3(SbS3)4
_chemical_formula_sum   'Pr4 Mn6 Sb8 S24'
_cell_volume   942.00006694
_cell_formula_units_Z   2
loop_
 _symmetry_equiv_pos_site_id
 _symmetry_equiv_pos_as_xyz
  1  'x, y, z'
loop_
 _atom_site_type_symbol
 _atom_site_label
 _atom_site_symmetry_multiplicity
 _atom_site_fract_x
 _atom_site_fract_y
 _atom_site_fract_z
 _atom_site_occupancy
  Pr  Pr0  1  0.26507136  0.45587089  0.86686041  1
  Pr  Pr1  1  0.73609933  0.54921131  0.13930572  1
  Pr  Pr2  1  0.77843729  0.97986832  0.87116760  1
  Pr  Pr3  1  0.22948352  0.97970594  0.12935524  1
  Mn  Mn4  1  0.28755592  0.54850155  0.59827222  1
  Mn  Mn5  1  0.70641914  0.49994943  0.39384148  1
  Mn  Mn6  1  0.98864118  0.92040822  0.98694928  1
  Mn  Mn7  1  0.79515894  0.05848114  0.60175776  1
  Mn  Mn8  1  0.18492014  0.00672392  0.38974696  1
  Mn  Mn9  1  0.52385324  0.51159145  0.02421670  1
  Sb  Sb10  1  0.89680809  0.00185324  0.45405936  1
  Sb  Sb11  1  0.11483207  0.99816710  0.55226449  1
  Sb  Sb12  1  0.03030008  0.51007464  0.80756931  1
  Sb  Sb13  1  0.96475133  0.47600129  0.18858068  1
  Sb  Sb14  1  0.40279387  0.50671819  0.46502194  1
  Sb  Sb15  1  0.60315578  0.43741256  0.55072705  1
  Sb  Sb16  1  0.52589272  0.96866972  0.80782187  1
  Sb  Sb17  1  0.46845623  0.99193636  0.18755885  1
  S  S18  1  0.93572368  0.95469009  0.80771656  1
  S  S19  1  0.06527947  0.00924130  0.20239282  1
  S  S20  1  0.42304927  0.94696740  0.99364825  1
  S  S21  1  0.58515790  0.00424812  0.01967718  1
  S  S22  1  0.18499688  0.97470835  0.90375393  1
  S  S23  1  0.83462306  0.00841631  0.10842498  1
  S  S24  1  0.09746918  0.50759525  0.64718558  1
  S  S25  1  0.88981655  0.49479331  0.33248584  1
  S  S26  1  0.74266284  0.01834770  0.32895453  1
  S  S27  1  0.27021094  0.04062899  0.68573507  1
  S  S28  1  0.16637271  0.49721764  0.45441574  1
  S  S29  1  0.84533076  0.53925196  0.56601791  1
  S  S30  1  0.44708803  0.47124091  0.82782419  1
  S  S31  1  0.58181860  0.52508022  0.21304059  1
  S  S32  1  0.91815364  0.46654724  0.98890012  1
  S  S33  1  0.08229487  0.48216333  0.00257542  1
  S  S34  1  0.69251665  0.46192053  0.91742921  1
  S  S35  1  0.35316486  0.47014621  0.10518202  1
  S  S36  1  0.61996863  0.91451670  0.67746385  1
  S  S37  1  0.42481882  0.97167817  0.37242222  1
  S  S38  1  0.25716885  0.47895785  0.29067674  1
  S  S39  1  0.76334730  0.50330806  0.67723920  1
  S  S40  1  0.66777793  0.99583488  0.44457821  1
  S  S41  1  0.32175498  0.03975001  0.52681699  1
