# generated using pymatgen
data_Pr2Mn3(SbS3)4
_symmetry_space_group_name_H-M   'P 1'
_cell_length_a   20.02960800
_cell_length_b   3.90410600
_cell_length_c   14.95364829
_cell_angle_alpha   90.00000000
_cell_angle_beta   126.33350609
_cell_angle_gamma   90.00000000
_symmetry_Int_Tables_number   1
_chemical_formula_structural   Pr2Mn3(SbS3)4
_chemical_formula_sum   'Pr4 Mn6 Sb8 S24'
_cell_volume   942.00006694
_cell_formula_units_Z   2
loop_
 _symmetry_equiv_pos_site_id
 _symmetry_equiv_pos_as_xyz
  1  'x, y, z'
loop_
 _atom_site_type_symbol
 _atom_site_label
 _atom_site_symmetry_multiplicity
 _atom_site_fract_x
 _atom_site_fract_y
 _atom_site_fract_z
 _atom_site_occupancy
  Pr  Pr0  1  0.26509519  0.45567225  0.86680379  1
  Pr  Pr1  1  0.73606485  0.54946798  0.13925285  1
  Pr  Pr2  1  0.77849199  0.97975031  0.87119577  1
  Pr  Pr3  1  0.22948003  0.98010973  0.12931482  1
  Mn  Mn4  1  0.28780386  0.54867650  0.59833268  1
  Mn  Mn5  1  0.70650926  0.50030187  0.39381758  1
  Mn  Mn6  1  0.98878858  0.92031001  0.98693340  1
  Mn  Mn7  1  0.79530723  0.05798280  0.60195847  1
  Mn  Mn8  1  0.18508925  0.00579581  0.38990550  1
  Mn  Mn9  1  0.52414616  0.51248661  0.02419899  1
  Sb  Sb10  1  0.89685794  0.00184146  0.45433039  1
  Sb  Sb11  1  0.11476469  0.99821819  0.55226244  1
  Sb  Sb12  1  0.03025437  0.51004360  0.80757873  1
  Sb  Sb13  1  0.96449385  0.47699441  0.18844497  1
  Sb  Sb14  1  0.40286206  0.50652292  0.46501376  1
  Sb  Sb15  1  0.60324215  0.43724039  0.55073985  1
  Sb  Sb16  1  0.52586799  0.96856394  0.80770390  1
  Sb  Sb17  1  0.46869936  0.99240434  0.18783665  1
  S  S18  1  0.93578421  0.95508689  0.80818012  1
  S  S19  1  0.06558078  0.00929793  0.20268040  1
  S  S20  1  0.42310947  0.94627393  0.99393087  1
  S  S21  1  0.58540160  0.00385199  0.01969742  1
  S  S22  1  0.18531707  0.97253516  0.90408008  1
  S  S23  1  0.83457685  0.00849940  0.10853931  1
  S  S24  1  0.09703561  0.50817814  0.64722814  1
  S  S25  1  0.88980831  0.49509106  0.33230282  1
  S  S26  1  0.74277712  0.01975838  0.32900872  1
  S  S27  1  0.27069391  0.04092443  0.68605255  1
  S  S28  1  0.16666677  0.49772443  0.45490040  1
  S  S29  1  0.84530027  0.53912820  0.56600782  1
  S  S30  1  0.44739810  0.47065461  0.82831767  1
  S  S31  1  0.58201216  0.52592952  0.21301963  1
  S  S32  1  0.91816911  0.46639533  0.98881656  1
  S  S33  1  0.08238321  0.48253412  0.00255177  1
  S  S34  1  0.69238714  0.46195720  0.91775466  1
  S  S35  1  0.35347355  0.47095922  0.10556006  1
  S  S36  1  0.62004708  0.91355214  0.67764203  1
  S  S37  1  0.42515993  0.97052648  0.37302707  1
  S  S38  1  0.25700612  0.48023867  0.29093378  1
  S  S39  1  0.76317687  0.50261468  0.67720294  1
  S  S40  1  0.66777463  0.99605854  0.44470618  1
  S  S41  1  0.32193820  0.03999462  0.52688630  1
