# generated using pymatgen
data_Pr2Mn3(SbS3)4
_symmetry_space_group_name_H-M   'P 1'
_cell_length_a   20.02960800
_cell_length_b   3.90410600
_cell_length_c   14.95364829
_cell_angle_alpha   90.00000000
_cell_angle_beta   126.33350609
_cell_angle_gamma   90.00000000
_symmetry_Int_Tables_number   1
_chemical_formula_structural   Pr2Mn3(SbS3)4
_chemical_formula_sum   'Pr4 Mn6 Sb8 S24'
_cell_volume   942.00006694
_cell_formula_units_Z   2
loop_
 _symmetry_equiv_pos_site_id
 _symmetry_equiv_pos_as_xyz
  1  'x, y, z'
loop_
 _atom_site_type_symbol
 _atom_site_label
 _atom_site_symmetry_multiplicity
 _atom_site_fract_x
 _atom_site_fract_y
 _atom_site_fract_z
 _atom_site_occupancy
  Pr  Pr0  1  0.26950177  0.50358911  0.86738724  1
  Pr  Pr1  1  0.73359310  0.51364556  0.13414503  1
  Pr  Pr2  1  0.76514325  0.03007971  0.86854686  1
  Pr  Pr3  1  0.23099119  0.98775008  0.13121731  1
  Mn  Mn4  1  0.30108403  0.46613946  0.60813796  1
  Mn  Mn5  1  0.68560705  0.46723997  0.36361675  1
  Mn  Mn6  1  0.00263436  0.99229275  0.01027367  1
  Mn  Mn7  1  0.79365828  0.02307426  0.61508653  1
  Mn  Mn8  1  0.19336347  0.99967124  0.36501068  1
  Mn  Mn9  1  0.48286567  0.47290778  0.98203158  1
  Sb  Sb10  1  0.88949916  0.98609056  0.44771187  1
  Sb  Sb11  1  0.11030624  0.98009551  0.54623010  1
  Sb  Sb12  1  0.03471637  0.53031852  0.82139320  1
  Sb  Sb13  1  0.96694206  0.49613026  0.19003471  1
  Sb  Sb14  1  0.39468927  0.49834702  0.45003584  1
  Sb  Sb15  1  0.61068476  0.48011995  0.54750886  1
  Sb  Sb16  1  0.53209878  0.97371180  0.80638307  1
  Sb  Sb17  1  0.46556133  0.02331695  0.18750164  1
  S  S18  1  0.93894529  0.02126918  0.80860653  1
  S  S19  1  0.06731291  0.00565170  0.20813063  1
  S  S20  1  0.41900724  0.97153074  0.98328384  1
  S  S21  1  0.58744554  0.03487324  0.01562673  1
  S  S22  1  0.16528516  0.03740072  0.90123122  1
  S  S23  1  0.82626492  0.00840523  0.10501909  1
  S  S24  1  0.08628939  0.49817317  0.64087212  1
  S  S25  1  0.91425262  0.48176582  0.35111413  1
  S  S26  1  0.73567767  0.01177423  0.29599629  1
  S  S27  1  0.25780076  0.02075763  0.70426314  1
  S  S28  1  0.16778229  0.51391966  0.43742987  1
  S  S29  1  0.80945054  0.51053967  0.53880062  1
  S  S30  1  0.43151600  0.47539675  0.79815235  1
  S  S31  1  0.55326063  0.51269692  0.18003160  1
  S  S32  1  0.92402016  0.50563947  0.99264380  1
  S  S33  1  0.09144131  0.49655547  0.02717491  1
  S  S34  1  0.66745826  0.56085490  0.89878752  1
  S  S35  1  0.32843723  0.46473373  0.09457553  1
  S  S36  1  0.58754025  0.99487213  0.64706068  1
  S  S37  1  0.39546567  0.97773454  0.33369478  1
  S  S38  1  0.24690614  0.47569679  0.31656311  1
  S  S39  1  0.76166300  0.51996443  0.69058771  1
  S  S40  1  0.66208730  0.98365606  0.44198011  1
  S  S41  1  0.32886643  0.97859167  0.55184630  1
