# generated using pymatgen
data_Pr2Mn3(SbS3)4
_symmetry_space_group_name_H-M   'P 1'
_cell_length_a   20.02960800
_cell_length_b   3.90410600
_cell_length_c   14.95364829
_cell_angle_alpha   90.00000000
_cell_angle_beta   126.33350609
_cell_angle_gamma   90.00000000
_symmetry_Int_Tables_number   1
_chemical_formula_structural   Pr2Mn3(SbS3)4
_chemical_formula_sum   'Pr4 Mn6 Sb8 S24'
_cell_volume   942.00006694
_cell_formula_units_Z   2
loop_
 _symmetry_equiv_pos_site_id
 _symmetry_equiv_pos_as_xyz
  1  'x, y, z'
loop_
 _atom_site_type_symbol
 _atom_site_label
 _atom_site_symmetry_multiplicity
 _atom_site_fract_x
 _atom_site_fract_y
 _atom_site_fract_z
 _atom_site_occupancy
  Pr  Pr0  1  0.26514964  0.45516314  0.86683780  1
  Pr  Pr1  1  0.73610135  0.54951038  0.13924779  1
  Pr  Pr2  1  0.77851641  0.97930617  0.87124169  1
  Pr  Pr3  1  0.22945604  0.98030645  0.12923227  1
  Mn  Mn4  1  0.28803519  0.54896126  0.59819358  1
  Mn  Mn5  1  0.70652088  0.50169635  0.39363737  1
  Mn  Mn6  1  0.98882850  0.92036057  0.98697517  1
  Mn  Mn7  1  0.79550361  0.05758620  0.60220282  1
  Mn  Mn8  1  0.18527643  0.00518913  0.39012059  1
  Mn  Mn9  1  0.52435311  0.51330619  0.02409383  1
  Sb  Sb10  1  0.89691279  0.00210688  0.45458058  1
  Sb  Sb11  1  0.11459523  0.99846658  0.55215389  1
  Sb  Sb12  1  0.03029896  0.50996668  0.80777589  1
  Sb  Sb13  1  0.96429267  0.47782913  0.18827153  1
  Sb  Sb14  1  0.40298025  0.50650779  0.46499333  1
  Sb  Sb15  1  0.60341408  0.43726803  0.55082918  1
  Sb  Sb16  1  0.52574125  0.96868197  0.80747306  1
  Sb  Sb17  1  0.46883898  0.99259631  0.18794114  1
  S  S18  1  0.93591080  0.95550417  0.80863175  1
  S  S19  1  0.06568340  0.00899111  0.20271717  1
  S  S20  1  0.42311396  0.94653879  0.99416760  1
  S  S21  1  0.58572771  0.00337035  0.01982610  1
  S  S22  1  0.18573862  0.97073077  0.90459148  1
  S  S23  1  0.83461774  0.00859517  0.10877338  1
  S  S24  1  0.09663935  0.50935819  0.64726616  1
  S  S25  1  0.88968764  0.49576816  0.33222627  1
  S  S26  1  0.74290396  0.02057164  0.32911155  1
  S  S27  1  0.27124645  0.04029452  0.68653539  1
  S  S28  1  0.16703562  0.49815413  0.45553484  1
  S  S29  1  0.84526979  0.53876605  0.56611759  1
  S  S30  1  0.44776786  0.46995605  0.82867708  1
  S  S31  1  0.58220100  0.52661059  0.21319299  1
  S  S32  1  0.91822693  0.46682138  0.98873232  1
  S  S33  1  0.08228645  0.48257657  0.00247916  1
  S  S34  1  0.69228151  0.46247823  0.91818979  1
  S  S35  1  0.35385377  0.47214133  0.10621749  1
  S  S36  1  0.62010373  0.91264972  0.67782855  1
  S  S37  1  0.42543842  0.96908784  0.37364166  1
  S  S38  1  0.25685170  0.48093564  0.29126649  1
  S  S39  1  0.76286843  0.50222474  0.67705699  1
  S  S40  1  0.66793278  0.99684828  0.44501603  1
  S  S41  1  0.32207203  0.03970487  0.52680437  1
