# generated using pymatgen
data_Pr2Mn3(SbS3)4
_symmetry_space_group_name_H-M   'P 1'
_cell_length_a   20.02960800
_cell_length_b   3.90410600
_cell_length_c   14.95364829
_cell_angle_alpha   90.00000000
_cell_angle_beta   126.33350609
_cell_angle_gamma   90.00000000
_symmetry_Int_Tables_number   1
_chemical_formula_structural   Pr2Mn3(SbS3)4
_chemical_formula_sum   'Pr4 Mn6 Sb8 S24'
_cell_volume   942.00006694
_cell_formula_units_Z   2
loop_
 _symmetry_equiv_pos_site_id
 _symmetry_equiv_pos_as_xyz
  1  'x, y, z'
loop_
 _atom_site_type_symbol
 _atom_site_label
 _atom_site_symmetry_multiplicity
 _atom_site_fract_x
 _atom_site_fract_y
 _atom_site_fract_z
 _atom_site_occupancy
  Pr  Pr0  1  0.26522139  0.45504122  0.86684159  1
  Pr  Pr1  1  0.73610555  0.54984748  0.13914087  1
  Pr  Pr2  1  0.77856198  0.97913042  0.87133715  1
  Pr  Pr3  1  0.22940893  0.98051379  0.12919763  1
  Mn  Mn4  1  0.28825598  0.54855342  0.59809432  1
  Mn  Mn5  1  0.70652112  0.50316090  0.39337799  1
  Mn  Mn6  1  0.98889898  0.92022289  0.98698903  1
  Mn  Mn7  1  0.79571851  0.05672739  0.60254922  1
  Mn  Mn8  1  0.18537123  0.00442560  0.39031797  1
  Mn  Mn9  1  0.52461856  0.51425705  0.02416664  1
  Sb  Sb10  1  0.89696708  0.00238563  0.45479981  1
  Sb  Sb11  1  0.11452274  0.99871703  0.55210324  1
  Sb  Sb12  1  0.03025717  0.50996143  0.80779659  1
  Sb  Sb13  1  0.96411827  0.47888549  0.18815133  1
  Sb  Sb14  1  0.40305849  0.50652050  0.46496920  1
  Sb  Sb15  1  0.60361547  0.43702910  0.55095380  1
  Sb  Sb16  1  0.52567237  0.96874159  0.80735961  1
  Sb  Sb17  1  0.46898745  0.99277136  0.18803430  1
  S  S18  1  0.93596450  0.95564828  0.80916016  1
  S  S19  1  0.06578718  0.00852422  0.20273573  1
  S  S20  1  0.42317330  0.94656655  0.99449333  1
  S  S21  1  0.58600087  0.00224419  0.01979845  1
  S  S22  1  0.18607488  0.96893001  0.90506928  1
  S  S23  1  0.83463383  0.00817388  0.10873305  1
  S  S24  1  0.09625889  0.51069731  0.64725979  1
  S  S25  1  0.88963956  0.49620285  0.33204696  1
  S  S26  1  0.74315356  0.02110025  0.32920737  1
  S  S27  1  0.27171173  0.03923743  0.68690284  1
  S  S28  1  0.16738269  0.49819125  0.45607190  1
  S  S29  1  0.84507906  0.53847740  0.56606417  1
  S  S30  1  0.44804387  0.46927324  0.82902381  1
  S  S31  1  0.58237348  0.52714801  0.21341674  1
  S  S32  1  0.91817065  0.46666119  0.98850675  1
  S  S33  1  0.08210705  0.48304252  0.00238712  1
  S  S34  1  0.69202927  0.46333024  0.91859076  1
  S  S35  1  0.35432545  0.47355968  0.10696654  1
  S  S36  1  0.62025858  0.91219425  0.67807912  1
  S  S37  1  0.42570942  0.96793828  0.37425392  1
  S  S38  1  0.25670551  0.48147385  0.29166575  1
  S  S39  1  0.76265657  0.50222794  0.67709604  1
  S  S40  1  0.66822020  0.99712678  0.44546235  1
  S  S41  1  0.32216567  0.03978992  0.52685463  1
