# generated using pymatgen
data_Pr2Mn3(SbS3)4
_symmetry_space_group_name_H-M   'P 1'
_cell_length_a   20.02960800
_cell_length_b   3.90410600
_cell_length_c   14.95364829
_cell_angle_alpha   90.00000000
_cell_angle_beta   126.33350609
_cell_angle_gamma   90.00000000
_symmetry_Int_Tables_number   1
_chemical_formula_structural   Pr2Mn3(SbS3)4
_chemical_formula_sum   'Pr4 Mn6 Sb8 S24'
_cell_volume   942.00006694
_cell_formula_units_Z   2
loop_
 _symmetry_equiv_pos_site_id
 _symmetry_equiv_pos_as_xyz
  1  'x, y, z'
loop_
 _atom_site_type_symbol
 _atom_site_label
 _atom_site_symmetry_multiplicity
 _atom_site_fract_x
 _atom_site_fract_y
 _atom_site_fract_z
 _atom_site_occupancy
  Pr  Pr0  1  0.26529554  0.45523675  0.86683069  1
  Pr  Pr1  1  0.73611132  0.55011775  0.13899594  1
  Pr  Pr2  1  0.77863179  0.97903572  0.87148812  1
  Pr  Pr3  1  0.22929847  0.98078068  0.12910584  1
  Mn  Mn4  1  0.28855742  0.54818070  0.59813835  1
  Mn  Mn5  1  0.70650249  0.50473161  0.39306838  1
  Mn  Mn6  1  0.98894162  0.91968561  0.98696215  1
  Mn  Mn7  1  0.79584126  0.05572402  0.60279945  1
  Mn  Mn8  1  0.18540931  0.00363852  0.39047201  1
  Mn  Mn9  1  0.52483694  0.51503151  0.02442665  1
  Sb  Sb10  1  0.89698126  0.00282022  0.45499334  1
  Sb  Sb11  1  0.11450917  0.99912033  0.55211538  1
  Sb  Sb12  1  0.03022257  0.50986897  0.80784156  1
  Sb  Sb13  1  0.96399238  0.47991969  0.18809208  1
  Sb  Sb14  1  0.40307448  0.50688382  0.46498223  1
  Sb  Sb15  1  0.60376812  0.43681803  0.55105126  1
  Sb  Sb16  1  0.52555389  0.96865559  0.80718611  1
  Sb  Sb17  1  0.46918106  0.99298183  0.18810313  1
  S  S18  1  0.93605309  0.95653795  0.80955190  1
  S  S19  1  0.06587555  0.00783791  0.20259828  1
  S  S20  1  0.42310207  0.94724191  0.99456294  1
  S  S21  1  0.58617508  0.00141735  0.01987617  1
  S  S22  1  0.18651627  0.96797867  0.90567059  1
  S  S23  1  0.83461580  0.00771674  0.10877389  1
  S  S24  1  0.09585407  0.51238401  0.64718723  1
  S  S25  1  0.88956543  0.49596179  0.33186249  1
  S  S26  1  0.74337821  0.02153607  0.32916203  1
  S  S27  1  0.27211757  0.03870718  0.68717272  1
  S  S28  1  0.16772698  0.49837554  0.45656654  1
  S  S29  1  0.84501198  0.53764855  0.56617044  1
  S  S30  1  0.44827811  0.46862472  0.82946850  1
  S  S31  1  0.58273686  0.52812156  0.21379063  1
  S  S32  1  0.91806964  0.46697813  0.98823265  1
  S  S33  1  0.08190509  0.48302816  0.00221827  1
  S  S34  1  0.69173862  0.46491655  0.91881125  1
  S  S35  1  0.35471584  0.47444489  0.10774759  1
  S  S36  1  0.62033906  0.91129814  0.67821180  1
  S  S37  1  0.42572137  0.96759380  0.37473502  1
  S  S38  1  0.25662946  0.48169516  0.29200735  1
  S  S39  1  0.76254210  0.50207105  0.67710365  1
  S  S40  1  0.66849593  0.99619466  0.44596621  1
  S  S41  1  0.32224004  0.03939587  0.52692370  1
