# generated using pymatgen
data_Pr2Mn3(SbS3)4
_symmetry_space_group_name_H-M   'P 1'
_cell_length_a   20.02960800
_cell_length_b   3.90410600
_cell_length_c   14.95364829
_cell_angle_alpha   90.00000000
_cell_angle_beta   126.33350609
_cell_angle_gamma   90.00000000
_symmetry_Int_Tables_number   1
_chemical_formula_structural   Pr2Mn3(SbS3)4
_chemical_formula_sum   'Pr4 Mn6 Sb8 S24'
_cell_volume   942.00006694
_cell_formula_units_Z   2
loop_
 _symmetry_equiv_pos_site_id
 _symmetry_equiv_pos_as_xyz
  1  'x, y, z'
loop_
 _atom_site_type_symbol
 _atom_site_label
 _atom_site_symmetry_multiplicity
 _atom_site_fract_x
 _atom_site_fract_y
 _atom_site_fract_z
 _atom_site_occupancy
  Pr  Pr0  1  0.26530025  0.45541336  0.86682307  1
  Pr  Pr1  1  0.73613437  0.55068773  0.13886237  1
  Pr  Pr2  1  0.77865486  0.97880242  0.87161990  1
  Pr  Pr3  1  0.22915360  0.98075997  0.12904217  1
  Mn  Mn4  1  0.28900547  0.54746103  0.59837502  1
  Mn  Mn5  1  0.70642977  0.50656394  0.39274931  1
  Mn  Mn6  1  0.98905527  0.91907071  0.98703745  1
  Mn  Mn7  1  0.79585072  0.05447267  0.60295428  1
  Mn  Mn8  1  0.18549474  0.00339135  0.39071259  1
  Mn  Mn9  1  0.52507648  0.51554143  0.02478887  1
  Sb  Sb10  1  0.89691648  0.00309545  0.45504399  1
  Sb  Sb11  1  0.11450862  0.99963296  0.55212229  1
  Sb  Sb12  1  0.03021978  0.50974046  0.80788846  1
  Sb  Sb13  1  0.96388203  0.48101344  0.18805246  1
  Sb  Sb14  1  0.40302697  0.50727425  0.46492149  1
  Sb  Sb15  1  0.60392883  0.43652403  0.55106271  1
  Sb  Sb16  1  0.52547887  0.96873497  0.80702569  1
  Sb  Sb17  1  0.46932868  0.99303221  0.18815393  1
  S  S18  1  0.93622996  0.95743678  0.80985104  1
  S  S19  1  0.06596861  0.00721026  0.20227449  1
  S  S20  1  0.42295893  0.94827329  0.99452500  1
  S  S21  1  0.58640835  0.00091601  0.02005966  1
  S  S22  1  0.18670448  0.96683431  0.90610354  1
  S  S23  1  0.83461788  0.00711524  0.10900418  1
  S  S24  1  0.09554817  0.51399072  0.64728451  1
  S  S25  1  0.88955789  0.49525039  0.33181683  1
  S  S26  1  0.74354721  0.02062257  0.32892984  1
  S  S27  1  0.27251920  0.03926409  0.68747032  1
  S  S28  1  0.16793481  0.49787578  0.45696168  1
  S  S29  1  0.84501040  0.53698430  0.56624057  1
  S  S30  1  0.44841809  0.46872040  0.82983603  1
  S  S31  1  0.58298149  0.52941350  0.21410688  1
  S  S32  1  0.91802178  0.46775546  0.98806730  1
  S  S33  1  0.08186056  0.48276543  0.00219922  1
  S  S34  1  0.69125075  0.46688011  0.91884066  1
  S  S35  1  0.35525898  0.47551634  0.10853173  1
  S  S36  1  0.62021922  0.91074758  0.67816503  1
  S  S37  1  0.42581855  0.96760887  0.37519345  1
  S  S38  1  0.25634929  0.48202016  0.29207376  1
  S  S39  1  0.76263846  0.50225728  0.67750242  1
  S  S40  1  0.66875148  0.99493904  0.44642298  1
  S  S41  1  0.32231494  0.03892592  0.52719193  1
