# generated using pymatgen
data_Pr2Mn3(SbS3)4
_symmetry_space_group_name_H-M   'P 1'
_cell_length_a   20.02960800
_cell_length_b   3.90410600
_cell_length_c   14.95364829
_cell_angle_alpha   90.00000000
_cell_angle_beta   126.33350609
_cell_angle_gamma   90.00000000
_symmetry_Int_Tables_number   1
_chemical_formula_structural   Pr2Mn3(SbS3)4
_chemical_formula_sum   'Pr4 Mn6 Sb8 S24'
_cell_volume   942.00006694
_cell_formula_units_Z   2
loop_
 _symmetry_equiv_pos_site_id
 _symmetry_equiv_pos_as_xyz
  1  'x, y, z'
loop_
 _atom_site_type_symbol
 _atom_site_label
 _atom_site_symmetry_multiplicity
 _atom_site_fract_x
 _atom_site_fract_y
 _atom_site_fract_z
 _atom_site_occupancy
  Pr  Pr0  1  0.26528433  0.45564458  0.86685751  1
  Pr  Pr1  1  0.73608641  0.55144202  0.13868335  1
  Pr  Pr2  1  0.77865928  0.97827817  0.87174396  1
  Pr  Pr3  1  0.22907721  0.98045951  0.12895384  1
  Mn  Mn4  1  0.28948868  0.54720285  0.59853426  1
  Mn  Mn5  1  0.70631128  0.50858725  0.39233878  1
  Mn  Mn6  1  0.98911155  0.91915874  0.98704936  1
  Mn  Mn7  1  0.79584448  0.05314798  0.60299895  1
  Mn  Mn8  1  0.18575117  0.00325312  0.39109264  1
  Mn  Mn9  1  0.52522013  0.51596993  0.02516433  1
  Sb  Sb10  1  0.89682858  0.00328388  0.45497361  1
  Sb  Sb11  1  0.11446115  0.00036843  0.55209414  1
  Sb  Sb12  1  0.03027451  0.50933937  0.80783214  1
  Sb  Sb13  1  0.96376046  0.48190805  0.18790609  1
  Sb  Sb14  1  0.40301108  0.50785608  0.46496418  1
  Sb  Sb15  1  0.60404966  0.43622320  0.55104301  1
  Sb  Sb16  1  0.52543709  0.96892144  0.80697311  1
  Sb  Sb17  1  0.46948386  0.99307670  0.18823418  1
  S  S18  1  0.93651781  0.95834946  0.81005546  1
  S  S19  1  0.06607303  0.00683255  0.20196567  1
  S  S20  1  0.42297102  0.94929674  0.99476735  1
  S  S21  1  0.58677907  0.00025121  0.02022416  1
  S  S22  1  0.18693342  0.96650812  0.90656246  1
  S  S23  1  0.83479309  0.00690908  0.10945891  1
  S  S24  1  0.09525682  0.51566898  0.64738635  1
  S  S25  1  0.88944637  0.49403491  0.33180353  1
  S  S26  1  0.74376337  0.01997515  0.32857859  1
  S  S27  1  0.27280961  0.03968495  0.68783556  1
  S  S28  1  0.16799279  0.49711100  0.45702551  1
  S  S29  1  0.84496194  0.53655972  0.56628489  1
  S  S30  1  0.44854425  0.46880881  0.83011986  1
  S  S31  1  0.58317701  0.53049578  0.21438410  1
  S  S32  1  0.91813414  0.46875260  0.98803832  1
  S  S33  1  0.08179076  0.48306728  0.00229156  1
  S  S34  1  0.69074771  0.46821212  0.91869448  1
  S  S35  1  0.35559376  0.47610216  0.10907782  1
  S  S36  1  0.61998004  0.91064400  0.67813677  1
  S  S37  1  0.42604486  0.96743221  0.37573070  1
  S  S38  1  0.25606601  0.48244097  0.29209219  1
  S  S39  1  0.76270413  0.50176473  0.67799718  1
  S  S40  1  0.66903258  0.99400473  0.44694068  1
  S  S41  1  0.32241356  0.03853251  0.52746516  1
