# generated using pymatgen
data_Pr2Mn3(SbS3)4
_symmetry_space_group_name_H-M   'P 1'
_cell_length_a   20.02960800
_cell_length_b   3.90410600
_cell_length_c   14.95364829
_cell_angle_alpha   90.00000000
_cell_angle_beta   126.33350609
_cell_angle_gamma   90.00000000
_symmetry_Int_Tables_number   1
_chemical_formula_structural   Pr2Mn3(SbS3)4
_chemical_formula_sum   'Pr4 Mn6 Sb8 S24'
_cell_volume   942.00006694
_cell_formula_units_Z   2
loop_
 _symmetry_equiv_pos_site_id
 _symmetry_equiv_pos_as_xyz
  1  'x, y, z'
loop_
 _atom_site_type_symbol
 _atom_site_label
 _atom_site_symmetry_multiplicity
 _atom_site_fract_x
 _atom_site_fract_y
 _atom_site_fract_z
 _atom_site_occupancy
  Pr  Pr0  1  0.26521976  0.45600554  0.86682536  1
  Pr  Pr1  1  0.73606371  0.55192956  0.13849029  1
  Pr  Pr2  1  0.77863746  0.97775713  0.87183106  1
  Pr  Pr3  1  0.22897519  0.98022610  0.12880093  1
  Mn  Mn4  1  0.28986531  0.54689709  0.59862250  1
  Mn  Mn5  1  0.70620319  0.51037041  0.39193000  1
  Mn  Mn6  1  0.98903475  0.91909041  0.98696341  1
  Mn  Mn7  1  0.79590638  0.05218057  0.60296943  1
  Mn  Mn8  1  0.18596016  0.00412415  0.39139626  1
  Mn  Mn9  1  0.52527944  0.51672510  0.02540583  1
  Sb  Sb10  1  0.89681090  0.00349881  0.45491688  1
  Sb  Sb11  1  0.11445129  0.00082457  0.55215179  1
  Sb  Sb12  1  0.03026699  0.50906327  0.80778747  1
  Sb  Sb13  1  0.96375262  0.48274681  0.18782587  1
  Sb  Sb14  1  0.40307101  0.50837289  0.46500411  1
  Sb  Sb15  1  0.60410485  0.43588676  0.55099631  1
  Sb  Sb16  1  0.52537643  0.96913793  0.80686954  1
  Sb  Sb17  1  0.46962814  0.99333791  0.18829618  1
  S  S18  1  0.93670752  0.95960069  0.81025899  1
  S  S19  1  0.06627570  0.00655730  0.20190398  1
  S  S20  1  0.42319293  0.95006440  0.99533466  1
  S  S21  1  0.58707365  0.99915177  0.02028067  1
  S  S22  1  0.18720982  0.96552996  0.90710584  1
  S  S23  1  0.83472344  0.00727612  0.10974347  1
  S  S24  1  0.09506811  0.51655258  0.64764480  1
  S  S25  1  0.88942304  0.49305970  0.33178218  1
  S  S26  1  0.74389585  0.01925144  0.32823872  1
  S  S27  1  0.27302596  0.04032437  0.68800190  1
  S  S28  1  0.16812620  0.49679266  0.45703121  1
  S  S29  1  0.84485675  0.53642453  0.56618156  1
  S  S30  1  0.44859484  0.46870441  0.83043695  1
  S  S31  1  0.58336618  0.53104754  0.21446910  1
  S  S32  1  0.91837487  0.46957166  0.98814582  1
  S  S33  1  0.08182729  0.48327953  0.00255656  1
  S  S34  1  0.69027200  0.46874971  0.91864954  1
  S  S35  1  0.35600964  0.47671753  0.10984555  1
  S  S36  1  0.61986135  0.91041649  0.67819720  1
  S  S37  1  0.42640860  0.96729250  0.37633945  1
  S  S38  1  0.25568061  0.48307109  0.29199072  1
  S  S39  1  0.76273960  0.50174786  0.67850340  1
  S  S40  1  0.66917022  0.99336435  0.44720573  1
  S  S41  1  0.32258742  0.03861793  0.52790786  1
