# generated using pymatgen
data_Pr2Mn3(SbS3)4
_symmetry_space_group_name_H-M   'P 1'
_cell_length_a   20.02960800
_cell_length_b   3.90410600
_cell_length_c   14.95364829
_cell_angle_alpha   90.00000000
_cell_angle_beta   126.33350609
_cell_angle_gamma   90.00000000
_symmetry_Int_Tables_number   1
_chemical_formula_structural   Pr2Mn3(SbS3)4
_chemical_formula_sum   'Pr4 Mn6 Sb8 S24'
_cell_volume   942.00006694
_cell_formula_units_Z   2
loop_
 _symmetry_equiv_pos_site_id
 _symmetry_equiv_pos_as_xyz
  1  'x, y, z'
loop_
 _atom_site_type_symbol
 _atom_site_label
 _atom_site_symmetry_multiplicity
 _atom_site_fract_x
 _atom_site_fract_y
 _atom_site_fract_z
 _atom_site_occupancy
  Pr  Pr0  1  0.26517532  0.45644329  0.86679973  1
  Pr  Pr1  1  0.73596863  0.55208877  0.13822869  1
  Pr  Pr2  1  0.77858975  0.97745953  0.87186563  1
  Pr  Pr3  1  0.22889012  0.98024034  0.12861669  1
  Mn  Mn4  1  0.29028602  0.54667080  0.59875060  1
  Mn  Mn5  1  0.70613271  0.51191134  0.39165886  1
  Mn  Mn6  1  0.98908767  0.91908703  0.98696961  1
  Mn  Mn7  1  0.79589201  0.05126582  0.60272866  1
  Mn  Mn8  1  0.18601373  0.00475585  0.39152865  1
  Mn  Mn9  1  0.52521366  0.51721462  0.02535829  1
  Sb  Sb10  1  0.89675523  0.00362579  0.45488991  1
  Sb  Sb11  1  0.11439237  0.00129811  0.55213798  1
  Sb  Sb12  1  0.03018246  0.50899454  0.80769785  1
  Sb  Sb13  1  0.96370144  0.48335715  0.18769180  1
  Sb  Sb14  1  0.40308640  0.50876258  0.46501067  1
  Sb  Sb15  1  0.60416594  0.43557166  0.55091220  1
  Sb  Sb16  1  0.52531459  0.96917116  0.80680256  1
  Sb  Sb17  1  0.46982586  0.99380583  0.18836452  1
  S  S18  1  0.93698450  0.96101529  0.81049895  1
  S  S19  1  0.06643787  0.00587806  0.20182807  1
  S  S20  1  0.42342245  0.95060687  0.99600899  1
  S  S21  1  0.58748322  0.99853299  0.02049608  1
  S  S22  1  0.18756903  0.96452746  0.90769987  1
  S  S23  1  0.83485780  0.00751358  0.11011331  1
  S  S24  1  0.09494782  0.51762983  0.64797621  1
  S  S25  1  0.88931366  0.49163274  0.33185097  1
  S  S26  1  0.74383827  0.01849702  0.32785658  1
  S  S27  1  0.27329470  0.04092233  0.68827729  1
  S  S28  1  0.16823987  0.49621083  0.45704160  1
  S  S29  1  0.84473803  0.53607770  0.56597710  1
  S  S30  1  0.44866875  0.46807769  0.83064076  1
  S  S31  1  0.58359975  0.53174576  0.21443260  1
  S  S32  1  0.91840493  0.47010616  0.98818158  1
  S  S33  1  0.08187077  0.48343976  0.00278724  1
  S  S34  1  0.69001256  0.46956460  0.91891723  1
  S  S35  1  0.35639307  0.47752138  0.11046054  1
  S  S36  1  0.61952796  0.91022970  0.67806316  1
  S  S37  1  0.42676584  0.96745032  0.37675795  1
  S  S38  1  0.25528276  0.48376973  0.29179468  1
  S  S39  1  0.76270471  0.50187860  0.67886604  1
  S  S40  1  0.66938876  0.99256971  0.44752619  1
  S  S41  1  0.32257298  0.03862355  0.52807827  1
