# generated using pymatgen
data_Pr2Mn3(SbS3)4
_symmetry_space_group_name_H-M   'P 1'
_cell_length_a   20.02960800
_cell_length_b   3.90410600
_cell_length_c   14.95364829
_cell_angle_alpha   90.00000000
_cell_angle_beta   126.33350609
_cell_angle_gamma   90.00000000
_symmetry_Int_Tables_number   1
_chemical_formula_structural   Pr2Mn3(SbS3)4
_chemical_formula_sum   'Pr4 Mn6 Sb8 S24'
_cell_volume   942.00006694
_cell_formula_units_Z   2
loop_
 _symmetry_equiv_pos_site_id
 _symmetry_equiv_pos_as_xyz
  1  'x, y, z'
loop_
 _atom_site_type_symbol
 _atom_site_label
 _atom_site_symmetry_multiplicity
 _atom_site_fract_x
 _atom_site_fract_y
 _atom_site_fract_z
 _atom_site_occupancy
  Pr  Pr0  1  0.26512856  0.45678033  0.86672976  1
  Pr  Pr1  1  0.73589901  0.55212334  0.13795754  1
  Pr  Pr2  1  0.77856063  0.97711813  0.87187596  1
  Pr  Pr3  1  0.22876188  0.98015148  0.12842688  1
  Mn  Mn4  1  0.29072655  0.54680873  0.59877703  1
  Mn  Mn5  1  0.70610186  0.51267623  0.39150841  1
  Mn  Mn6  1  0.98923403  0.91901891  0.98698694  1
  Mn  Mn7  1  0.79577656  0.05079242  0.60247915  1
  Mn  Mn8  1  0.18595289  0.00524350  0.39162797  1
  Mn  Mn9  1  0.52513104  0.51779892  0.02531266  1
  Sb  Sb10  1  0.89664351  0.00371929  0.45479672  1
  Sb  Sb11  1  0.11433180  0.00153830  0.55210879  1
  Sb  Sb12  1  0.03004748  0.50885800  0.80754667  1
  Sb  Sb13  1  0.96368260  0.48384455  0.18757561  1
  Sb  Sb14  1  0.40312275  0.50918798  0.46508346  1
  Sb  Sb15  1  0.60425807  0.43517519  0.55088580  1
  Sb  Sb16  1  0.52535559  0.96944508  0.80682948  1
  Sb  Sb17  1  0.46994597  0.99448043  0.18834430  1
  S  S18  1  0.93721033  0.96220031  0.81071663  1
  S  S19  1  0.06664565  0.00508181  0.20180040  1
  S  S20  1  0.42371940  0.95042271  0.99663708  1
  S  S21  1  0.58784631  0.99821949  0.02090877  1
  S  S22  1  0.18783426  0.96316115  0.90834918  1
  S  S23  1  0.83504711  0.00766507  0.11048589  1
  S  S24  1  0.09482383  0.51845988  0.64828381  1
  S  S25  1  0.88916941  0.49040005  0.33194855  1
  S  S26  1  0.74389087  0.01765913  0.32762411  1
  S  S27  1  0.27363989  0.04213051  0.68856084  1
  S  S28  1  0.16826055  0.49582944  0.45692260  1
  S  S29  1  0.84453546  0.53536144  0.56583334  1
  S  S30  1  0.44867964  0.46810897  0.83068298  1
  S  S31  1  0.58384377  0.53115853  0.21456895  1
  S  S32  1  0.91844809  0.47066908  0.98814995  1
  S  S33  1  0.08189138  0.48428273  0.00293844  1
  S  S34  1  0.68981828  0.47011355  0.91896089  1
  S  S35  1  0.35684538  0.47820023  0.11119210  1
  S  S36  1  0.61937511  0.91066216  0.67803469  1
  S  S37  1  0.42706204  0.96779269  0.37716981  1
  S  S38  1  0.25489387  0.48441993  0.29158256  1
  S  S39  1  0.76272303  0.50225023  0.67925122  1
  S  S40  1  0.66953160  0.99146411  0.44770999  1
  S  S41  1  0.32248351  0.03886544  0.52824547  1
