# generated using pymatgen
data_Pr2Mn3(SbS3)4
_symmetry_space_group_name_H-M   'P 1'
_cell_length_a   20.02960800
_cell_length_b   3.90410600
_cell_length_c   14.95364829
_cell_angle_alpha   90.00000000
_cell_angle_beta   126.33350609
_cell_angle_gamma   90.00000000
_symmetry_Int_Tables_number   1
_chemical_formula_structural   Pr2Mn3(SbS3)4
_chemical_formula_sum   'Pr4 Mn6 Sb8 S24'
_cell_volume   942.00006694
_cell_formula_units_Z   2
loop_
 _symmetry_equiv_pos_site_id
 _symmetry_equiv_pos_as_xyz
  1  'x, y, z'
loop_
 _atom_site_type_symbol
 _atom_site_label
 _atom_site_symmetry_multiplicity
 _atom_site_fract_x
 _atom_site_fract_y
 _atom_site_fract_z
 _atom_site_occupancy
  Pr  Pr0  1  0.26515497  0.45674322  0.86680800  1
  Pr  Pr1  1  0.73581745  0.55204431  0.13769059  1
  Pr  Pr2  1  0.77848303  0.97692151  0.87180432  1
  Pr  Pr3  1  0.22865067  0.97974505  0.12825820  1
  Mn  Mn4  1  0.29120291  0.54645417  0.59888977  1
  Mn  Mn5  1  0.70612838  0.51369064  0.39151475  1
  Mn  Mn6  1  0.98925536  0.91854271  0.98702163  1
  Mn  Mn7  1  0.79561362  0.05005567  0.60218920  1
  Mn  Mn8  1  0.18605313  0.00596761  0.39191270  1
  Mn  Mn9  1  0.52496241  0.51818095  0.02522017  1
  Sb  Sb10  1  0.89644963  0.00406287  0.45462689  1
  Sb  Sb11  1  0.11417642  0.00188713  0.55201842  1
  Sb  Sb12  1  0.02996582  0.50870224  0.80738434  1
  Sb  Sb13  1  0.96362331  0.48422052  0.18739317  1
  Sb  Sb14  1  0.40320756  0.50970274  0.46515708  1
  Sb  Sb15  1  0.60429450  0.43513409  0.55082146  1
  Sb  Sb16  1  0.52540631  0.96988014  0.80689602  1
  Sb  Sb17  1  0.47006336  0.99515308  0.18832624  1
  S  S18  1  0.93744284  0.96373608  0.81087894  1
  S  S19  1  0.06673882  0.00466299  0.20170086  1
  S  S20  1  0.42379421  0.95031436  0.99722714  1
  S  S21  1  0.58815255  0.99803303  0.02133438  1
  S  S22  1  0.18797284  0.96247036  0.90877356  1
  S  S23  1  0.83531657  0.00756306  0.11093941  1
  S  S24  1  0.09471486  0.51923255  0.64845531  1
  S  S25  1  0.88903443  0.48881132  0.33212795  1
  S  S26  1  0.74383987  0.01676493  0.32734886  1
  S  S27  1  0.27385188  0.04340080  0.68880471  1
  S  S28  1  0.16838374  0.49589161  0.45673391  1
  S  S29  1  0.84426708  0.53470646  0.56549912  1
  S  S30  1  0.44871903  0.46809035  0.83074961  1
  S  S31  1  0.58405061  0.53033500  0.21460203  1
  S  S32  1  0.91855704  0.47087593  0.98819880  1
  S  S33  1  0.08209653  0.48462047  0.00330114  1
  S  S34  1  0.68950371  0.47013635  0.91883870  1
  S  S35  1  0.35739181  0.47844522  0.11186618  1
  S  S36  1  0.61918484  0.91090412  0.67802298  1
  S  S37  1  0.42716715  0.96804399  0.37732906  1
  S  S38  1  0.25432944  0.48526223  0.29140148  1
  S  S39  1  0.76285429  0.50248059  0.67963085  1
  S  S40  1  0.66977907  0.99020027  0.44792805  1
  S  S41  1  0.32228705  0.03846121  0.52821319  1
