# generated using pymatgen
data_Pr2Mn3(SbS3)4
_symmetry_space_group_name_H-M   'P 1'
_cell_length_a   20.02960800
_cell_length_b   3.90410600
_cell_length_c   14.95364829
_cell_angle_alpha   90.00000000
_cell_angle_beta   126.33350609
_cell_angle_gamma   90.00000000
_symmetry_Int_Tables_number   1
_chemical_formula_structural   Pr2Mn3(SbS3)4
_chemical_formula_sum   'Pr4 Mn6 Sb8 S24'
_cell_volume   942.00006694
_cell_formula_units_Z   2
loop_
 _symmetry_equiv_pos_site_id
 _symmetry_equiv_pos_as_xyz
  1  'x, y, z'
loop_
 _atom_site_type_symbol
 _atom_site_label
 _atom_site_symmetry_multiplicity
 _atom_site_fract_x
 _atom_site_fract_y
 _atom_site_fract_z
 _atom_site_occupancy
  Pr  Pr0  1  0.26519183  0.45683002  0.86689667  1
  Pr  Pr1  1  0.73575031  0.55193722  0.13742598  1
  Pr  Pr2  1  0.77836785  0.97711928  0.87166238  1
  Pr  Pr3  1  0.22856987  0.97929477  0.12809772  1
  Mn  Mn4  1  0.29154845  0.54587940  0.59894348  1
  Mn  Mn5  1  0.70613491  0.51399132  0.39154927  1
  Mn  Mn6  1  0.98934960  0.91800337  0.98723880  1
  Mn  Mn7  1  0.79533382  0.04970409  0.60176356  1
  Mn  Mn8  1  0.18598445  0.00677264  0.39215604  1
  Mn  Mn9  1  0.52474535  0.51861521  0.02516650  1
  Sb  Sb10  1  0.89626378  0.00416168  0.45457850  1
  Sb  Sb11  1  0.11408375  0.00255734  0.55196369  1
  Sb  Sb12  1  0.02989261  0.50885111  0.80721398  1
  Sb  Sb13  1  0.96361745  0.48448849  0.18725719  1
  Sb  Sb14  1  0.40327649  0.51002322  0.46515878  1
  Sb  Sb15  1  0.60432764  0.43552761  0.55069610  1
  Sb  Sb16  1  0.52536919  0.97001084  0.80684460  1
  Sb  Sb17  1  0.47013573  0.99560094  0.18829421  1
  S  S18  1  0.93789544  0.96501319  0.81118515  1
  S  S19  1  0.06681158  0.00414890  0.20163020  1
  S  S20  1  0.42378361  0.95013880  0.99787869  1
  S  S21  1  0.58844772  0.99769910  0.02182548  1
  S  S22  1  0.18799842  0.96215280  0.90912077  1
  S  S23  1  0.83567122  0.00667439  0.11139163  1
  S  S24  1  0.09460539  0.51905537  0.64868837  1
  S  S25  1  0.88883192  0.48827432  0.33232298  1
  S  S26  1  0.74347037  0.01574034  0.32676099  1
  S  S27  1  0.27404661  0.04488981  0.68897662  1
  S  S28  1  0.16832057  0.49599605  0.45657759  1
  S  S29  1  0.84409632  0.53395028  0.56534120  1
  S  S30  1  0.44869876  0.46822891  0.83080859  1
  S  S31  1  0.58431250  0.53011036  0.21464131  1
  S  S32  1  0.91865456  0.47133330  0.98825439  1
  S  S33  1  0.08236280  0.48482664  0.00367004  1
  S  S34  1  0.68916730  0.46972499  0.91860915  1
  S  S35  1  0.35796101  0.47881882  0.11257743  1
  S  S36  1  0.61898287  0.91087436  0.67795518  1
  S  S37  1  0.42716492  0.96837062  0.37751830  1
  S  S38  1  0.25368329  0.48579641  0.29103805  1
  S  S39  1  0.76293862  0.50281486  0.68010249  1
  S  S40  1  0.66999020  0.98866859  0.44807125  1
  S  S41  1  0.32214230  0.03798136  0.52824817  1
