# generated using pymatgen
data_Pr2Mn3(SbS3)4
_symmetry_space_group_name_H-M   'P 1'
_cell_length_a   20.02960800
_cell_length_b   3.90410600
_cell_length_c   14.95364829
_cell_angle_alpha   90.00000000
_cell_angle_beta   126.33350609
_cell_angle_gamma   90.00000000
_symmetry_Int_Tables_number   1
_chemical_formula_structural   Pr2Mn3(SbS3)4
_chemical_formula_sum   'Pr4 Mn6 Sb8 S24'
_cell_volume   942.00006694
_cell_formula_units_Z   2
loop_
 _symmetry_equiv_pos_site_id
 _symmetry_equiv_pos_as_xyz
  1  'x, y, z'
loop_
 _atom_site_type_symbol
 _atom_site_label
 _atom_site_symmetry_multiplicity
 _atom_site_fract_x
 _atom_site_fract_y
 _atom_site_fract_z
 _atom_site_occupancy
  Pr  Pr0  1  0.26945186  0.50354232  0.86743328  1
  Pr  Pr1  1  0.73364391  0.51358173  0.13425177  1
  Pr  Pr2  1  0.76505403  0.03009200  0.86856484  1
  Pr  Pr3  1  0.23085809  0.98733802  0.13119674  1
  Mn  Mn4  1  0.30106212  0.46553947  0.60831739  1
  Mn  Mn5  1  0.68545179  0.46749154  0.36373620  1
  Mn  Mn6  1  0.00275549  0.99278846  0.01033972  1
  Mn  Mn7  1  0.79348186  0.02399376  0.61500303  1
  Mn  Mn8  1  0.19334339  0.00063139  0.36495039  1
  Mn  Mn9  1  0.48274806  0.47309907  0.98197363  1
  Sb  Sb10  1  0.88952115  0.98600205  0.44769035  1
  Sb  Sb11  1  0.11043259  0.98005390  0.54635113  1
  Sb  Sb12  1  0.03477996  0.53008915  0.82144511  1
  Sb  Sb13  1  0.96698849  0.49557865  0.19013634  1
  Sb  Sb14  1  0.39481133  0.49851579  0.45019815  1
  Sb  Sb15  1  0.61068688  0.47999095  0.54749090  1
  Sb  Sb16  1  0.53198488  0.97341543  0.80626186  1
  Sb  Sb17  1  0.46567519  0.02321874  0.18742352  1
  S  S18  1  0.93915198  0.02122359  0.80846560  1
  S  S19  1  0.06721704  0.00518660  0.20827894  1
  S  S20  1  0.41915533  0.97174524  0.98314515  1
  S  S21  1  0.58737516  0.03319332  0.01537486  1
  S  S22  1  0.16490986  0.03716739  0.90097487  1
  S  S23  1  0.82617777  0.00749602  0.10507021  1
  S  S24  1  0.08630633  0.49769244  0.64068357  1
  S  S25  1  0.91444023  0.48217851  0.35135745  1
  S  S26  1  0.73539316  0.01224251  0.29576540  1
  S  S27  1  0.25801072  0.02027993  0.70454709  1
  S  S28  1  0.16775545  0.51478524  0.43740887  1
  S  S29  1  0.80948930  0.51090987  0.53881530  1
  S  S30  1  0.43166527  0.47584622  0.79857779  1
  S  S31  1  0.55330474  0.51227354  0.18014687  1
  S  S32  1  0.92395107  0.50610961  0.99232681  1
  S  S33  1  0.09143179  0.49637571  0.02699916  1
  S  S34  1  0.66762178  0.56057169  0.89867750  1
  S  S35  1  0.32845134  0.46417863  0.09478430  1
  S  S36  1  0.58778889  0.99575970  0.64729140  1
  S  S37  1  0.39553496  0.97872662  0.33369822  1
  S  S38  1  0.24683500  0.47550720  0.31657133  1
  S  S39  1  0.76192982  0.51905279  0.69093428  1
  S  S40  1  0.66173341  0.98333480  0.44140797  1
  S  S41  1  0.32886846  0.97823647  0.55169723  1
