# generated using pymatgen
data_Pr2Mn3(SbS3)4
_symmetry_space_group_name_H-M   'P 1'
_cell_length_a   20.02960800
_cell_length_b   3.90410600
_cell_length_c   14.95364829
_cell_angle_alpha   90.00000000
_cell_angle_beta   126.33350609
_cell_angle_gamma   90.00000000
_symmetry_Int_Tables_number   1
_chemical_formula_structural   Pr2Mn3(SbS3)4
_chemical_formula_sum   'Pr4 Mn6 Sb8 S24'
_cell_volume   942.00006694
_cell_formula_units_Z   2
loop_
 _symmetry_equiv_pos_site_id
 _symmetry_equiv_pos_as_xyz
  1  'x, y, z'
loop_
 _atom_site_type_symbol
 _atom_site_label
 _atom_site_symmetry_multiplicity
 _atom_site_fract_x
 _atom_site_fract_y
 _atom_site_fract_z
 _atom_site_occupancy
  Pr  Pr0  1  0.26518381  0.45671582  0.86689409  1
  Pr  Pr1  1  0.73565837  0.55184486  0.13723629  1
  Pr  Pr2  1  0.77828987  0.97748283  0.87163439  1
  Pr  Pr3  1  0.22850923  0.97906935  0.12796576  1
  Mn  Mn4  1  0.29194363  0.54541956  0.59896575  1
  Mn  Mn5  1  0.70608710  0.51475251  0.39165844  1
  Mn  Mn6  1  0.98948831  0.91737478  0.98743422  1
  Mn  Mn7  1  0.79511171  0.04986757  0.60142211  1
  Mn  Mn8  1  0.18589994  0.00699940  0.39240867  1
  Mn  Mn9  1  0.52452423  0.51934530  0.02508109  1
  Sb  Sb10  1  0.89615969  0.00422589  0.45454534  1
  Sb  Sb11  1  0.11399041  0.00318225  0.55200652  1
  Sb  Sb12  1  0.02986343  0.50910177  0.80704715  1
  Sb  Sb13  1  0.96354466  0.48484326  0.18705151  1
  Sb  Sb14  1  0.40332834  0.51020452  0.46518288  1
  Sb  Sb15  1  0.60432588  0.43598531  0.55060747  1
  Sb  Sb16  1  0.52536809  0.96991139  0.80687554  1
  Sb  Sb17  1  0.47018167  0.99627731  0.18826654  1
  S  S18  1  0.93830303  0.96488943  0.81172636  1
  S  S19  1  0.06697506  0.00376389  0.20170960  1
  S  S20  1  0.42369012  0.95085162  0.99855804  1
  S  S21  1  0.58865769  0.99695117  0.02233627  1
  S  S22  1  0.18795707  0.96165578  0.90941984  1
  S  S23  1  0.83598324  0.00606471  0.11160775  1
  S  S24  1  0.09428123  0.51869079  0.64864322  1
  S  S25  1  0.88873099  0.48793679  0.33258497  1
  S  S26  1  0.74320023  0.01441395  0.32630945  1
  S  S27  1  0.27419594  0.04668079  0.68923569  1
  S  S28  1  0.16820109  0.49498247  0.45639730  1
  S  S29  1  0.84400638  0.53377293  0.56518254  1
  S  S30  1  0.44863772  0.46846008  0.83081191  1
  S  S31  1  0.58467783  0.52969810  0.21487029  1
  S  S32  1  0.91863760  0.47182626  0.98823142  1
  S  S33  1  0.08262810  0.48491391  0.00421216  1
  S  S34  1  0.68889863  0.46938030  0.91835715  1
  S  S35  1  0.35839456  0.47909836  0.11314965  1
  S  S36  1  0.61861288  0.91101011  0.67764539  1
  S  S37  1  0.42718772  0.96868113  0.37761836  1
  S  S38  1  0.25292712  0.48645810  0.29063191  1
  S  S39  1  0.76317774  0.50363100  0.68043793  1
  S  S40  1  0.67016327  0.98736075  0.44818947  1
  S  S41  1  0.32217876  0.03794726  0.52846137  1
