# generated using pymatgen
data_Pr2Mn3(SbS3)4
_symmetry_space_group_name_H-M   'P 1'
_cell_length_a   20.02960800
_cell_length_b   3.90410600
_cell_length_c   14.95364829
_cell_angle_alpha   90.00000000
_cell_angle_beta   126.33350609
_cell_angle_gamma   90.00000000
_symmetry_Int_Tables_number   1
_chemical_formula_structural   Pr2Mn3(SbS3)4
_chemical_formula_sum   'Pr4 Mn6 Sb8 S24'
_cell_volume   942.00006694
_cell_formula_units_Z   2
loop_
 _symmetry_equiv_pos_site_id
 _symmetry_equiv_pos_as_xyz
  1  'x, y, z'
loop_
 _atom_site_type_symbol
 _atom_site_label
 _atom_site_symmetry_multiplicity
 _atom_site_fract_x
 _atom_site_fract_y
 _atom_site_fract_z
 _atom_site_occupancy
  Pr  Pr0  1  0.26518515  0.45660366  0.86688508  1
  Pr  Pr1  1  0.73555950  0.55180918  0.13703100  1
  Pr  Pr2  1  0.77827030  0.97764825  0.87171763  1
  Pr  Pr3  1  0.22839359  0.97868168  0.12778999  1
  Mn  Mn4  1  0.29219033  0.54513070  0.59892783  1
  Mn  Mn5  1  0.70606377  0.51551666  0.39165334  1
  Mn  Mn6  1  0.98949954  0.91684517  0.98748981  1
  Mn  Mn7  1  0.79496194  0.05003716  0.60112486  1
  Mn  Mn8  1  0.18581192  0.00758728  0.39268759  1
  Mn  Mn9  1  0.52428030  0.52047416  0.02486517  1
  Sb  Sb10  1  0.89605563  0.00410526  0.45444472  1
  Sb  Sb11  1  0.11394260  0.00360398  0.55211120  1
  Sb  Sb12  1  0.02985294  0.50965459  0.80692281  1
  Sb  Sb13  1  0.96346727  0.48489875  0.18691012  1
  Sb  Sb14  1  0.40342408  0.51005336  0.46527639  1
  Sb  Sb15  1  0.60436511  0.43599892  0.55059555  1
  Sb  Sb16  1  0.52545842  0.96986257  0.80696251  1
  Sb  Sb17  1  0.47027924  0.99700511  0.18824679  1
  S  S18  1  0.93877702  0.96470130  0.81245188  1
  S  S19  1  0.06716583  0.00449607  0.20186349  1
  S  S20  1  0.42354327  0.95162471  0.99915432  1
  S  S21  1  0.58887228  0.99624048  0.02294478  1
  S  S22  1  0.18784000  0.96158455  0.90945185  1
  S  S23  1  0.83618456  0.00507612  0.11167207  1
  S  S24  1  0.09396961  0.51773019  0.64859919  1
  S  S25  1  0.88864903  0.48775196  0.33282340  1
  S  S26  1  0.74306290  0.01313321  0.32595447  1
  S  S27  1  0.27424984  0.04845077  0.68936217  1
  S  S28  1  0.16803993  0.49432887  0.45632209  1
  S  S29  1  0.84381811  0.53354659  0.56502414  1
  S  S30  1  0.44852238  0.46907672  0.83095013  1
  S  S31  1  0.58484233  0.52967250  0.21484921  1
  S  S32  1  0.91868284  0.47160662  0.98830129  1
  S  S33  1  0.08295623  0.48549456  0.00481573  1
  S  S34  1  0.68861388  0.46901452  0.91813702  1
  S  S35  1  0.35885455  0.47938153  0.11375141  1
  S  S36  1  0.61826253  0.91116978  0.67703573  1
  S  S37  1  0.42704554  0.96822023  0.37758278  1
  S  S38  1  0.25216708  0.48672430  0.29013658  1
  S  S39  1  0.76340419  0.50444368  0.68067535  1
  S  S40  1  0.67025734  0.98635955  0.44829845  1
  S  S41  1  0.32222481  0.03713222  0.52864258  1
