# generated using pymatgen
data_Pr2Mn3(SbS3)4
_symmetry_space_group_name_H-M   'P 1'
_cell_length_a   20.02960800
_cell_length_b   3.90410600
_cell_length_c   14.95364829
_cell_angle_alpha   90.00000000
_cell_angle_beta   126.33350609
_cell_angle_gamma   90.00000000
_symmetry_Int_Tables_number   1
_chemical_formula_structural   Pr2Mn3(SbS3)4
_chemical_formula_sum   'Pr4 Mn6 Sb8 S24'
_cell_volume   942.00006694
_cell_formula_units_Z   2
loop_
 _symmetry_equiv_pos_site_id
 _symmetry_equiv_pos_as_xyz
  1  'x, y, z'
loop_
 _atom_site_type_symbol
 _atom_site_label
 _atom_site_symmetry_multiplicity
 _atom_site_fract_x
 _atom_site_fract_y
 _atom_site_fract_z
 _atom_site_occupancy
  Pr  Pr0  1  0.26521935  0.45633128  0.86688300  1
  Pr  Pr1  1  0.73545917  0.55191143  0.13686105  1
  Pr  Pr2  1  0.77825532  0.97762720  0.87176508  1
  Pr  Pr3  1  0.22828152  0.97871774  0.12761303  1
  Mn  Mn4  1  0.29240418  0.54477987  0.59890503  1
  Mn  Mn5  1  0.70602268  0.51624502  0.39156227  1
  Mn  Mn6  1  0.98958173  0.91592230  0.98773934  1
  Mn  Mn7  1  0.79489369  0.05036134  0.60102014  1
  Mn  Mn8  1  0.18576081  0.00787837  0.39281426  1
  Mn  Mn9  1  0.52412675  0.52162333  0.02457320  1
  Sb  Sb10  1  0.89595947  0.00384580  0.45441031  1
  Sb  Sb11  1  0.11386653  0.00406784  0.55223827  1
  Sb  Sb12  1  0.02990260  0.51012798  0.80681487  1
  Sb  Sb13  1  0.96340392  0.48524638  0.18677692  1
  Sb  Sb14  1  0.40351068  0.50961171  0.46538674  1
  Sb  Sb15  1  0.60444976  0.43594914  0.55063701  1
  Sb  Sb16  1  0.52555037  0.96974594  0.80712803  1
  Sb  Sb17  1  0.47040885  0.99802976  0.18828585  1
  S  S18  1  0.93920302  0.96475664  0.81313135  1
  S  S19  1  0.06738518  0.00560326  0.20191509  1
  S  S20  1  0.42332940  0.95182688  0.99963472  1
  S  S21  1  0.58899669  0.99561568  0.02326035  1
  S  S22  1  0.18774984  0.96182779  0.90945539  1
  S  S23  1  0.83646025  0.00391096  0.11201932  1
  S  S24  1  0.09363188  0.51678898  0.64840767  1
  S  S25  1  0.88866964  0.48799127  0.33313360  1
  S  S26  1  0.74299713  0.01186707  0.32576105  1
  S  S27  1  0.27420505  0.05027932  0.68936786  1
  S  S28  1  0.16780969  0.49347567  0.45607170  1
  S  S29  1  0.84370776  0.53405909  0.56491946  1
  S  S30  1  0.44832811  0.46935227  0.83112635  1
  S  S31  1  0.58511216  0.52993431  0.21479208  1
  S  S32  1  0.91873823  0.47124692  0.98848894  1
  S  S33  1  0.08318901  0.48649567  0.00525261  1
  S  S34  1  0.68836484  0.46772459  0.91789141  1
  S  S35  1  0.35924592  0.48007544  0.11408335  1
  S  S36  1  0.61783305  0.91094920  0.67623407  1
  S  S37  1  0.42684545  0.96809850  0.37759513  1
  S  S38  1  0.25152605  0.48716033  0.28971294  1
  S  S39  1  0.76353716  0.50493340  0.68071378  1
  S  S40  1  0.67026621  0.98639832  0.44837567  1
  S  S41  1  0.32232430  0.03626903  0.52877370  1
