# generated using pymatgen
data_Pr2Mn3(SbS3)4
_symmetry_space_group_name_H-M   'P 1'
_cell_length_a   20.02960800
_cell_length_b   3.90410600
_cell_length_c   14.95364829
_cell_angle_alpha   90.00000000
_cell_angle_beta   126.33350609
_cell_angle_gamma   90.00000000
_symmetry_Int_Tables_number   1
_chemical_formula_structural   Pr2Mn3(SbS3)4
_chemical_formula_sum   'Pr4 Mn6 Sb8 S24'
_cell_volume   942.00006694
_cell_formula_units_Z   2
loop_
 _symmetry_equiv_pos_site_id
 _symmetry_equiv_pos_as_xyz
  1  'x, y, z'
loop_
 _atom_site_type_symbol
 _atom_site_label
 _atom_site_symmetry_multiplicity
 _atom_site_fract_x
 _atom_site_fract_y
 _atom_site_fract_z
 _atom_site_occupancy
  Pr  Pr0  1  0.26528469  0.45591754  0.86689466  1
  Pr  Pr1  1  0.73539619  0.55168053  0.13673976  1
  Pr  Pr2  1  0.77828840  0.97753701  0.87181085  1
  Pr  Pr3  1  0.22816505  0.97864511  0.12748381  1
  Mn  Mn4  1  0.29254338  0.54434178  0.59887328  1
  Mn  Mn5  1  0.70610719  0.51674030  0.39156799  1
  Mn  Mn6  1  0.98978527  0.91503188  0.98806954  1
  Mn  Mn7  1  0.79467933  0.05043520  0.60069482  1
  Mn  Mn8  1  0.18556217  0.00780171  0.39276375  1
  Mn  Mn9  1  0.52399597  0.52252426  0.02434379  1
  Sb  Sb10  1  0.89586705  0.00345311  0.45431124  1
  Sb  Sb11  1  0.11376872  0.00446628  0.55230555  1
  Sb  Sb12  1  0.02997236  0.51072858  0.80673484  1
  Sb  Sb13  1  0.96329146  0.48553395  0.18667439  1
  Sb  Sb14  1  0.40354182  0.50950430  0.46543067  1
  Sb  Sb15  1  0.60459432  0.43585588  0.55072731  1
  Sb  Sb16  1  0.52555232  0.96941977  0.80725845  1
  Sb  Sb17  1  0.47050496  0.99904439  0.18832830  1
  S  S18  1  0.93959312  0.96514102  0.81367019  1
  S  S19  1  0.06768865  0.00631700  0.20194823  1
  S  S20  1  0.42315379  0.95163714  0.00011471  1
  S  S21  1  0.58915352  0.99547016  0.02371370  1
  S  S22  1  0.18776741  0.96208884  0.90938632  1
  S  S23  1  0.83672991  0.00304574  0.11240142  1
  S  S24  1  0.09332797  0.51528550  0.64834161  1
  S  S25  1  0.88855858  0.48861773  0.33312731  1
  S  S26  1  0.74280028  0.01066243  0.32563895  1
  S  S27  1  0.27415408  0.05229576  0.68940366  1
  S  S28  1  0.16766014  0.49272539  0.45592351  1
  S  S29  1  0.84374305  0.53391758  0.56495126  1
  S  S30  1  0.44824189  0.47005355  0.83150429  1
  S  S31  1  0.58538713  0.52929534  0.21488986  1
  S  S32  1  0.91868684  0.47110588  0.98844367  1
  S  S33  1  0.08332165  0.48716871  0.00542915  1
  S  S34  1  0.68795325  0.46634123  0.91739276  1
  S  S35  1  0.35958088  0.48045191  0.11425168  1
  S  S36  1  0.61732689  0.91106568  0.67539275  1
  S  S37  1  0.42665474  0.96777887  0.37744619  1
  S  S38  1  0.25108926  0.48809847  0.28940882  1
  S  S39  1  0.76361278  0.50537999  0.68060761  1
  S  S40  1  0.67029698  0.98645734  0.44830826  1
  S  S41  1  0.32232534  0.03562728  0.52898925  1
