# generated using pymatgen
data_Pr2Mn3(SbS3)4
_symmetry_space_group_name_H-M   'P 1'
_cell_length_a   20.02960800
_cell_length_b   3.90410600
_cell_length_c   14.95364829
_cell_angle_alpha   90.00000000
_cell_angle_beta   126.33350609
_cell_angle_gamma   90.00000000
_symmetry_Int_Tables_number   1
_chemical_formula_structural   Pr2Mn3(SbS3)4
_chemical_formula_sum   'Pr4 Mn6 Sb8 S24'
_cell_volume   942.00006694
_cell_formula_units_Z   2
loop_
 _symmetry_equiv_pos_site_id
 _symmetry_equiv_pos_as_xyz
  1  'x, y, z'
loop_
 _atom_site_type_symbol
 _atom_site_label
 _atom_site_symmetry_multiplicity
 _atom_site_fract_x
 _atom_site_fract_y
 _atom_site_fract_z
 _atom_site_occupancy
  Pr  Pr0  1  0.26534161  0.45561797  0.86692465  1
  Pr  Pr1  1  0.73533695  0.55177642  0.13659847  1
  Pr  Pr2  1  0.77820729  0.97732272  0.87174049  1
  Pr  Pr3  1  0.22801519  0.97855611  0.12731772  1
  Mn  Mn4  1  0.29268434  0.54410737  0.59876714  1
  Mn  Mn5  1  0.70610455  0.51699929  0.39154284  1
  Mn  Mn6  1  0.99000013  0.91412965  0.98844485  1
  Mn  Mn7  1  0.79440348  0.05061345  0.60032258  1
  Mn  Mn8  1  0.18531983  0.00714897  0.39253003  1
  Mn  Mn9  1  0.52398812  0.52276888  0.02423758  1
  Sb  Sb10  1  0.89579370  0.00328747  0.45426484  1
  Sb  Sb11  1  0.11372815  0.00464860  0.55239487  1
  Sb  Sb12  1  0.03008104  0.51159455  0.80678596  1
  Sb  Sb13  1  0.96319196  0.48599540  0.18665018  1
  Sb  Sb14  1  0.40352921  0.50919890  0.46543090  1
  Sb  Sb15  1  0.60474836  0.43551167  0.55078251  1
  Sb  Sb16  1  0.52557703  0.96932544  0.80745763  1
  Sb  Sb17  1  0.47065124  0.99987895  0.18840808  1
  S  S18  1  0.93993569  0.96534101  0.81406306  1
  S  S19  1  0.06805263  0.00744815  0.20216338  1
  S  S20  1  0.42275322  0.95151990  0.00036603  1
  S  S21  1  0.58929963  0.99537368  0.02408173  1
  S  S22  1  0.18784878  0.96235347  0.90934406  1
  S  S23  1  0.83693391  0.00201769  0.11271816  1
  S  S24  1  0.09304700  0.51381215  0.64840089  1
  S  S25  1  0.88839211  0.48946749  0.33291762  1
  S  S26  1  0.74251490  0.00969455  0.32546158  1
  S  S27  1  0.27420542  0.05471879  0.68948459  1
  S  S28  1  0.16740403  0.49180981  0.45572881  1
  S  S29  1  0.84376851  0.53440952  0.56498294  1
  S  S30  1  0.44800334  0.47026654  0.83167582  1
  S  S31  1  0.58564258  0.52915849  0.21516031  1
  S  S32  1  0.91867045  0.47077506  0.98848725  1
  S  S33  1  0.08348348  0.48845489  0.00547476  1
  S  S34  1  0.68759653  0.46583402  0.91692969  1
  S  S35  1  0.35979767  0.48020515  0.11431734  1
  S  S36  1  0.61695982  0.91144037  0.67462361  1
  S  S37  1  0.42653848  0.96664100  0.37734659  1
  S  S38  1  0.25047680  0.48851857  0.28894410  1
  S  S39  1  0.76350576  0.50538254  0.68041376  1
  S  S40  1  0.67024625  0.98565094  0.44803230  1
  S  S41  1  0.32213141  0.03458426  0.52907379  1
