# generated using pymatgen
data_Pr2Mn3(SbS3)4
_symmetry_space_group_name_H-M   'P 1'
_cell_length_a   20.02960800
_cell_length_b   3.90410600
_cell_length_c   14.95364829
_cell_angle_alpha   90.00000000
_cell_angle_beta   126.33350609
_cell_angle_gamma   90.00000000
_symmetry_Int_Tables_number   1
_chemical_formula_structural   Pr2Mn3(SbS3)4
_chemical_formula_sum   'Pr4 Mn6 Sb8 S24'
_cell_volume   942.00006694
_cell_formula_units_Z   2
loop_
 _symmetry_equiv_pos_site_id
 _symmetry_equiv_pos_as_xyz
  1  'x, y, z'
loop_
 _atom_site_type_symbol
 _atom_site_label
 _atom_site_symmetry_multiplicity
 _atom_site_fract_x
 _atom_site_fract_y
 _atom_site_fract_z
 _atom_site_occupancy
  Pr  Pr0  1  0.26538486  0.45513461  0.86693640  1
  Pr  Pr1  1  0.73516547  0.55200285  0.13639738  1
  Pr  Pr2  1  0.77813304  0.97708878  0.87153142  1
  Pr  Pr3  1  0.22784377  0.97865352  0.12711311  1
  Mn  Mn4  1  0.29278174  0.54424846  0.59867972  1
  Mn  Mn5  1  0.70614723  0.51707203  0.39151229  1
  Mn  Mn6  1  0.99019903  0.91331475  0.98884873  1
  Mn  Mn7  1  0.79420830  0.05057948  0.60000193  1
  Mn  Mn8  1  0.18499632  0.00635299  0.39214250  1
  Mn  Mn9  1  0.52398923  0.52322687  0.02417399  1
  Sb  Sb10  1  0.89573131  0.00316055  0.45426732  1
  Sb  Sb11  1  0.11368399  0.00510208  0.55249469  1
  Sb  Sb12  1  0.03014065  0.51177235  0.80683770  1
  Sb  Sb13  1  0.96307219  0.48665738  0.18665879  1
  Sb  Sb14  1  0.40345829  0.50883731  0.46534815  1
  Sb  Sb15  1  0.60496075  0.43491811  0.55089019  1
  Sb  Sb16  1  0.52567487  0.96923173  0.80769702  1
  Sb  Sb17  1  0.47072668  0.00096725  0.18845314  1
  S  S18  1  0.94012994  0.96539438  0.81447039  1
  S  S19  1  0.06851220  0.00875082  0.20250639  1
  S  S20  1  0.42242769  0.95177711  0.00061939  1
  S  S21  1  0.58945149  0.99541792  0.02453184  1
  S  S22  1  0.18778695  0.96238104  0.90923939  1
  S  S23  1  0.83707190  0.00102572  0.11297412  1
  S  S24  1  0.09276289  0.51263075  0.64837128  1
  S  S25  1  0.88828805  0.49013651  0.33281439  1
  S  S26  1  0.74224765  0.00897608  0.32520480  1
  S  S27  1  0.27432247  0.05645037  0.68957871  1
  S  S28  1  0.16708811  0.49071827  0.45535691  1
  S  S29  1  0.84384340  0.53526453  0.56518249  1
  S  S30  1  0.44796705  0.47004423  0.83190791  1
  S  S31  1  0.58596697  0.52930023  0.21547624  1
  S  S32  1  0.91866358  0.47086873  0.98851058  1
  S  S33  1  0.08359381  0.48916180  0.00544278  1
  S  S34  1  0.68726579  0.46522630  0.91642466  1
  S  S35  1  0.35994749  0.48047186  0.11449598  1
  S  S36  1  0.61657088  0.91232681  0.67387900  1
  S  S37  1  0.42636795  0.96598312  0.37707928  1
  S  S38  1  0.24995837  0.48904890  0.28854872  1
  S  S39  1  0.76353756  0.50605419  0.68045162  1
  S  S40  1  0.67024820  0.98447320  0.44786523  1
  S  S41  1  0.32191042  0.03408042  0.52917158  1
