# generated using pymatgen
data_Pr2Mn3(SbS3)4
_symmetry_space_group_name_H-M   'P 1'
_cell_length_a   20.02960800
_cell_length_b   3.90410600
_cell_length_c   14.95364829
_cell_angle_alpha   90.00000000
_cell_angle_beta   126.33350609
_cell_angle_gamma   90.00000000
_symmetry_Int_Tables_number   1
_chemical_formula_structural   Pr2Mn3(SbS3)4
_chemical_formula_sum   'Pr4 Mn6 Sb8 S24'
_cell_volume   942.00006694
_cell_formula_units_Z   2
loop_
 _symmetry_equiv_pos_site_id
 _symmetry_equiv_pos_as_xyz
  1  'x, y, z'
loop_
 _atom_site_type_symbol
 _atom_site_label
 _atom_site_symmetry_multiplicity
 _atom_site_fract_x
 _atom_site_fract_y
 _atom_site_fract_z
 _atom_site_occupancy
  Pr  Pr0  1  0.26543949  0.45471752  0.86694711  1
  Pr  Pr1  1  0.73500381  0.55200798  0.13617811  1
  Pr  Pr2  1  0.77807747  0.97661049  0.87137231  1
  Pr  Pr3  1  0.22775428  0.97894032  0.12690744  1
  Mn  Mn4  1  0.29285168  0.54430569  0.59852246  1
  Mn  Mn5  1  0.70620351  0.51675180  0.39152097  1
  Mn  Mn6  1  0.99048048  0.91215671  0.98925697  1
  Mn  Mn7  1  0.79399550  0.05077220  0.59956314  1
  Mn  Mn8  1  0.18470094  0.00559126  0.39178401  1
  Mn  Mn9  1  0.52399141  0.52394775  0.02419003  1
  Sb  Sb10  1  0.89571193  0.00332099  0.45438134  1
  Sb  Sb11  1  0.11362935  0.00572468  0.55256402  1
  Sb  Sb12  1  0.03023292  0.51168243  0.80695272  1
  Sb  Sb13  1  0.96299282  0.48703208  0.18669244  1
  Sb  Sb14  1  0.40350678  0.50875131  0.46527755  1
  Sb  Sb15  1  0.60521054  0.43412894  0.55097000  1
  Sb  Sb16  1  0.52581550  0.96907091  0.80797914  1
  Sb  Sb17  1  0.47079599  0.00194479  0.18848231  1
  S  S18  1  0.94033263  0.96461506  0.81495038  1
  S  S19  1  0.06884793  0.00923385  0.20274645  1
  S  S20  1  0.42235372  0.95249200  0.00093154  1
  S  S21  1  0.58945377  0.99529348  0.02481770  1
  S  S22  1  0.18769989  0.96304409  0.90921087  1
  S  S23  1  0.83720407  0.00010513  0.11294591  1
  S  S24  1  0.09240656  0.51174293  0.64833744  1
  S  S25  1  0.88816051  0.49127214  0.33267164  1
  S  S26  1  0.74198060  0.00809959  0.32494164  1
  S  S27  1  0.27445695  0.05819933  0.68970012  1
  S  S28  1  0.16676262  0.48932164  0.45485344  1
  S  S29  1  0.84397075  0.53618599  0.56542185  1
  S  S30  1  0.44780126  0.47033981  0.83207016  1
  S  S31  1  0.58631539  0.52893348  0.21565924  1
  S  S32  1  0.91856981  0.47059897  0.98853515  1
  S  S33  1  0.08359229  0.48956733  0.00527207  1
  S  S34  1  0.68678770  0.46498416  0.91568485  1
  S  S35  1  0.36025156  0.48068642  0.11472726  1
  S  S36  1  0.61620021  0.91333391  0.67322168  1
  S  S37  1  0.42620541  0.96577024  0.37678918  1
  S  S38  1  0.24950882  0.48930713  0.28814475  1
  S  S39  1  0.76359038  0.50674526  0.68057711  1
  S  S40  1  0.67028680  0.98328511  0.44803934  1
  S  S41  1  0.32169770  0.03384812  0.52919044  1
