# generated using pymatgen
data_Pr2Mn3(SbS3)4
_symmetry_space_group_name_H-M   'P 1'
_cell_length_a   20.02960800
_cell_length_b   3.90410600
_cell_length_c   14.95364829
_cell_angle_alpha   90.00000000
_cell_angle_beta   126.33350609
_cell_angle_gamma   90.00000000
_symmetry_Int_Tables_number   1
_chemical_formula_structural   Pr2Mn3(SbS3)4
_chemical_formula_sum   'Pr4 Mn6 Sb8 S24'
_cell_volume   942.00006694
_cell_formula_units_Z   2
loop_
 _symmetry_equiv_pos_site_id
 _symmetry_equiv_pos_as_xyz
  1  'x, y, z'
loop_
 _atom_site_type_symbol
 _atom_site_label
 _atom_site_symmetry_multiplicity
 _atom_site_fract_x
 _atom_site_fract_y
 _atom_site_fract_z
 _atom_site_occupancy
  Pr  Pr0  1  0.26556516  0.45441077  0.86697830  1
  Pr  Pr1  1  0.73485730  0.55210868  0.13599246  1
  Pr  Pr2  1  0.77797274  0.97619869  0.87123832  1
  Pr  Pr3  1  0.22766835  0.97935110  0.12672231  1
  Mn  Mn4  1  0.29290838  0.54456709  0.59848372  1
  Mn  Mn5  1  0.70617565  0.51642430  0.39152374  1
  Mn  Mn6  1  0.99073850  0.91168247  0.98971064  1
  Mn  Mn7  1  0.79377690  0.05076891  0.59928065  1
  Mn  Mn8  1  0.18438446  0.00459315  0.39152711  1
  Mn  Mn9  1  0.52394593  0.52462412  0.02418014  1
  Sb  Sb10  1  0.89564669  0.00359555  0.45447889  1
  Sb  Sb11  1  0.11359358  0.00652645  0.55259534  1
  Sb  Sb12  1  0.03035733  0.51154322  0.80701543  1
  Sb  Sb13  1  0.96290668  0.48729865  0.18671938  1
  Sb  Sb14  1  0.40358679  0.50864265  0.46523861  1
  Sb  Sb15  1  0.60548739  0.43381331  0.55112173  1
  Sb  Sb16  1  0.52586197  0.96859303  0.80814022  1
  Sb  Sb17  1  0.47079930  0.00269657  0.18838466  1
  S  S18  1  0.94051859  0.96340403  0.81533446  1
  S  S19  1  0.06922926  0.01008970  0.20317081  1
  S  S20  1  0.42227649  0.95299729  0.00143964  1
  S  S21  1  0.58929632  0.99430600  0.02492296  1
  S  S22  1  0.18746813  0.96387188  0.90924446  1
  S  S23  1  0.83742818  0.99911442  0.11303401  1
  S  S24  1  0.09207533  0.51117781  0.64832796  1
  S  S25  1  0.88813331  0.49213557  0.33270633  1
  S  S26  1  0.74192759  0.00708557  0.32471465  1
  S  S27  1  0.27461477  0.05956057  0.68975750  1
  S  S28  1  0.16653679  0.48818026  0.45440598  1
  S  S29  1  0.84399000  0.53694811  0.56556464  1
  S  S30  1  0.44748751  0.47154385  0.83219224  1
  S  S31  1  0.58663600  0.52903952  0.21584253  1
  S  S32  1  0.91862364  0.47016748  0.98878229  1
  S  S33  1  0.08375238  0.48972993  0.00515915  1
  S  S34  1  0.68645275  0.46505956  0.91515683  1
  S  S35  1  0.36056650  0.48050265  0.11509059  1
  S  S36  1  0.61585912  0.91496440  0.67259933  1
  S  S37  1  0.42604803  0.96593306  0.37678106  1
  S  S38  1  0.24901381  0.48953017  0.28794482  1
  S  S39  1  0.76356327  0.50761305  0.68064618  1
  S  S40  1  0.67024237  0.98221280  0.44814809  1
  S  S41  1  0.32156601  0.03309896  0.52940295  1
