# generated using pymatgen
data_Pr2Mn3(SbS3)4
_symmetry_space_group_name_H-M   'P 1'
_cell_length_a   20.02960800
_cell_length_b   3.90410600
_cell_length_c   14.95364829
_cell_angle_alpha   90.00000000
_cell_angle_beta   126.33350609
_cell_angle_gamma   90.00000000
_symmetry_Int_Tables_number   1
_chemical_formula_structural   Pr2Mn3(SbS3)4
_chemical_formula_sum   'Pr4 Mn6 Sb8 S24'
_cell_volume   942.00006694
_cell_formula_units_Z   2
loop_
 _symmetry_equiv_pos_site_id
 _symmetry_equiv_pos_as_xyz
  1  'x, y, z'
loop_
 _atom_site_type_symbol
 _atom_site_label
 _atom_site_symmetry_multiplicity
 _atom_site_fract_x
 _atom_site_fract_y
 _atom_site_fract_z
 _atom_site_occupancy
  Pr  Pr0  1  0.26568620  0.45429592  0.86700232  1
  Pr  Pr1  1  0.73475848  0.55225115  0.13578959  1
  Pr  Pr2  1  0.77787562  0.97598601  0.87116732  1
  Pr  Pr3  1  0.22755716  0.97945480  0.12662492  1
  Mn  Mn4  1  0.29285637  0.54513721  0.59825258  1
  Mn  Mn5  1  0.70622830  0.51627199  0.39152254  1
  Mn  Mn6  1  0.99095975  0.91138431  0.99004147  1
  Mn  Mn7  1  0.79352071  0.05051155  0.59898024  1
  Mn  Mn8  1  0.18403127  0.00455407  0.39130396  1
  Mn  Mn9  1  0.52396813  0.52540543  0.02425400  1
  Sb  Sb10  1  0.89562235  0.00360124  0.45457613  1
  Sb  Sb11  1  0.11347851  0.00739306  0.55258221  1
  Sb  Sb12  1  0.03048896  0.51090404  0.80712119  1
  Sb  Sb13  1  0.96284062  0.48737360  0.18676226  1
  Sb  Sb14  1  0.40364182  0.50869602  0.46525342  1
  Sb  Sb15  1  0.60569611  0.43348612  0.55122751  1
  Sb  Sb16  1  0.52594930  0.96823884  0.80830438  1
  Sb  Sb17  1  0.47081931  0.00339227  0.18827949  1
  S  S18  1  0.94056574  0.96257198  0.81573798  1
  S  S19  1  0.06945774  0.01093827  0.20355411  1
  S  S20  1  0.42222569  0.95362790  0.00195162  1
  S  S21  1  0.58917005  0.99301802  0.02488914  1
  S  S22  1  0.18720538  0.96450293  0.90935949  1
  S  S23  1  0.83782511  0.99843670  0.11330274  1
  S  S24  1  0.09183212  0.51111725  0.64838374  1
  S  S25  1  0.88802069  0.49299710  0.33280530  1
  S  S26  1  0.74202323  0.00613640  0.32459948  1
  S  S27  1  0.27478756  0.06084466  0.69005430  1
  S  S28  1  0.16648134  0.48746801  0.45433281  1
  S  S29  1  0.84415789  0.53799141  0.56583961  1
  S  S30  1  0.44707111  0.47252003  0.83223512  1
  S  S31  1  0.58691268  0.52944808  0.21617792  1
  S  S32  1  0.91863971  0.47016338  0.98907886  1
  S  S33  1  0.08378688  0.49025214  0.00506001  1
  S  S34  1  0.68614690  0.46554243  0.91443243  1
  S  S35  1  0.36075540  0.48042793  0.11532014  1
  S  S36  1  0.61560475  0.91596137  0.67216457  1
  S  S37  1  0.42593610  0.96686157  0.37678796  1
  S  S38  1  0.24863122  0.48973455  0.28766949  1
  S  S39  1  0.76346413  0.50767387  0.68061238  1
  S  S40  1  0.67019100  0.98080974  0.44809118  1
  S  S41  1  0.32136571  0.03189563  0.52969638  1
