# generated using pymatgen
data_Pr2Mn3(SbS3)4
_symmetry_space_group_name_H-M   'P 1'
_cell_length_a   20.02960800
_cell_length_b   3.90410600
_cell_length_c   14.95364829
_cell_angle_alpha   90.00000000
_cell_angle_beta   126.33350609
_cell_angle_gamma   90.00000000
_symmetry_Int_Tables_number   1
_chemical_formula_structural   Pr2Mn3(SbS3)4
_chemical_formula_sum   'Pr4 Mn6 Sb8 S24'
_cell_volume   942.00006694
_cell_formula_units_Z   2
loop_
 _symmetry_equiv_pos_site_id
 _symmetry_equiv_pos_as_xyz
  1  'x, y, z'
loop_
 _atom_site_type_symbol
 _atom_site_label
 _atom_site_symmetry_multiplicity
 _atom_site_fract_x
 _atom_site_fract_y
 _atom_site_fract_z
 _atom_site_occupancy
  Pr  Pr0  1  0.26584160  0.45394835  0.86712395  1
  Pr  Pr1  1  0.73466404  0.55220632  0.13555705  1
  Pr  Pr2  1  0.77773957  0.97568652  0.87103241  1
  Pr  Pr3  1  0.22744114  0.97989256  0.12653425  1
  Mn  Mn4  1  0.29280693  0.54599677  0.59798257  1
  Mn  Mn5  1  0.70620100  0.51664806  0.39150426  1
  Mn  Mn6  1  0.99111510  0.91115607  0.99043630  1
  Mn  Mn7  1  0.79336961  0.05084409  0.59898540  1
  Mn  Mn8  1  0.18370196  0.00432770  0.39113769  1
  Mn  Mn9  1  0.52398546  0.52550494  0.02442636  1
  Sb  Sb10  1  0.89558036  0.00336007  0.45462640  1
  Sb  Sb11  1  0.11344325  0.00800265  0.55260253  1
  Sb  Sb12  1  0.03057025  0.51045347  0.80710855  1
  Sb  Sb13  1  0.96282360  0.48767087  0.18677622  1
  Sb  Sb14  1  0.40368546  0.50878488  0.46519785  1
  Sb  Sb15  1  0.60585069  0.43311670  0.55124916  1
  Sb  Sb16  1  0.52597184  0.96826844  0.80845477  1
  Sb  Sb17  1  0.47081018  0.00410746  0.18816946  1
  S  S18  1  0.94049289  0.96163993  0.81596563  1
  S  S19  1  0.06958067  0.01165758  0.20390270  1
  S  S20  1  0.42202388  0.95432565  0.00230411  1
  S  S21  1  0.58899331  0.99197274  0.02482002  1
  S  S22  1  0.18688053  0.96561187  0.90938412  1
  S  S23  1  0.83806216  0.99762244  0.11346094  1
  S  S24  1  0.09169165  0.51006985  0.64875061  1
  S  S25  1  0.88807643  0.49357713  0.33315253  1
  S  S26  1  0.74195853  0.00493444  0.32435427  1
  S  S27  1  0.27503365  0.06180641  0.69043216  1
  S  S28  1  0.16628656  0.48740629  0.45424602  1
  S  S29  1  0.84420144  0.53819406  0.56596732  1
  S  S30  1  0.44683675  0.47403267  0.83221602  1
  S  S31  1  0.58709059  0.52935810  0.21651536  1
  S  S32  1  0.91862209  0.47050770  0.98937015  1
  S  S33  1  0.08371371  0.49107716  0.00486435  1
  S  S34  1  0.68595461  0.46613314  0.91374881  1
  S  S35  1  0.36077671  0.48042345  0.11549221  1
  S  S36  1  0.61532068  0.91745919  0.67185343  1
  S  S37  1  0.42596204  0.96779594  0.37688407  1
  S  S38  1  0.24849721  0.48931812  0.28764755  1
  S  S39  1  0.76339996  0.50748956  0.68066937  1
  S  S40  1  0.67010624  0.97872380  0.44788836  1
  S  S41  1  0.32121126  0.03064331  0.53004822  1
