# generated using pymatgen
data_Pr2Mn3(SbS3)4
_symmetry_space_group_name_H-M   'P 1'
_cell_length_a   20.02960800
_cell_length_b   3.90410600
_cell_length_c   14.95364829
_cell_angle_alpha   90.00000000
_cell_angle_beta   126.33350609
_cell_angle_gamma   90.00000000
_symmetry_Int_Tables_number   1
_chemical_formula_structural   Pr2Mn3(SbS3)4
_chemical_formula_sum   'Pr4 Mn6 Sb8 S24'
_cell_volume   942.00006694
_cell_formula_units_Z   2
loop_
 _symmetry_equiv_pos_site_id
 _symmetry_equiv_pos_as_xyz
  1  'x, y, z'
loop_
 _atom_site_type_symbol
 _atom_site_label
 _atom_site_symmetry_multiplicity
 _atom_site_fract_x
 _atom_site_fract_y
 _atom_site_fract_z
 _atom_site_occupancy
  Pr  Pr0  1  0.26147878  0.49501119  0.86601584  1
  Pr  Pr1  1  0.74034191  0.50277795  0.13723005  1
  Pr  Pr2  1  0.76064261  0.00763671  0.86145873  1
  Pr  Pr3  1  0.24008201  0.99101190  0.13872529  1
  Mn  Mn4  1  0.29938346  0.50568678  0.62042367  1
  Mn  Mn5  1  0.69784041  0.49806157  0.38040596  1
  Mn  Mn6  1  0.00142813  0.00314063  0.00084597  1
  Mn  Mn7  1  0.80292039  0.99399382  0.61881310  1
  Mn  Mn8  1  0.19906631  0.98751079  0.37884348  1
  Mn  Mn9  1  0.50075405  0.48549376  0.00026882  1
  Sb  Sb10  1  0.89494977  0.00918632  0.45442611  1
  Sb  Sb11  1  0.10695377  0.99022472  0.55028683  1
  Sb  Sb12  1  0.03795283  0.48914825  0.81460025  1
  Sb  Sb13  1  0.96236004  0.50178774  0.18804412  1
  Sb  Sb14  1  0.39419660  0.48960951  0.45528348  1
  Sb  Sb15  1  0.60629832  0.49854083  0.54850469  1
  Sb  Sb16  1  0.53767511  0.99991710  0.81366682  1
  Sb  Sb17  1  0.46295159  0.99885883  0.18396675  1
  S  S18  1  0.93850016  0.98859243  0.79801414  1
  S  S19  1  0.05793458  0.99482182  0.19276908  1
  S  S20  1  0.40295832  0.97998382  0.97980924  1
  S  S21  1  0.59686768  0.99471112  0.01752309  1
  S  S22  1  0.16916069  0.98489737  0.90158623  1
  S  S23  1  0.82780938  0.00324785  0.10472252  1
  S  S24  1  0.08805986  0.49072443  0.64693699  1
  S  S25  1  0.91097251  0.48109779  0.35213662  1
  S  S26  1  0.74406537  0.97370419  0.29552024  1
  S  S27  1  0.25612826  0.00842135  0.70017505  1
  S  S28  1  0.15955469  0.49338645  0.44715198  1
  S  S29  1  0.83333332  0.49194725  0.54734277  1
  S  S30  1  0.43722177  0.50193660  0.79797336  1
  S  S31  1  0.56122534  0.49199831  0.19817403  1
  S  S32  1  0.90197521  0.47842079  0.97835415  1
  S  S33  1  0.09249816  0.48580496  0.01804167  1
  S  S34  1  0.66523278  0.51222997  0.89545725  1
  S  S35  1  0.33377088  0.50625740  0.10561320  1
  S  S36  1  0.59138258  0.01590109  0.64943581  1
  S  S37  1  0.41343288  0.98700785  0.35786818  1
  S  S38  1  0.24230157  0.47661751  0.29382511  1
  S  S39  1  0.76423278  0.50175650  0.70568499  1
  S  S40  1  0.66202456  0.00377107  0.45924980  1
  S  S41  1  0.33747732  0.99064579  0.54235141  1
