# generated using pymatgen
data_Pr2Mn3(SbS3)4
_symmetry_space_group_name_H-M   'P 1'
_cell_length_a   20.02960800
_cell_length_b   3.90410600
_cell_length_c   14.95364829
_cell_angle_alpha   90.00000000
_cell_angle_beta   126.33350609
_cell_angle_gamma   90.00000000
_symmetry_Int_Tables_number   1
_chemical_formula_structural   Pr2Mn3(SbS3)4
_chemical_formula_sum   'Pr4 Mn6 Sb8 S24'
_cell_volume   942.00006694
_cell_formula_units_Z   2
loop_
 _symmetry_equiv_pos_site_id
 _symmetry_equiv_pos_as_xyz
  1  'x, y, z'
loop_
 _atom_site_type_symbol
 _atom_site_label
 _atom_site_symmetry_multiplicity
 _atom_site_fract_x
 _atom_site_fract_y
 _atom_site_fract_z
 _atom_site_occupancy
  Pr  Pr0  1  0.26946020  0.50337226  0.86755054  1
  Pr  Pr1  1  0.73374190  0.51345621  0.13433526  1
  Pr  Pr2  1  0.76492797  0.03000711  0.86846392  1
  Pr  Pr3  1  0.23071147  0.98683424  0.13115708  1
  Mn  Mn4  1  0.30108758  0.46499247  0.60847165  1
  Mn  Mn5  1  0.68535620  0.46767485  0.36397720  1
  Mn  Mn6  1  0.00282953  0.99288958  0.01036039  1
  Mn  Mn7  1  0.79326314  0.02491281  0.61479850  1
  Mn  Mn8  1  0.19339285  0.00151180  0.36487872  1
  Mn  Mn9  1  0.48266883  0.47319751  0.98195506  1
  Sb  Sb10  1  0.88953347  0.98594281  0.44773721  1
  Sb  Sb11  1  0.11055180  0.98006136  0.54645210  1
  Sb  Sb12  1  0.03494584  0.52991437  0.82155310  1
  Sb  Sb13  1  0.96707567  0.49510123  0.19023789  1
  Sb  Sb14  1  0.39492772  0.49880425  0.45035161  1
  Sb  Sb15  1  0.61067090  0.48001806  0.54750708  1
  Sb  Sb16  1  0.53187148  0.97298582  0.80614966  1
  Sb  Sb17  1  0.46569076  0.02310490  0.18735135  1
  S  S18  1  0.93945058  0.02133181  0.80831656  1
  S  S19  1  0.06719901  0.00573305  0.20830524  1
  S  S20  1  0.41918878  0.97192146  0.98282865  1
  S  S21  1  0.58735486  0.03172864  0.01524132  1
  S  S22  1  0.16451985  0.03727801  0.90066788  1
  S  S23  1  0.82613859  0.00701375  0.10509252  1
  S  S24  1  0.08634644  0.49744002  0.64038927  1
  S  S25  1  0.91466554  0.48222594  0.35178972  1
  S  S26  1  0.73515931  0.01246955  0.29547280  1
  S  S27  1  0.25818286  0.01969669  0.70485969  1
  S  S28  1  0.16788306  0.51570345  0.43749538  1
  S  S29  1  0.80945188  0.51183357  0.53867825  1
  S  S30  1  0.43173820  0.47642477  0.79908882  1
  S  S31  1  0.55327547  0.51189807  0.18022442  1
  S  S32  1  0.92392002  0.50664779  0.99207903  1
  S  S33  1  0.09150257  0.49610696  0.02690911  1
  S  S34  1  0.66779824  0.56080747  0.89852700  1
  S  S35  1  0.32846854  0.46404455  0.09501485  1
  S  S36  1  0.58800158  0.99621553  0.64757915  1
  S  S37  1  0.39564801  0.97999089  0.33382657  1
  S  S38  1  0.24672741  0.47523451  0.31658304  1
  S  S39  1  0.76220308  0.51831045  0.69122933  1
  S  S40  1  0.66148816  0.98244947  0.44100335  1
  S  S41  1  0.32893674  0.97829080  0.55163019  1
