# generated using pymatgen
data_Pr2Mn3(SbS3)4
_symmetry_space_group_name_H-M   'P 1'
_cell_length_a   20.02960800
_cell_length_b   3.90410600
_cell_length_c   14.95364829
_cell_angle_alpha   90.00000000
_cell_angle_beta   126.33350609
_cell_angle_gamma   90.00000000
_symmetry_Int_Tables_number   1
_chemical_formula_structural   Pr2Mn3(SbS3)4
_chemical_formula_sum   'Pr4 Mn6 Sb8 S24'
_cell_volume   942.00006694
_cell_formula_units_Z   2
loop_
 _symmetry_equiv_pos_site_id
 _symmetry_equiv_pos_as_xyz
  1  'x, y, z'
loop_
 _atom_site_type_symbol
 _atom_site_label
 _atom_site_symmetry_multiplicity
 _atom_site_fract_x
 _atom_site_fract_y
 _atom_site_fract_z
 _atom_site_occupancy
  Pr  Pr0  1  0.26600409  0.45368634  0.86720517  1
  Pr  Pr1  1  0.73457301  0.55250296  0.13535985  1
  Pr  Pr2  1  0.77762361  0.97548170  0.87089211  1
  Pr  Pr3  1  0.22735060  0.98020930  0.12642570  1
  Mn  Mn4  1  0.29287016  0.54712203  0.59780384  1
  Mn  Mn5  1  0.70611151  0.51708254  0.39137410  1
  Mn  Mn6  1  0.99122369  0.91118836  0.99068581  1
  Mn  Mn7  1  0.79322419  0.05155402  0.59896545  1
  Mn  Mn8  1  0.18335389  0.00367191  0.39107546  1
  Mn  Mn9  1  0.52406415  0.52566677  0.02469139  1
  Sb  Sb10  1  0.89550586  0.00312672  0.45469230  1
  Sb  Sb11  1  0.11344487  0.00847508  0.55266451  1
  Sb  Sb12  1  0.03060808  0.50973169  0.80707014  1
  Sb  Sb13  1  0.96290691  0.48777988  0.18686464  1
  Sb  Sb14  1  0.40363899  0.50915739  0.46512624  1
  Sb  Sb15  1  0.60598495  0.43286553  0.55131020  1
  Sb  Sb16  1  0.52600495  0.96793065  0.80844915  1
  Sb  Sb17  1  0.47075326  0.00471936  0.18809778  1
  S  S18  1  0.94046993  0.96100502  0.81619200  1
  S  S19  1  0.06935912  0.01221882  0.20397885  1
  S  S20  1  0.42182939  0.95505792  0.00266322  1
  S  S21  1  0.58880824  0.99092478  0.02492887  1
  S  S22  1  0.18670059  0.96592217  0.90942148  1
  S  S23  1  0.83827209  0.99677620  0.11358220  1
  S  S24  1  0.09141414  0.50918008  0.64890310  1
  S  S25  1  0.88809817  0.49424991  0.33320522  1
  S  S26  1  0.74183821  0.00401720  0.32408972  1
  S  S27  1  0.27522939  0.06296412  0.69096345  1
  S  S28  1  0.16611330  0.48703987  0.45423299  1
  S  S29  1  0.84415886  0.53718032  0.56608220  1
  S  S30  1  0.44656907  0.47553787  0.83224351  1
  S  S31  1  0.58721946  0.52892219  0.21681400  1
  S  S32  1  0.91867922  0.47082978  0.98963928  1
  S  S33  1  0.08357902  0.49112319  0.00458190  1
  S  S34  1  0.68597463  0.46657010  0.91323050  1
  S  S35  1  0.36076614  0.47946696  0.11564677  1
  S  S36  1  0.61486168  0.91848576  0.67133485  1
  S  S37  1  0.42598744  0.96866929  0.37690248  1
  S  S38  1  0.24829740  0.48949345  0.28758456  1
  S  S39  1  0.76338512  0.50702143  0.68066023  1
  S  S40  1  0.66995956  0.97659100  0.44766785  1
  S  S41  1  0.32100542  0.02935128  0.53046757  1
