# generated using pymatgen
data_Pr2Mn3(SbS3)4
_symmetry_space_group_name_H-M   'P 1'
_cell_length_a   20.02960800
_cell_length_b   3.90410600
_cell_length_c   14.95364829
_cell_angle_alpha   90.00000000
_cell_angle_beta   126.33350609
_cell_angle_gamma   90.00000000
_symmetry_Int_Tables_number   1
_chemical_formula_structural   Pr2Mn3(SbS3)4
_chemical_formula_sum   'Pr4 Mn6 Sb8 S24'
_cell_volume   942.00006694
_cell_formula_units_Z   2
loop_
 _symmetry_equiv_pos_site_id
 _symmetry_equiv_pos_as_xyz
  1  'x, y, z'
loop_
 _atom_site_type_symbol
 _atom_site_label
 _atom_site_symmetry_multiplicity
 _atom_site_fract_x
 _atom_site_fract_y
 _atom_site_fract_z
 _atom_site_occupancy
  Pr  Pr0  1  0.26615991  0.45347921  0.86732256  1
  Pr  Pr1  1  0.73445699  0.55258838  0.13516169  1
  Pr  Pr2  1  0.77760033  0.97516915  0.87080785  1
  Pr  Pr3  1  0.22723271  0.98049289  0.12626190  1
  Mn  Mn4  1  0.29288896  0.54792837  0.59760021  1
  Mn  Mn5  1  0.70605630  0.51727455  0.39125499  1
  Mn  Mn6  1  0.99137373  0.91097414  0.99095193  1
  Mn  Mn7  1  0.79310445  0.05175022  0.59895963  1
  Mn  Mn8  1  0.18302600  0.00262921  0.39111168  1
  Mn  Mn9  1  0.52413250  0.52593879  0.02506414  1
  Sb  Sb10  1  0.89535662  0.00292193  0.45461067  1
  Sb  Sb11  1  0.11349425  0.00893295  0.55271614  1
  Sb  Sb12  1  0.03062280  0.50888568  0.80695293  1
  Sb  Sb13  1  0.96293092  0.48760236  0.18687460  1
  Sb  Sb14  1  0.40359383  0.50912883  0.46512017  1
  Sb  Sb15  1  0.60615948  0.43255232  0.55140316  1
  Sb  Sb16  1  0.52614046  0.96766601  0.80857146  1
  Sb  Sb17  1  0.47065872  0.00508742  0.18792863  1
  S  S18  1  0.94049291  0.96030313  0.81666202  1
  S  S19  1  0.06913150  0.01314983  0.20418392  1
  S  S20  1  0.42147644  0.95541427  0.00274431  1
  S  S21  1  0.58875328  0.99073922  0.02500234  1
  S  S22  1  0.18669634  0.96682377  0.90958473  1
  S  S23  1  0.83849814  0.99600420  0.11366220  1
  S  S24  1  0.09108192  0.50823438  0.64886257  1
  S  S25  1  0.88802857  0.49527359  0.33325595  1
  S  S26  1  0.74178819  0.00332703  0.32376224  1
  S  S27  1  0.27525811  0.06434452  0.69136718  1
  S  S28  1  0.16590844  0.48645671  0.45398449  1
  S  S29  1  0.84413554  0.53586000  0.56619054  1
  S  S30  1  0.44642907  0.47747235  0.83252835  1
  S  S31  1  0.58741883  0.52812669  0.21703896  1
  S  S32  1  0.91885108  0.47173909  0.99014895  1
  S  S33  1  0.08333951  0.49085409  0.00409100  1
  S  S34  1  0.68597268  0.46653734  0.91267556  1
  S  S35  1  0.36059733  0.47932304  0.11574262  1
  S  S36  1  0.61439444  0.91920706  0.67058319  1
  S  S37  1  0.42587912  0.96916462  0.37692941  1
  S  S38  1  0.24807657  0.49001969  0.28754674  1
  S  S39  1  0.76343039  0.50681425  0.68071888  1
  S  S40  1  0.66982503  0.97460967  0.44760376  1
  S  S41  1  0.32078258  0.02811322  0.53072114  1
