# generated using pymatgen
data_Pr2Mn3(SbS3)4
_symmetry_space_group_name_H-M   'P 1'
_cell_length_a   20.02960800
_cell_length_b   3.90410600
_cell_length_c   14.95364829
_cell_angle_alpha   90.00000000
_cell_angle_beta   126.33350609
_cell_angle_gamma   90.00000000
_symmetry_Int_Tables_number   1
_chemical_formula_structural   Pr2Mn3(SbS3)4
_chemical_formula_sum   'Pr4 Mn6 Sb8 S24'
_cell_volume   942.00006694
_cell_formula_units_Z   2
loop_
 _symmetry_equiv_pos_site_id
 _symmetry_equiv_pos_as_xyz
  1  'x, y, z'
loop_
 _atom_site_type_symbol
 _atom_site_label
 _atom_site_symmetry_multiplicity
 _atom_site_fract_x
 _atom_site_fract_y
 _atom_site_fract_z
 _atom_site_occupancy
  Pr  Pr0  1  0.26635934  0.45326997  0.86743220  1
  Pr  Pr1  1  0.73433165  0.55265373  0.13497635  1
  Pr  Pr2  1  0.77757266  0.97479834  0.87071186  1
  Pr  Pr3  1  0.22713466  0.98047456  0.12609828  1
  Mn  Mn4  1  0.29299891  0.54867808  0.59741870  1
  Mn  Mn5  1  0.70591173  0.51722558  0.39101752  1
  Mn  Mn6  1  0.99156840  0.91092737  0.99119629  1
  Mn  Mn7  1  0.79300384  0.05183335  0.59887684  1
  Mn  Mn8  1  0.18276038  0.00157500  0.39120769  1
  Mn  Mn9  1  0.52424376  0.52581061  0.02540511  1
  Sb  Sb10  1  0.89523805  0.00269123  0.45451248  1
  Sb  Sb11  1  0.11353718  0.00931526  0.55284782  1
  Sb  Sb12  1  0.03057478  0.50817694  0.80685185  1
  Sb  Sb13  1  0.96299024  0.48746527  0.18678954  1
  Sb  Sb14  1  0.40348710  0.50875709  0.46504080  1
  Sb  Sb15  1  0.60629359  0.43226056  0.55150332  1
  Sb  Sb16  1  0.52627943  0.96804685  0.80879316  1
  Sb  Sb17  1  0.47061327  0.00534855  0.18788161  1
  S  S18  1  0.94046527  0.95863585  0.81702450  1
  S  S19  1  0.06911529  0.01445842  0.20465674  1
  S  S20  1  0.42107411  0.95567734  0.00280268  1
  S  S21  1  0.58880826  0.99067893  0.02515839  1
  S  S22  1  0.18670883  0.96806241  0.90954523  1
  S  S23  1  0.83864793  0.99519495  0.11385831  1
  S  S24  1  0.09088452  0.50730883  0.64884497  1
  S  S25  1  0.88809248  0.49565533  0.33353810  1
  S  S26  1  0.74162208  0.00281831  0.32312876  1
  S  S27  1  0.27530747  0.06639644  0.69172714  1
  S  S28  1  0.16554505  0.48639807  0.45354219  1
  S  S29  1  0.84429564  0.53443979  0.56651209  1
  S  S30  1  0.44629887  0.47941731  0.83283527  1
  S  S31  1  0.58757718  0.52738998  0.21721861  1
  S  S32  1  0.91901892  0.47196849  0.99062312  1
  S  S33  1  0.08322467  0.49143126  0.00366439  1
  S  S34  1  0.68607338  0.46711433  0.91229508  1
  S  S35  1  0.36044212  0.47843782  0.11566667  1
  S  S36  1  0.61397302  0.92027152  0.66991592  1
  S  S37  1  0.42574682  0.97003343  0.37692896  1
  S  S38  1  0.24795742  0.49082177  0.28767404  1
  S  S39  1  0.76348578  0.50743830  0.68073696  1
  S  S40  1  0.66967610  0.97332460  0.44744593  1
  S  S41  1  0.32047796  0.02728535  0.53082911  1
