# generated using pymatgen
data_Pr2Mn3(SbS3)4
_symmetry_space_group_name_H-M   'P 1'
_cell_length_a   20.02960800
_cell_length_b   3.90410600
_cell_length_c   14.95364829
_cell_angle_alpha   90.00000000
_cell_angle_beta   126.33350609
_cell_angle_gamma   90.00000000
_symmetry_Int_Tables_number   1
_chemical_formula_structural   Pr2Mn3(SbS3)4
_chemical_formula_sum   'Pr4 Mn6 Sb8 S24'
_cell_volume   942.00006694
_cell_formula_units_Z   2
loop_
 _symmetry_equiv_pos_site_id
 _symmetry_equiv_pos_as_xyz
  1  'x, y, z'
loop_
 _atom_site_type_symbol
 _atom_site_label
 _atom_site_symmetry_multiplicity
 _atom_site_fract_x
 _atom_site_fract_y
 _atom_site_fract_z
 _atom_site_occupancy
  Pr  Pr0  1  0.26652069  0.45309107  0.86754028  1
  Pr  Pr1  1  0.73415276  0.55259240  0.13477339  1
  Pr  Pr2  1  0.77749773  0.97461834  0.87052980  1
  Pr  Pr3  1  0.22710490  0.98068273  0.12604584  1
  Mn  Mn4  1  0.29316165  0.54918663  0.59718072  1
  Mn  Mn5  1  0.70587255  0.51730741  0.39084495  1
  Mn  Mn6  1  0.99171402  0.91101402  0.99137132  1
  Mn  Mn7  1  0.79287274  0.05192059  0.59875372  1
  Mn  Mn8  1  0.18260157  0.00031927  0.39137420  1
  Mn  Mn9  1  0.52437790  0.52531046  0.02580363  1
  Sb  Sb10  1  0.89515575  0.00204326  0.45451938  1
  Sb  Sb11  1  0.11360331  0.00966250  0.55299093  1
  Sb  Sb12  1  0.03052446  0.50738589  0.80667716  1
  Sb  Sb13  1  0.96302664  0.48710147  0.18659827  1
  Sb  Sb14  1  0.40340112  0.50853458  0.46496141  1
  Sb  Sb15  1  0.60643358  0.43201562  0.55154755  1
  Sb  Sb16  1  0.52652337  0.96853890  0.80908531  1
  Sb  Sb17  1  0.47057826  0.00581678  0.18794924  1
  S  S18  1  0.94059733  0.95767804  0.81741811  1
  S  S19  1  0.06906954  0.01587433  0.20510118  1
  S  S20  1  0.42061566  0.95547535  0.00291056  1
  S  S21  1  0.58888481  0.99091062  0.02524111  1
  S  S22  1  0.18673983  0.96963308  0.90958370  1
  S  S23  1  0.83868933  0.99446177  0.11400125  1
  S  S24  1  0.09071275  0.50592393  0.64883724  1
  S  S25  1  0.88815207  0.49555555  0.33374083  1
  S  S26  1  0.74150851  0.00222237  0.32258490  1
  S  S27  1  0.27532313  0.06763116  0.69210849  1
  S  S28  1  0.16515657  0.48667877  0.45314729  1
  S  S29  1  0.84438114  0.53285748  0.56685081  1
  S  S30  1  0.44621012  0.48128563  0.83324273  1
  S  S31  1  0.58777945  0.52691745  0.21752329  1
  S  S32  1  0.91917083  0.47207703  0.99115033  1
  S  S33  1  0.08322140  0.49227547  0.00335028  1
  S  S34  1  0.68633904  0.46766370  0.91202353  1
  S  S35  1  0.36026380  0.47758776  0.11557295  1
  S  S36  1  0.61357828  0.92134154  0.66926046  1
  S  S37  1  0.42566791  0.97109030  0.37705012  1
  S  S38  1  0.24786046  0.49174433  0.28777762  1
  S  S39  1  0.76353021  0.50787626  0.68064218  1
  S  S40  1  0.66956897  0.97271350  0.44748181  1
  S  S41  1  0.32012651  0.02663061  0.53068135  1
