# generated using pymatgen
data_Pr2Mn3(SbS3)4
_symmetry_space_group_name_H-M   'P 1'
_cell_length_a   20.02960800
_cell_length_b   3.90410600
_cell_length_c   14.95364829
_cell_angle_alpha   90.00000000
_cell_angle_beta   126.33350609
_cell_angle_gamma   90.00000000
_symmetry_Int_Tables_number   1
_chemical_formula_structural   Pr2Mn3(SbS3)4
_chemical_formula_sum   'Pr4 Mn6 Sb8 S24'
_cell_volume   942.00006694
_cell_formula_units_Z   2
loop_
 _symmetry_equiv_pos_site_id
 _symmetry_equiv_pos_as_xyz
  1  'x, y, z'
loop_
 _atom_site_type_symbol
 _atom_site_label
 _atom_site_symmetry_multiplicity
 _atom_site_fract_x
 _atom_site_fract_y
 _atom_site_fract_z
 _atom_site_occupancy
  Pr  Pr0  1  0.26672194  0.45280061  0.86768179  1
  Pr  Pr1  1  0.73397112  0.55265459  0.13464151  1
  Pr  Pr2  1  0.77741334  0.97432973  0.87028487  1
  Pr  Pr3  1  0.22715677  0.98096930  0.12603144  1
  Mn  Mn4  1  0.29337480  0.54939204  0.59696728  1
  Mn  Mn5  1  0.70584712  0.51735347  0.39079350  1
  Mn  Mn6  1  0.99165096  0.91153365  0.99127780  1
  Mn  Mn7  1  0.79275571  0.05172956  0.59865843  1
  Mn  Mn8  1  0.18265131  0.99903805  0.39176907  1
  Mn  Mn9  1  0.52450685  0.52475025  0.02638959  1
  Sb  Sb10  1  0.89513405  0.00160310  0.45459864  1
  Sb  Sb11  1  0.11365865  0.00970982  0.55306072  1
  Sb  Sb12  1  0.03055140  0.50662928  0.80654859  1
  Sb  Sb13  1  0.96308952  0.48685842  0.18645819  1
  Sb  Sb14  1  0.40329027  0.50815691  0.46484943  1
  Sb  Sb15  1  0.60661973  0.43197501  0.55167165  1
  Sb  Sb16  1  0.52667287  0.96878322  0.80938337  1
  Sb  Sb17  1  0.47050819  0.00605033  0.18802909  1
  S  S18  1  0.94111391  0.95710153  0.81834148  1
  S  S19  1  0.06918878  0.01766662  0.20558399  1
  S  S20  1  0.42009013  0.95592766  0.00288250  1
  S  S21  1  0.58883934  0.99163654  0.02500557  1
  S  S22  1  0.18677004  0.97182029  0.90955033  1
  S  S23  1  0.83881382  0.99390072  0.11410385  1
  S  S24  1  0.09051753  0.50427851  0.64882319  1
  S  S25  1  0.88829157  0.49529158  0.33397428  1
  S  S26  1  0.74140238  0.00150476  0.32209615  1
  S  S27  1  0.27533717  0.06873399  0.69259665  1
  S  S28  1  0.16471601  0.48661843  0.45274465  1
  S  S29  1  0.84427966  0.53142912  0.56707436  1
  S  S30  1  0.44616646  0.48296123  0.83360895  1
  S  S31  1  0.58808071  0.52533311  0.21801838  1
  S  S32  1  0.91917028  0.47148272  0.99169529  1
  S  S33  1  0.08319949  0.49301967  0.00316095  1
  S  S34  1  0.68663709  0.46818152  0.91170566  1
  S  S35  1  0.36005651  0.47715431  0.11556882  1
  S  S36  1  0.61323935  0.92211661  0.66869235  1
  S  S37  1  0.42543600  0.97218335  0.37695594  1
  S  S38  1  0.24777164  0.49256135  0.28766555  1
  S  S39  1  0.76376512  0.50804028  0.68072356  1
  S  S40  1  0.66953279  0.97255024  0.44767807  1
  S  S41  1  0.31984687  0.02595905  0.53066916  1
