# generated using pymatgen
data_Pr2Mn3(SbS3)4
_symmetry_space_group_name_H-M   'P 1'
_cell_length_a   20.02960800
_cell_length_b   3.90410600
_cell_length_c   14.95364829
_cell_angle_alpha   90.00000000
_cell_angle_beta   126.33350609
_cell_angle_gamma   90.00000000
_symmetry_Int_Tables_number   1
_chemical_formula_structural   Pr2Mn3(SbS3)4
_chemical_formula_sum   'Pr4 Mn6 Sb8 S24'
_cell_volume   942.00006694
_cell_formula_units_Z   2
loop_
 _symmetry_equiv_pos_site_id
 _symmetry_equiv_pos_as_xyz
  1  'x, y, z'
loop_
 _atom_site_type_symbol
 _atom_site_label
 _atom_site_symmetry_multiplicity
 _atom_site_fract_x
 _atom_site_fract_y
 _atom_site_fract_z
 _atom_site_occupancy
  Pr  Pr0  1  0.26687821  0.45230845  0.86780722  1
  Pr  Pr1  1  0.73378860  0.55304276  0.13455602  1
  Pr  Pr2  1  0.77731183  0.97406267  0.86999908  1
  Pr  Pr3  1  0.22715147  0.98105986  0.12601549  1
  Mn  Mn4  1  0.29361083  0.54974288  0.59671233  1
  Mn  Mn5  1  0.70589415  0.51757903  0.39085279  1
  Mn  Mn6  1  0.99165102  0.91219758  0.99122383  1
  Mn  Mn7  1  0.79255629  0.05156733  0.59851492  1
  Mn  Mn8  1  0.18263983  0.99809445  0.39195640  1
  Mn  Mn9  1  0.52472968  0.52437310  0.02703131  1
  Sb  Sb10  1  0.89506942  0.00118108  0.45459818  1
  Sb  Sb11  1  0.11368982  0.00979555  0.55309513  1
  Sb  Sb12  1  0.03066035  0.50608704  0.80643095  1
  Sb  Sb13  1  0.96309638  0.48644605  0.18631521  1
  Sb  Sb14  1  0.40327649  0.50761586  0.46469395  1
  Sb  Sb15  1  0.60675142  0.43198720  0.55174158  1
  Sb  Sb16  1  0.52681483  0.96900867  0.80963060  1
  Sb  Sb17  1  0.47048023  0.00631711  0.18814224  1
  S  S18  1  0.94157444  0.95665137  0.81924779  1
  S  S19  1  0.06943010  0.01915595  0.20608060  1
  S  S20  1  0.41954120  0.95625653  0.00265783  1
  S  S21  1  0.58876951  0.99254692  0.02491079  1
  S  S22  1  0.18689157  0.97374672  0.90969759  1
  S  S23  1  0.83904860  0.99342779  0.11436843  1
  S  S24  1  0.09060504  0.50312431  0.64908287  1
  S  S25  1  0.88847003  0.49500970  0.33434725  1
  S  S26  1  0.74138329  0.00024834  0.32172912  1
  S  S27  1  0.27530562  0.06980629  0.69296429  1
  S  S28  1  0.16435213  0.48661591  0.45241693  1
  S  S29  1  0.84407394  0.52942084  0.56700933  1
  S  S30  1  0.44618014  0.48448383  0.83390184  1
  S  S31  1  0.58838024  0.52421333  0.21854901  1
  S  S32  1  0.91905903  0.47083315  0.99202151  1
  S  S33  1  0.08332544  0.49352648  0.00302646  1
  S  S34  1  0.68686068  0.46921719  0.91130079  1
  S  S35  1  0.35989349  0.47666098  0.11553982  1
  S  S36  1  0.61292562  0.92319308  0.66835931  1
  S  S37  1  0.42496904  0.97275348  0.37674776  1
  S  S38  1  0.24758369  0.49407466  0.28735487  1
  S  S39  1  0.76391755  0.50829002  0.68084523  1
  S  S40  1  0.66947773  0.97230495  0.44774513  1
  S  S41  1  0.31970901  0.02590301  0.53077618  1
