# generated using pymatgen
data_Pr2Mn3(SbS3)4
_symmetry_space_group_name_H-M   'P 1'
_cell_length_a   20.02960800
_cell_length_b   3.90410600
_cell_length_c   14.95364829
_cell_angle_alpha   90.00000000
_cell_angle_beta   126.33350609
_cell_angle_gamma   90.00000000
_symmetry_Int_Tables_number   1
_chemical_formula_structural   Pr2Mn3(SbS3)4
_chemical_formula_sum   'Pr4 Mn6 Sb8 S24'
_cell_volume   942.00006694
_cell_formula_units_Z   2
loop_
 _symmetry_equiv_pos_site_id
 _symmetry_equiv_pos_as_xyz
  1  'x, y, z'
loop_
 _atom_site_type_symbol
 _atom_site_label
 _atom_site_symmetry_multiplicity
 _atom_site_fract_x
 _atom_site_fract_y
 _atom_site_fract_z
 _atom_site_occupancy
  Pr  Pr0  1  0.26706741  0.45192638  0.86798443  1
  Pr  Pr1  1  0.73370772  0.55360471  0.13454489  1
  Pr  Pr2  1  0.77729305  0.97371807  0.86977165  1
  Pr  Pr3  1  0.22717164  0.98150170  0.12603586  1
  Mn  Mn4  1  0.29375412  0.54968725  0.59639218  1
  Mn  Mn5  1  0.70589885  0.51808658  0.39100897  1
  Mn  Mn6  1  0.99170621  0.91260116  0.99114165  1
  Mn  Mn7  1  0.79243450  0.05132129  0.59850786  1
  Mn  Mn8  1  0.18256244  0.99719531  0.39206665  1
  Mn  Mn9  1  0.52490351  0.52348538  0.02759237  1
  Sb  Sb10  1  0.89505689  0.00084910  0.45462020  1
  Sb  Sb11  1  0.11377007  0.00978437  0.55318733  1
  Sb  Sb12  1  0.03072759  0.50557722  0.80625945  1
  Sb  Sb13  1  0.96313242  0.48613442  0.18616439  1
  Sb  Sb14  1  0.40323729  0.50699482  0.46443334  1
  Sb  Sb15  1  0.60677737  0.43191127  0.55166233  1
  Sb  Sb16  1  0.52690431  0.96930816  0.80982149  1
  Sb  Sb17  1  0.47042208  0.00664006  0.18820292  1
  S  S18  1  0.94204767  0.95567165  0.82024764  1
  S  S19  1  0.06950799  0.02057288  0.20648174  1
  S  S20  1  0.41901551  0.95571375  0.00235928  1
  S  S21  1  0.58875370  0.99409907  0.02479628  1
  S  S22  1  0.18694036  0.97600554  0.90963697  1
  S  S23  1  0.83914430  0.99377440  0.11446782  1
  S  S24  1  0.09067965  0.50137465  0.64932351  1
  S  S25  1  0.88855572  0.49462634  0.33460132  1
  S  S26  1  0.74141090  0.99995826  0.32146182  1
  S  S27  1  0.27536377  0.07040305  0.69334814  1
  S  S28  1  0.16400938  0.48660918  0.45203761  1
  S  S29  1  0.84407069  0.52752442  0.56719717  1
  S  S30  1  0.44626841  0.48564363  0.83406657  1
  S  S31  1  0.58858429  0.52326796  0.21878883  1
  S  S32  1  0.91906207  0.47043857  0.99256848  1
  S  S33  1  0.08343331  0.49399318  0.00301047  1
  S  S34  1  0.68695062  0.47063474  0.91068698  1
  S  S35  1  0.35967942  0.47591954  0.11563730  1
  S  S36  1  0.61269664  0.92388972  0.66798449  1
  S  S37  1  0.42450954  0.97308530  0.37646715  1
  S  S38  1  0.24712872  0.49448724  0.28698324  1
  S  S39  1  0.76399307  0.50825557  0.68080555  1
  S  S40  1  0.66935683  0.97235051  0.44789219  1
  S  S41  1  0.31961866  0.02619147  0.53088014  1
