# generated using pymatgen
data_Pr2Mn3(SbS3)4
_symmetry_space_group_name_H-M   'P 1'
_cell_length_a   20.02960800
_cell_length_b   3.90410600
_cell_length_c   14.95364829
_cell_angle_alpha   90.00000000
_cell_angle_beta   126.33350609
_cell_angle_gamma   90.00000000
_symmetry_Int_Tables_number   1
_chemical_formula_structural   Pr2Mn3(SbS3)4
_chemical_formula_sum   'Pr4 Mn6 Sb8 S24'
_cell_volume   942.00006694
_cell_formula_units_Z   2
loop_
 _symmetry_equiv_pos_site_id
 _symmetry_equiv_pos_as_xyz
  1  'x, y, z'
loop_
 _atom_site_type_symbol
 _atom_site_label
 _atom_site_symmetry_multiplicity
 _atom_site_fract_x
 _atom_site_fract_y
 _atom_site_fract_z
 _atom_site_occupancy
  Pr  Pr0  1  0.26717542  0.45160482  0.86805556  1
  Pr  Pr1  1  0.73366526  0.55411984  0.13456284  1
  Pr  Pr2  1  0.77724295  0.97340508  0.86954500  1
  Pr  Pr3  1  0.22721653  0.98163297  0.12603481  1
  Mn  Mn4  1  0.29399413  0.55017983  0.59623092  1
  Mn  Mn5  1  0.70602022  0.51831836  0.39114289  1
  Mn  Mn6  1  0.99182013  0.91291797  0.99116045  1
  Mn  Mn7  1  0.79243147  0.05065035  0.59845000  1
  Mn  Mn8  1  0.18257195  0.99676487  0.39230422  1
  Mn  Mn9  1  0.52507983  0.52238323  0.02805653  1
  Sb  Sb10  1  0.89506206  0.00043945  0.45468947  1
  Sb  Sb11  1  0.11385475  0.00998883  0.55322598  1
  Sb  Sb12  1  0.03077234  0.50529724  0.80619175  1
  Sb  Sb13  1  0.96313663  0.48571947  0.18596956  1
  Sb  Sb14  1  0.40308020  0.50663475  0.46412533  1
  Sb  Sb15  1  0.60676779  0.43191164  0.55153290  1
  Sb  Sb16  1  0.52704370  0.96947797  0.81009588  1
  Sb  Sb17  1  0.47033188  0.00692586  0.18826835  1
  S  S18  1  0.94256915  0.95477302  0.82128261  1
  S  S19  1  0.06951476  0.02135843  0.20651754  1
  S  S20  1  0.41850630  0.95470506  0.00215593  1
  S  S21  1  0.58869803  0.99572123  0.02469564  1
  S  S22  1  0.18710733  0.97808704  0.90967065  1
  S  S23  1  0.83921170  0.99420850  0.11473898  1
  S  S24  1  0.09084344  0.49970322  0.64959212  1
  S  S25  1  0.88878832  0.49385508  0.33493251  1
  S  S26  1  0.74161001  0.99973882  0.32135559  1
  S  S27  1  0.27532982  0.07144669  0.69368509  1
  S  S28  1  0.16390055  0.48675425  0.45199478  1
  S  S29  1  0.84417520  0.52571973  0.56732921  1
  S  S30  1  0.44646284  0.48714719  0.83429271  1
  S  S31  1  0.58873172  0.52254655  0.21915297  1
  S  S32  1  0.91905508  0.47012597  0.99303426  1
  S  S33  1  0.08351288  0.49477493  0.00303727  1
  S  S34  1  0.68683671  0.47168904  0.90974080  1
  S  S35  1  0.35937988  0.47528442  0.11568361  1
  S  S36  1  0.61240823  0.92468434  0.66771602  1
  S  S37  1  0.42416605  0.97333876  0.37610738  1
  S  S38  1  0.24672610  0.49509015  0.28642440  1
  S  S39  1  0.76417393  0.50803693  0.68117137  1
  S  S40  1  0.66920156  0.97274253  0.44799179  1
  S  S41  1  0.31949501  0.02659017  0.53100963  1
