# generated using pymatgen
data_Pr2Mn3(SbS3)4
_symmetry_space_group_name_H-M   'P 1'
_cell_length_a   20.02960800
_cell_length_b   3.90410600
_cell_length_c   14.95364829
_cell_angle_alpha   90.00000000
_cell_angle_beta   126.33350609
_cell_angle_gamma   90.00000000
_symmetry_Int_Tables_number   1
_chemical_formula_structural   Pr2Mn3(SbS3)4
_chemical_formula_sum   'Pr4 Mn6 Sb8 S24'
_cell_volume   942.00006694
_cell_formula_units_Z   2
loop_
 _symmetry_equiv_pos_site_id
 _symmetry_equiv_pos_as_xyz
  1  'x, y, z'
loop_
 _atom_site_type_symbol
 _atom_site_label
 _atom_site_symmetry_multiplicity
 _atom_site_fract_x
 _atom_site_fract_y
 _atom_site_fract_z
 _atom_site_occupancy
  Pr  Pr0  1  0.26722487  0.45158193  0.86809796  1
  Pr  Pr1  1  0.73359220  0.55488249  0.13457953  1
  Pr  Pr2  1  0.77719451  0.97309301  0.86930953  1
  Pr  Pr3  1  0.22728651  0.98203384  0.12606649  1
  Mn  Mn4  1  0.29410117  0.55083715  0.59596697  1
  Mn  Mn5  1  0.70608580  0.51836282  0.39126894  1
  Mn  Mn6  1  0.99180589  0.91242355  0.99116689  1
  Mn  Mn7  1  0.79234105  0.04981246  0.59820298  1
  Mn  Mn8  1  0.18252488  0.99615143  0.39250365  1
  Mn  Mn9  1  0.52529705  0.52136332  0.02859281  1
  Sb  Sb10  1  0.89507699  0.00046231  0.45471579  1
  Sb  Sb11  1  0.11401996  0.00989600  0.55337031  1
  Sb  Sb12  1  0.03077376  0.50474860  0.80606610  1
  Sb  Sb13  1  0.96310914  0.48536110  0.18583937  1
  Sb  Sb14  1  0.40305972  0.50635696  0.46394110  1
  Sb  Sb15  1  0.60669880  0.43180148  0.55148968  1
  Sb  Sb16  1  0.52711453  0.96980459  0.81034837  1
  Sb  Sb17  1  0.47025409  0.00706357  0.18835707  1
  S  S18  1  0.94303543  0.95377146  0.82231874  1
  S  S19  1  0.06949949  0.02200247  0.20655215  1
  S  S20  1  0.41820493  0.95372691  0.00204509  1
  S  S21  1  0.58883313  0.99814163  0.02476531  1
  S  S22  1  0.18732714  0.97957017  0.90991609  1
  S  S23  1  0.83924009  0.99431240  0.11488733  1
  S  S24  1  0.09108136  0.49880228  0.64974559  1
  S  S25  1  0.88902185  0.49317713  0.33527623  1
  S  S26  1  0.74173796  0.99955829  0.32124175  1
  S  S27  1  0.27548705  0.07173672  0.69411277  1
  S  S28  1  0.16388717  0.48750717  0.45197513  1
  S  S29  1  0.84420742  0.52343135  0.56764533  1
  S  S30  1  0.44661932  0.48861313  0.83442508  1
  S  S31  1  0.58893837  0.52216382  0.21966489  1
  S  S32  1  0.91907860  0.46941562  0.99351285  1
  S  S33  1  0.08358788  0.49545704  0.00296699  1
  S  S34  1  0.68676722  0.47226023  0.90896595  1
  S  S35  1  0.35905146  0.47493828  0.11569111  1
  S  S36  1  0.61214555  0.92528426  0.66746185  1
  S  S37  1  0.42386120  0.97305242  0.37563293  1
  S  S38  1  0.24639241  0.49527573  0.28587573  1
  S  S39  1  0.76430398  0.50771763  0.68152458  1
  S  S40  1  0.66912635  0.97337503  0.44813428  1
  S  S41  1  0.31944243  0.02710532  0.53139213  1
