# generated using pymatgen
data_Pr2Mn3(SbS3)4
_symmetry_space_group_name_H-M   'P 1'
_cell_length_a   20.02960800
_cell_length_b   3.90410600
_cell_length_c   14.95364829
_cell_angle_alpha   90.00000000
_cell_angle_beta   126.33350609
_cell_angle_gamma   90.00000000
_symmetry_Int_Tables_number   1
_chemical_formula_structural   Pr2Mn3(SbS3)4
_chemical_formula_sum   'Pr4 Mn6 Sb8 S24'
_cell_volume   942.00006694
_cell_formula_units_Z   2
loop_
 _symmetry_equiv_pos_site_id
 _symmetry_equiv_pos_as_xyz
  1  'x, y, z'
loop_
 _atom_site_type_symbol
 _atom_site_label
 _atom_site_symmetry_multiplicity
 _atom_site_fract_x
 _atom_site_fract_y
 _atom_site_fract_z
 _atom_site_occupancy
  Pr  Pr0  1  0.26723105  0.45149154  0.86797962  1
  Pr  Pr1  1  0.73349812  0.55563001  0.13459357  1
  Pr  Pr2  1  0.77708593  0.97258906  0.86909986  1
  Pr  Pr3  1  0.22732167  0.98247428  0.12614182  1
  Mn  Mn4  1  0.29437851  0.55140113  0.59589048  1
  Mn  Mn5  1  0.70621163  0.51827688  0.39147557  1
  Mn  Mn6  1  0.99186107  0.91232507  0.99123684  1
  Mn  Mn7  1  0.79211698  0.04894461  0.59796909  1
  Mn  Mn8  1  0.18246523  0.99512371  0.39276908  1
  Mn  Mn9  1  0.52560968  0.52068798  0.02919428  1
  Sb  Sb10  1  0.89510503  0.00050277  0.45476147  1
  Sb  Sb11  1  0.11418934  0.00978600  0.55345559  1
  Sb  Sb12  1  0.03077810  0.50428992  0.80601572  1
  Sb  Sb13  1  0.96302257  0.48501732  0.18572455  1
  Sb  Sb14  1  0.40306763  0.50649459  0.46389766  1
  Sb  Sb15  1  0.60661069  0.43191441  0.55143960  1
  Sb  Sb16  1  0.52712869  0.97026990  0.81054894  1
  Sb  Sb17  1  0.47018287  0.00731900  0.18839802  1
  S  S18  1  0.94351299  0.95299335  0.82323641  1
  S  S19  1  0.06945726  0.02265798  0.20652967  1
  S  S20  1  0.41787774  0.95306673  0.00193577  1
  S  S21  1  0.58881113  0.00042728  0.02486442  1
  S  S22  1  0.18747510  0.98108783  0.90998499  1
  S  S23  1  0.83935211  0.99438329  0.11507301  1
  S  S24  1  0.09132984  0.49853790  0.64987114  1
  S  S25  1  0.88923722  0.49284491  0.33574992  1
  S  S26  1  0.74184946  0.99909391  0.32110883  1
  S  S27  1  0.27549817  0.07196490  0.69457623  1
  S  S28  1  0.16385945  0.48809388  0.45208440  1
  S  S29  1  0.84413903  0.52132195  0.56786454  1
  S  S30  1  0.44669860  0.48974778  0.83439140  1
  S  S31  1  0.58903648  0.52155370  0.22002596  1
  S  S32  1  0.91919186  0.46870577  0.99406955  1
  S  S33  1  0.08368050  0.49580845  0.00292227  1
  S  S34  1  0.68675600  0.47222180  0.90825723  1
  S  S35  1  0.35877096  0.47458726  0.11567522  1
  S  S36  1  0.61175143  0.92594135  0.66712888  1
  S  S37  1  0.42358902  0.97279709  0.37528655  1
  S  S38  1  0.24618744  0.49557008  0.28526853  1
  S  S39  1  0.76431311  0.50755782  0.68165781  1
  S  S40  1  0.66892292  0.97384509  0.44826132  1
  S  S41  1  0.31945942  0.02723682  0.53184593  1
