# generated using pymatgen
data_Pr2Mn3(SbS3)4
_symmetry_space_group_name_H-M   'P 1'
_cell_length_a   20.02960800
_cell_length_b   3.90410600
_cell_length_c   14.95364829
_cell_angle_alpha   90.00000000
_cell_angle_beta   126.33350609
_cell_angle_gamma   90.00000000
_symmetry_Int_Tables_number   1
_chemical_formula_structural   Pr2Mn3(SbS3)4
_chemical_formula_sum   'Pr4 Mn6 Sb8 S24'
_cell_volume   942.00006694
_cell_formula_units_Z   2
loop_
 _symmetry_equiv_pos_site_id
 _symmetry_equiv_pos_as_xyz
  1  'x, y, z'
loop_
 _atom_site_type_symbol
 _atom_site_label
 _atom_site_symmetry_multiplicity
 _atom_site_fract_x
 _atom_site_fract_y
 _atom_site_fract_z
 _atom_site_occupancy
  Pr  Pr0  1  0.26948115  0.50329083  0.86774609  1
  Pr  Pr1  1  0.73385973  0.51335001  0.13444906  1
  Pr  Pr2  1  0.76484647  0.02989094  0.86833869  1
  Pr  Pr3  1  0.23053278  0.98617201  0.13112911  1
  Mn  Mn4  1  0.30103062  0.46395070  0.60845844  1
  Mn  Mn5  1  0.68533697  0.46783905  0.36425449  1
  Mn  Mn6  1  0.00279738  0.99281786  0.01027893  1
  Mn  Mn7  1  0.79311994  0.02562491  0.61452336  1
  Mn  Mn8  1  0.19359972  0.00233949  0.36497651  1
  Mn  Mn9  1  0.48261861  0.47279600  0.98203663  1
  Sb  Sb10  1  0.88959075  0.98582727  0.44782857  1
  Sb  Sb11  1  0.11064998  0.97998726  0.54653512  1
  Sb  Sb12  1  0.03509244  0.52958119  0.82164504  1
  Sb  Sb13  1  0.96716787  0.49449476  0.19034924  1
  Sb  Sb14  1  0.39504950  0.49902248  0.45062702  1
  Sb  Sb15  1  0.61076115  0.48004709  0.54759997  1
  Sb  Sb16  1  0.53175267  0.97255494  0.80609305  1
  Sb  Sb17  1  0.46569994  0.02294591  0.18727935  1
  S  S18  1  0.93968893  0.02179795  0.80825914  1
  S  S19  1  0.06713309  0.00598375  0.20835724  1
  S  S20  1  0.41922811  0.97218220  0.98242379  1
  S  S21  1  0.58729777  0.03043225  0.01511764  1
  S  S22  1  0.16418960  0.03720403  0.90037906  1
  S  S23  1  0.82619527  0.00639849  0.10526069  1
  S  S24  1  0.08636721  0.49767462  0.64010068  1
  S  S25  1  0.91489034  0.48218803  0.35231151  1
  S  S26  1  0.73491964  0.01275199  0.29522362  1
  S  S27  1  0.25834787  0.01901796  0.70506469  1
  S  S28  1  0.16811733  0.51664143  0.43761174  1
  S  S29  1  0.80937952  0.51286083  0.53863920  1
  S  S30  1  0.43180520  0.47643266  0.79948564  1
  S  S31  1  0.55333772  0.51105892  0.18044177  1
  S  S32  1  0.92392712  0.50710767  0.99187736  1
  S  S33  1  0.09161783  0.49610586  0.02705512  1
  S  S34  1  0.66782094  0.56078356  0.89835958  1
  S  S35  1  0.32846222  0.46405462  0.09527198  1
  S  S36  1  0.58809783  0.99659506  0.64772979  1
  S  S37  1  0.39587284  0.98066858  0.33390001  1
  S  S38  1  0.24669534  0.47510896  0.31663504  1
  S  S39  1  0.76241960  0.51735324  0.69145290  1
  S  S40  1  0.66117171  0.98179536  0.44059905  1
  S  S41  1  0.32898867  0.97834439  0.55149940  1
