# generated using pymatgen
data_Pr2Mn3(SbS3)4
_symmetry_space_group_name_H-M   'P 1'
_cell_length_a   20.02960800
_cell_length_b   3.90410600
_cell_length_c   14.95364829
_cell_angle_alpha   90.00000000
_cell_angle_beta   126.33350609
_cell_angle_gamma   90.00000000
_symmetry_Int_Tables_number   1
_chemical_formula_structural   Pr2Mn3(SbS3)4
_chemical_formula_sum   'Pr4 Mn6 Sb8 S24'
_cell_volume   942.00006694
_cell_formula_units_Z   2
loop_
 _symmetry_equiv_pos_site_id
 _symmetry_equiv_pos_as_xyz
  1  'x, y, z'
loop_
 _atom_site_type_symbol
 _atom_site_label
 _atom_site_symmetry_multiplicity
 _atom_site_fract_x
 _atom_site_fract_y
 _atom_site_fract_z
 _atom_site_occupancy
  Pr  Pr0  1  0.26722653  0.45109954  0.86781312  1
  Pr  Pr1  1  0.73341857  0.55626066  0.13464064  1
  Pr  Pr2  1  0.77696122  0.97208786  0.86888126  1
  Pr  Pr3  1  0.22738130  0.98293001  0.12628294  1
  Mn  Mn4  1  0.29449889  0.55158078  0.59585721  1
  Mn  Mn5  1  0.70624131  0.51843401  0.39145069  1
  Mn  Mn6  1  0.99204606  0.91197445  0.99137181  1
  Mn  Mn7  1  0.79192199  0.04820845  0.59777759  1
  Mn  Mn8  1  0.18234534  0.99401232  0.39301305  1
  Mn  Mn9  1  0.52587266  0.51985961  0.02976677  1
  Sb  Sb10  1  0.89522872  0.00041390  0.45483791  1
  Sb  Sb11  1  0.11430631  0.00957011  0.55347552  1
  Sb  Sb12  1  0.03072220  0.50419372  0.80595078  1
  Sb  Sb13  1  0.96299310  0.48417989  0.18569815  1
  Sb  Sb14  1  0.40307490  0.50648871  0.46381497  1
  Sb  Sb15  1  0.60653618  0.43192859  0.55136666  1
  Sb  Sb16  1  0.52717265  0.97036230  0.81076808  1
  Sb  Sb17  1  0.47004277  0.00744221  0.18842947  1
  S  S18  1  0.94400720  0.95211263  0.82417247  1
  S  S19  1  0.06934032  0.02271026  0.20656948  1
  S  S20  1  0.41753289  0.95242171  0.00175450  1
  S  S21  1  0.58874463  0.00309165  0.02498175  1
  S  S22  1  0.18773964  0.98224522  0.91016652  1
  S  S23  1  0.83964201  0.99449472  0.11507953  1
  S  S24  1  0.09171368  0.49799136  0.65001048  1
  S  S25  1  0.88943317  0.49249685  0.33612979  1
  S  S26  1  0.74178301  0.99740155  0.32079075  1
  S  S27  1  0.27560561  0.07177313  0.69520251  1
  S  S28  1  0.16380390  0.48881461  0.45209753  1
  S  S29  1  0.84407547  0.51915024  0.56785539  1
  S  S30  1  0.44655548  0.49011285  0.83414692  1
  S  S31  1  0.58906297  0.52059897  0.22037775  1
  S  S32  1  0.91919072  0.46838318  0.99457380  1
  S  S33  1  0.08391346  0.49597212  0.00310909  1
  S  S34  1  0.68697992  0.47198215  0.90789085  1
  S  S35  1  0.35842211  0.47448627  0.11536420  1
  S  S36  1  0.61135550  0.92678753  0.66683708  1
  S  S37  1  0.42327277  0.97299047  0.37500523  1
  S  S38  1  0.24602701  0.49576927  0.28476122  1
  S  S39  1  0.76444545  0.50774778  0.68202822  1
  S  S40  1  0.66876446  0.97423478  0.44843318  1
  S  S41  1  0.31958505  0.02787977  0.53239888  1
