# generated using pymatgen
data_Pr2Mn3(SbS3)4
_symmetry_space_group_name_H-M   'P 1'
_cell_length_a   20.02960800
_cell_length_b   3.90410600
_cell_length_c   14.95364829
_cell_angle_alpha   90.00000000
_cell_angle_beta   126.33350609
_cell_angle_gamma   90.00000000
_symmetry_Int_Tables_number   1
_chemical_formula_structural   Pr2Mn3(SbS3)4
_chemical_formula_sum   'Pr4 Mn6 Sb8 S24'
_cell_volume   942.00006694
_cell_formula_units_Z   2
loop_
 _symmetry_equiv_pos_site_id
 _symmetry_equiv_pos_as_xyz
  1  'x, y, z'
loop_
 _atom_site_type_symbol
 _atom_site_label
 _atom_site_symmetry_multiplicity
 _atom_site_fract_x
 _atom_site_fract_y
 _atom_site_fract_z
 _atom_site_occupancy
  Pr  Pr0  1  0.26719097  0.45070790  0.86763625  1
  Pr  Pr1  1  0.73338190  0.55658591  0.13471736  1
  Pr  Pr2  1  0.77682488  0.97134892  0.86872636  1
  Pr  Pr3  1  0.22742936  0.98355192  0.12643798  1
  Mn  Mn4  1  0.29440661  0.55135601  0.59569132  1
  Mn  Mn5  1  0.70635448  0.51861259  0.39159728  1
  Mn  Mn6  1  0.99223725  0.91146498  0.99155527  1
  Mn  Mn7  1  0.79173847  0.04727717  0.59754292  1
  Mn  Mn8  1  0.18232632  0.99350706  0.39336679  1
  Mn  Mn9  1  0.52609413  0.51925985  0.03039298  1
  Sb  Sb10  1  0.89532686  0.00003062  0.45488069  1
  Sb  Sb11  1  0.11445343  0.00943330  0.55350953  1
  Sb  Sb12  1  0.03065279  0.50419823  0.80594810  1
  Sb  Sb13  1  0.96286464  0.48337494  0.18565220  1
  Sb  Sb14  1  0.40310257  0.50649026  0.46371091  1
  Sb  Sb15  1  0.60650285  0.43147590  0.55137462  1
  Sb  Sb16  1  0.52716642  0.97033224  0.81090281  1
  Sb  Sb17  1  0.46997535  0.00757450  0.18849354  1
  S  S18  1  0.94458494  0.95126581  0.82511014  1
  S  S19  1  0.06923107  0.02285952  0.20665718  1
  S  S20  1  0.41724727  0.95226474  0.00173636  1
  S  S21  1  0.58865321  0.00537975  0.02513646  1
  S  S22  1  0.18790933  0.98297935  0.91012694  1
  S  S23  1  0.83978366  0.99439958  0.11492979  1
  S  S24  1  0.09214536  0.49778090  0.65035420  1
  S  S25  1  0.88952716  0.49178530  0.33650003  1
  S  S26  1  0.74165912  0.99539008  0.32033250  1
  S  S27  1  0.27569409  0.07160034  0.69573204  1
  S  S28  1  0.16368730  0.48867753  0.45186929  1
  S  S29  1  0.84404492  0.51705728  0.56794925  1
  S  S30  1  0.44659871  0.49074198  0.83409279  1
  S  S31  1  0.58922815  0.51972426  0.22084184  1
  S  S32  1  0.91927815  0.46851117  0.99504881  1
  S  S33  1  0.08426674  0.49621995  0.00334192  1
  S  S34  1  0.68714845  0.47240773  0.90753216  1
  S  S35  1  0.35800988  0.47470503  0.11505234  1
  S  S36  1  0.61101664  0.92763178  0.66643937  1
  S  S37  1  0.42284313  0.97354951  0.37449416  1
  S  S38  1  0.24605648  0.49566384  0.28457796  1
  S  S39  1  0.76453050  0.50782801  0.68235515  1
  S  S40  1  0.66876547  0.97528818  0.44861794  1
  S  S41  1  0.31969883  0.02890999  0.53298392  1
