# generated using pymatgen
data_Pr2Mn3(SbS3)4
_symmetry_space_group_name_H-M   'P 1'
_cell_length_a   20.02960800
_cell_length_b   3.90410600
_cell_length_c   14.95364829
_cell_angle_alpha   90.00000000
_cell_angle_beta   126.33350609
_cell_angle_gamma   90.00000000
_symmetry_Int_Tables_number   1
_chemical_formula_structural   Pr2Mn3(SbS3)4
_chemical_formula_sum   'Pr4 Mn6 Sb8 S24'
_cell_volume   942.00006694
_cell_formula_units_Z   2
loop_
 _symmetry_equiv_pos_site_id
 _symmetry_equiv_pos_as_xyz
  1  'x, y, z'
loop_
 _atom_site_type_symbol
 _atom_site_label
 _atom_site_symmetry_multiplicity
 _atom_site_fract_x
 _atom_site_fract_y
 _atom_site_fract_z
 _atom_site_occupancy
  Pr  Pr0  1  0.26716602  0.45041026  0.86742687  1
  Pr  Pr1  1  0.73336733  0.55691317  0.13481786  1
  Pr  Pr2  1  0.77664211  0.97070122  0.86856087  1
  Pr  Pr3  1  0.22744214  0.98397010  0.12656757  1
  Mn  Mn4  1  0.29427262  0.55104238  0.59560403  1
  Mn  Mn5  1  0.70652040  0.51902403  0.39166597  1
  Mn  Mn6  1  0.99236312  0.91107224  0.99159579  1
  Mn  Mn7  1  0.79151535  0.04661655  0.59734400  1
  Mn  Mn8  1  0.18227070  0.99279754  0.39361328  1
  Mn  Mn9  1  0.52628721  0.51817797  0.03093065  1
  Sb  Sb10  1  0.89546810  0.99996165  0.45497618  1
  Sb  Sb11  1  0.11460766  0.00905714  0.55357616  1
  Sb  Sb12  1  0.03064140  0.50413354  0.80602530  1
  Sb  Sb13  1  0.96274989  0.48264357  0.18564502  1
  Sb  Sb14  1  0.40313490  0.50657826  0.46358091  1
  Sb  Sb15  1  0.60651645  0.43144099  0.55145971  1
  Sb  Sb16  1  0.52718013  0.97028963  0.81098171  1
  Sb  Sb17  1  0.46996247  0.00776151  0.18865886  1
  S  S18  1  0.94506635  0.95088602  0.82581795  1
  S  S19  1  0.06917356  0.02359934  0.20685417  1
  S  S20  1  0.41704671  0.95212375  0.00168733  1
  S  S21  1  0.58860123  0.00758049  0.02523021  1
  S  S22  1  0.18800170  0.98392017  0.90984642  1
  S  S23  1  0.83992965  0.99344361  0.11483753  1
  S  S24  1  0.09248877  0.49763414  0.65065442  1
  S  S25  1  0.88975929  0.49085464  0.33708868  1
  S  S26  1  0.74137444  0.99372998  0.31967935  1
  S  S27  1  0.27574320  0.07154241  0.69630220  1
  S  S28  1  0.16358674  0.48869708  0.45163614  1
  S  S29  1  0.84407431  0.51567972  0.56797993  1
  S  S30  1  0.44671651  0.49129834  0.83411266  1
  S  S31  1  0.58950549  0.51908344  0.22125782  1
  S  S32  1  0.91946270  0.46878051  0.99532981  1
  S  S33  1  0.08456805  0.49688970  0.00361093  1
  S  S34  1  0.68720369  0.47260996  0.90728205  1
  S  S35  1  0.35767279  0.47501158  0.11476785  1
  S  S36  1  0.61067770  0.92825901  0.66605304  1
  S  S37  1  0.42258215  0.97419628  0.37414103  1
  S  S38  1  0.24605850  0.49588454  0.28438886  1
  S  S39  1  0.76467234  0.50815641  0.68281482  1
  S  S40  1  0.66888181  0.97644172  0.44877618  1
  S  S41  1  0.31987416  0.02979802  0.53348950  1
