# generated using pymatgen
data_Pr2Mn3(SbS3)4
_symmetry_space_group_name_H-M   'P 1'
_cell_length_a   20.02960800
_cell_length_b   3.90410600
_cell_length_c   14.95364829
_cell_angle_alpha   90.00000000
_cell_angle_beta   126.33350609
_cell_angle_gamma   90.00000000
_symmetry_Int_Tables_number   1
_chemical_formula_structural   Pr2Mn3(SbS3)4
_chemical_formula_sum   'Pr4 Mn6 Sb8 S24'
_cell_volume   942.00006694
_cell_formula_units_Z   2
loop_
 _symmetry_equiv_pos_site_id
 _symmetry_equiv_pos_as_xyz
  1  'x, y, z'
loop_
 _atom_site_type_symbol
 _atom_site_label
 _atom_site_symmetry_multiplicity
 _atom_site_fract_x
 _atom_site_fract_y
 _atom_site_fract_z
 _atom_site_occupancy
  Pr  Pr0  1  0.26720176  0.45037805  0.86732292  1
  Pr  Pr1  1  0.73339256  0.55701276  0.13491084  1
  Pr  Pr2  1  0.77647035  0.97056808  0.86836997  1
  Pr  Pr3  1  0.22747096  0.98406461  0.12673839  1
  Mn  Mn4  1  0.29415596  0.55075813  0.59557325  1
  Mn  Mn5  1  0.70664842  0.51935592  0.39176250  1
  Mn  Mn6  1  0.99244525  0.91048999  0.99167221  1
  Mn  Mn7  1  0.79133681  0.04639501  0.59723501  1
  Mn  Mn8  1  0.18231564  0.99227864  0.39388590  1
  Mn  Mn9  1  0.52636884  0.51730796  0.03139568  1
  Sb  Sb10  1  0.89562648  0.99992727  0.45512493  1
  Sb  Sb11  1  0.11472195  0.00897660  0.55364275  1
  Sb  Sb12  1  0.03064569  0.50414997  0.80614764  1
  Sb  Sb13  1  0.96263130  0.48175413  0.18568901  1
  Sb  Sb14  1  0.40320352  0.50664672  0.46347104  1
  Sb  Sb15  1  0.60662586  0.43149960  0.55163781  1
  Sb  Sb16  1  0.52710152  0.97025133  0.81094965  1
  Sb  Sb17  1  0.46994166  0.00800245  0.18886972  1
  S  S18  1  0.94557509  0.95100534  0.82667864  1
  S  S19  1  0.06918769  0.02453394  0.20712140  1
  S  S20  1  0.41702646  0.95177371  0.00171470  1
  S  S21  1  0.58853496  0.00968551  0.02517107  1
  S  S22  1  0.18807109  0.98431978  0.90970336  1
  S  S23  1  0.84008437  0.99266211  0.11490943  1
  S  S24  1  0.09275806  0.49765216  0.65092957  1
  S  S25  1  0.88984267  0.49024236  0.33748446  1
  S  S26  1  0.74112939  0.99241697  0.31906088  1
  S  S27  1  0.27576421  0.07084128  0.69666079  1
  S  S28  1  0.16345528  0.48850913  0.45151609  1
  S  S29  1  0.84394983  0.51442903  0.56785476  1
  S  S30  1  0.44688737  0.49157586  0.83404400  1
  S  S31  1  0.58971750  0.51869548  0.22171216  1
  S  S32  1  0.91942136  0.46931001  0.99559098  1
  S  S33  1  0.08475097  0.49755906  0.00376298  1
  S  S34  1  0.68710775  0.47206339  0.90685733  1
  S  S35  1  0.35740523  0.47480477  0.11464452  1
  S  S36  1  0.61037844  0.92937084  0.66563471  1
  S  S37  1  0.42223799  0.97472834  0.37356049  1
  S  S38  1  0.24607833  0.49564263  0.28431337  1
  S  S39  1  0.76485616  0.50792009  0.68307869  1
  S  S40  1  0.66897624  0.97768251  0.44885314  1
  S  S41  1  0.32012373  0.03075225  0.53388696  1
