# generated using pymatgen
data_Pr2Mn3(SbS3)4
_symmetry_space_group_name_H-M   'P 1'
_cell_length_a   20.02960800
_cell_length_b   3.90410600
_cell_length_c   14.95364829
_cell_angle_alpha   90.00000000
_cell_angle_beta   126.33350609
_cell_angle_gamma   90.00000000
_symmetry_Int_Tables_number   1
_chemical_formula_structural   Pr2Mn3(SbS3)4
_chemical_formula_sum   'Pr4 Mn6 Sb8 S24'
_cell_volume   942.00006694
_cell_formula_units_Z   2
loop_
 _symmetry_equiv_pos_site_id
 _symmetry_equiv_pos_as_xyz
  1  'x, y, z'
loop_
 _atom_site_type_symbol
 _atom_site_label
 _atom_site_symmetry_multiplicity
 _atom_site_fract_x
 _atom_site_fract_y
 _atom_site_fract_z
 _atom_site_occupancy
  Pr  Pr0  1  0.26720424  0.45005590  0.86718830  1
  Pr  Pr1  1  0.73343025  0.55725031  0.13503314  1
  Pr  Pr2  1  0.77631221  0.97048448  0.86812085  1
  Pr  Pr3  1  0.22750313  0.98410670  0.12692758  1
  Mn  Mn4  1  0.29413198  0.54998861  0.59565420  1
  Mn  Mn5  1  0.70680614  0.51915535  0.39197949  1
  Mn  Mn6  1  0.99266012  0.91007772  0.99188794  1
  Mn  Mn7  1  0.79117325  0.04579400  0.59708624  1
  Mn  Mn8  1  0.18238460  0.99202330  0.39421010  1
  Mn  Mn9  1  0.52658436  0.51666051  0.03199732  1
  Sb  Sb10  1  0.89580329  0.99989878  0.45523044  1
  Sb  Sb11  1  0.11488132  0.00922805  0.55377681  1
  Sb  Sb12  1  0.03062047  0.50401495  0.80619386  1
  Sb  Sb13  1  0.96248315  0.48121830  0.18565962  1
  Sb  Sb14  1  0.40318995  0.50635963  0.46333485  1
  Sb  Sb15  1  0.60678386  0.43167299  0.55181666  1
  Sb  Sb16  1  0.52707518  0.97024398  0.81092541  1
  Sb  Sb17  1  0.46991475  0.00843341  0.18908278  1
  S  S18  1  0.94606625  0.95123968  0.82739335  1
  S  S19  1  0.06919820  0.02511668  0.20744976  1
  S  S20  1  0.41695673  0.95193432  0.00182312  1
  S  S21  1  0.58860929  0.01182893  0.02521171  1
  S  S22  1  0.18824659  0.98460517  0.90964163  1
  S  S23  1  0.84030048  0.99151910  0.11516810  1
  S  S24  1  0.09307124  0.49746209  0.65108588  1
  S  S25  1  0.88986310  0.48945048  0.33773906  1
  S  S26  1  0.74091697  0.99140370  0.31839509  1
  S  S27  1  0.27568289  0.06918179  0.69689043  1
  S  S28  1  0.16335013  0.48787286  0.45119770  1
  S  S29  1  0.84375659  0.51260176  0.56775367  1
  S  S30  1  0.44714965  0.49201648  0.83402203  1
  S  S31  1  0.59001713  0.51870775  0.22206884  1
  S  S32  1  0.91942821  0.47058641  0.99570463  1
  S  S33  1  0.08488634  0.49835642  0.00373986  1
  S  S34  1  0.68706896  0.47200028  0.90636238  1
  S  S35  1  0.35703790  0.47399225  0.11446655  1
  S  S36  1  0.61010372  0.93001470  0.66502043  1
  S  S37  1  0.42198579  0.97481711  0.37301597  1
  S  S38  1  0.24622285  0.49572247  0.28434325  1
  S  S39  1  0.76500308  0.50771084  0.68340268  1
  S  S40  1  0.66923057  0.97851509  0.44904636  1
  S  S41  1  0.32040940  0.03186950  0.53440356  1
