# generated using pymatgen
data_Pr2Mn3(SbS3)4
_symmetry_space_group_name_H-M   'P 1'
_cell_length_a   20.02960800
_cell_length_b   3.90410600
_cell_length_c   14.95364829
_cell_angle_alpha   90.00000000
_cell_angle_beta   126.33350609
_cell_angle_gamma   90.00000000
_symmetry_Int_Tables_number   1
_chemical_formula_structural   Pr2Mn3(SbS3)4
_chemical_formula_sum   'Pr4 Mn6 Sb8 S24'
_cell_volume   942.00006694
_cell_formula_units_Z   2
loop_
 _symmetry_equiv_pos_site_id
 _symmetry_equiv_pos_as_xyz
  1  'x, y, z'
loop_
 _atom_site_type_symbol
 _atom_site_label
 _atom_site_symmetry_multiplicity
 _atom_site_fract_x
 _atom_site_fract_y
 _atom_site_fract_z
 _atom_site_occupancy
  Pr  Pr0  1  0.26718975  0.44995166  0.86699205  1
  Pr  Pr1  1  0.73348208  0.55753181  0.13516962  1
  Pr  Pr2  1  0.77607248  0.96998227  0.86779431  1
  Pr  Pr3  1  0.22745787  0.98395320  0.12706114  1
  Mn  Mn4  1  0.29418903  0.54941512  0.59582767  1
  Mn  Mn5  1  0.70691888  0.51878409  0.39215656  1
  Mn  Mn6  1  0.99292722  0.90961238  0.99211966  1
  Mn  Mn7  1  0.79116299  0.04518332  0.59700860  1
  Mn  Mn8  1  0.18249013  0.99215882  0.39445470  1
  Mn  Mn9  1  0.52684199  0.51577972  0.03248457  1
  Sb  Sb10  1  0.89606293  0.99970126  0.45530660  1
  Sb  Sb11  1  0.11496529  0.00941660  0.55389999  1
  Sb  Sb12  1  0.03053856  0.50402181  0.80617771  1
  Sb  Sb13  1  0.96233690  0.48093184  0.18569987  1
  Sb  Sb14  1  0.40312956  0.50577342  0.46317982  1
  Sb  Sb15  1  0.60696814  0.43186131  0.55193460  1
  Sb  Sb16  1  0.52707272  0.97051048  0.81096060  1
  Sb  Sb17  1  0.46990781  0.00858400  0.18930572  1
  S  S18  1  0.94647312  0.95094367  0.82817388  1
  S  S19  1  0.06932655  0.02558236  0.20774810  1
  S  S20  1  0.41688475  0.95266900  0.00186797  1
  S  S21  1  0.58873678  0.01385221  0.02517251  1
  S  S22  1  0.18837908  0.98496680  0.90950256  1
  S  S23  1  0.84053948  0.99079649  0.11536600  1
  S  S24  1  0.09348542  0.49758380  0.65125055  1
  S  S25  1  0.88994511  0.48908676  0.33797554  1
  S  S26  1  0.74082686  0.99070102  0.31797567  1
  S  S27  1  0.27562888  0.06737509  0.69713846  1
  S  S28  1  0.16325616  0.48746748  0.45081436  1
  S  S29  1  0.84350396  0.51062417  0.56747468  1
  S  S30  1  0.44740882  0.49222642  0.83408119  1
  S  S31  1  0.59031929  0.51910784  0.22230479  1
  S  S32  1  0.91949051  0.47139885  0.99606183  1
  S  S33  1  0.08494544  0.49896580  0.00354394  1
  S  S34  1  0.68699006  0.47179787  0.90575458  1
  S  S35  1  0.35671715  0.47340702  0.11446102  1
  S  S36  1  0.60973614  0.93120919  0.66438953  1
  S  S37  1  0.42186514  0.97461745  0.37255990  1
  S  S38  1  0.24635132  0.49547607  0.28435661  1
  S  S39  1  0.76518158  0.50685417  0.68365840  1
  S  S40  1  0.66946611  0.97862077  0.44930083  1
  S  S41  1  0.32087897  0.03285869  0.53519017  1
