# generated using pymatgen
data_Pr2Mn3(SbS3)4
_symmetry_space_group_name_H-M   'P 1'
_cell_length_a   20.02960800
_cell_length_b   3.90410600
_cell_length_c   14.95364829
_cell_angle_alpha   90.00000000
_cell_angle_beta   126.33350609
_cell_angle_gamma   90.00000000
_symmetry_Int_Tables_number   1
_chemical_formula_structural   Pr2Mn3(SbS3)4
_chemical_formula_sum   'Pr4 Mn6 Sb8 S24'
_cell_volume   942.00006694
_cell_formula_units_Z   2
loop_
 _symmetry_equiv_pos_site_id
 _symmetry_equiv_pos_as_xyz
  1  'x, y, z'
loop_
 _atom_site_type_symbol
 _atom_site_label
 _atom_site_symmetry_multiplicity
 _atom_site_fract_x
 _atom_site_fract_y
 _atom_site_fract_z
 _atom_site_occupancy
  Pr  Pr0  1  0.26717120  0.44974047  0.86677568  1
  Pr  Pr1  1  0.73352176  0.55775787  0.13536586  1
  Pr  Pr2  1  0.77580927  0.96950248  0.86754962  1
  Pr  Pr3  1  0.22744733  0.98382755  0.12720152  1
  Mn  Mn4  1  0.29414973  0.54850585  0.59592463  1
  Mn  Mn5  1  0.70702893  0.51871852  0.39230327  1
  Mn  Mn6  1  0.99316657  0.90911470  0.99227041  1
  Mn  Mn7  1  0.79121296  0.04425121  0.59703549  1
  Mn  Mn8  1  0.18270772  0.99215467  0.39474496  1
  Mn  Mn9  1  0.52695433  0.51555623  0.03290529  1
  Sb  Sb10  1  0.89624328  0.99939278  0.45536791  1
  Sb  Sb11  1  0.11504872  0.00967227  0.55406133  1
  Sb  Sb12  1  0.03043828  0.50404920  0.80612551  1
  Sb  Sb13  1  0.96226135  0.48074590  0.18576054  1
  Sb  Sb14  1  0.40301114  0.50539462  0.46305624  1
  Sb  Sb15  1  0.60719097  0.43185516  0.55212008  1
  Sb  Sb16  1  0.52711120  0.97068384  0.81109131  1
  Sb  Sb17  1  0.46982569  0.00874480  0.18946446  1
  S  S18  1  0.94681890  0.95054939  0.82885590  1
  S  S19  1  0.06937128  0.02576626  0.20803287  1
  S  S20  1  0.41684983  0.95337580  0.00182198  1
  S  S21  1  0.58883097  0.01530378  0.02513501  1
  S  S22  1  0.18857685  0.98553756  0.90943545  1
  S  S23  1  0.84078661  0.99107134  0.11549683  1
  S  S24  1  0.09383550  0.49756418  0.65133262  1
  S  S25  1  0.89010290  0.48818408  0.33830965  1
  S  S26  1  0.74079254  0.99006500  0.31764627  1
  S  S27  1  0.27558539  0.06545822  0.69723543  1
  S  S28  1  0.16307325  0.48736804  0.45039118  1
  S  S29  1  0.84329097  0.50823218  0.56706471  1
  S  S30  1  0.44764736  0.49191001  0.83409986  1
  S  S31  1  0.59053371  0.51901068  0.22248948  1
  S  S32  1  0.91959584  0.47237905  0.99650186  1
  S  S33  1  0.08503046  0.49976050  0.00336599  1
  S  S34  1  0.68704013  0.47182919  0.90525222  1
  S  S35  1  0.35655352  0.47250935  0.11448548  1
  S  S36  1  0.60938319  0.93156782  0.66363719  1
  S  S37  1  0.42163762  0.97430608  0.37208912  1
  S  S38  1  0.24658415  0.49543432  0.28443959  1
  S  S39  1  0.76550868  0.50629775  0.68396868  1
  S  S40  1  0.66976532  0.97867852  0.44944807  1
  S  S41  1  0.32130908  0.03374440  0.53588374  1
