# generated using pymatgen
data_Pr2Mn3(SbS3)4
_symmetry_space_group_name_H-M   'P 1'
_cell_length_a   20.02960800
_cell_length_b   3.90410600
_cell_length_c   14.95364829
_cell_angle_alpha   90.00000000
_cell_angle_beta   126.33350609
_cell_angle_gamma   90.00000000
_symmetry_Int_Tables_number   1
_chemical_formula_structural   Pr2Mn3(SbS3)4
_chemical_formula_sum   'Pr4 Mn6 Sb8 S24'
_cell_volume   942.00006694
_cell_formula_units_Z   2
loop_
 _symmetry_equiv_pos_site_id
 _symmetry_equiv_pos_as_xyz
  1  'x, y, z'
loop_
 _atom_site_type_symbol
 _atom_site_label
 _atom_site_symmetry_multiplicity
 _atom_site_fract_x
 _atom_site_fract_y
 _atom_site_fract_z
 _atom_site_occupancy
  Pr  Pr0  1  0.26718475  0.44970921  0.86661188  1
  Pr  Pr1  1  0.73346519  0.55801414  0.13552033  1
  Pr  Pr2  1  0.77560518  0.96896022  0.86728535  1
  Pr  Pr3  1  0.22744792  0.98355262  0.12740770  1
  Mn  Mn4  1  0.29402500  0.54794573  0.59601094  1
  Mn  Mn5  1  0.70721523  0.51834380  0.39258323  1
  Mn  Mn6  1  0.99350458  0.90852662  0.99248085  1
  Mn  Mn7  1  0.79127568  0.04370278  0.59707090  1
  Mn  Mn8  1  0.18291920  0.99233459  0.39512831  1
  Mn  Mn9  1  0.52696658  0.51551055  0.03298172  1
  Sb  Sb10  1  0.89635163  0.99915377  0.45535347  1
  Sb  Sb11  1  0.11513184  0.00961928  0.55431147  1
  Sb  Sb12  1  0.03042966  0.50427645  0.80611565  1
  Sb  Sb13  1  0.96220861  0.48039226  0.18588478  1
  Sb  Sb14  1  0.40291942  0.50474824  0.46293264  1
  Sb  Sb15  1  0.60734777  0.43216771  0.55228959  1
  Sb  Sb16  1  0.52711780  0.97062662  0.81116981  1
  Sb  Sb17  1  0.46978183  0.00881032  0.18961198  1
  S  S18  1  0.94711767  0.95086734  0.82935864  1
  S  S19  1  0.06922155  0.02635775  0.20837960  1
  S  S20  1  0.41677136  0.95413963  0.00184367  1
  S  S21  1  0.58908683  0.01689336  0.02525913  1
  S  S22  1  0.18862899  0.98671131  0.90942001  1
  S  S23  1  0.84103238  0.99170104  0.11565206  1
  S  S24  1  0.09414882  0.49736525  0.65143619  1
  S  S25  1  0.89009552  0.48726802  0.33835456  1
  S  S26  1  0.74087836  0.98846187  0.31757131  1
  S  S27  1  0.27551912  0.06410643  0.69731062  1
  S  S28  1  0.16296355  0.48667723  0.44999152  1
  S  S29  1  0.84301538  0.50618077  0.56676543  1
  S  S30  1  0.44774732  0.49197376  0.83388117  1
  S  S31  1  0.59064005  0.51916793  0.22248924  1
  S  S32  1  0.91967725  0.47311688  0.99693931  1
  S  S33  1  0.08513556  0.50106767  0.00311694  1
  S  S34  1  0.68712950  0.47205759  0.90478662  1
  S  S35  1  0.35632076  0.47147072  0.11430302  1
  S  S36  1  0.60920736  0.93192282  0.66311590  1
  S  S37  1  0.42153923  0.97447535  0.37169853  1
  S  S38  1  0.24683531  0.49551678  0.28456139  1
  S  S39  1  0.76578301  0.50575466  0.68419211  1
  S  S40  1  0.66993884  0.97881871  0.44934823  1
  S  S41  1  0.32171708  0.03402625  0.53673442  1
