# generated using pymatgen
data_Pr2Mn3(SbS3)4
_symmetry_space_group_name_H-M   'P 1'
_cell_length_a   20.02960800
_cell_length_b   3.90410600
_cell_length_c   14.95364829
_cell_angle_alpha   90.00000000
_cell_angle_beta   126.33350609
_cell_angle_gamma   90.00000000
_symmetry_Int_Tables_number   1
_chemical_formula_structural   Pr2Mn3(SbS3)4
_chemical_formula_sum   'Pr4 Mn6 Sb8 S24'
_cell_volume   942.00006694
_cell_formula_units_Z   2
loop_
 _symmetry_equiv_pos_site_id
 _symmetry_equiv_pos_as_xyz
  1  'x, y, z'
loop_
 _atom_site_type_symbol
 _atom_site_label
 _atom_site_symmetry_multiplicity
 _atom_site_fract_x
 _atom_site_fract_y
 _atom_site_fract_z
 _atom_site_occupancy
  Pr  Pr0  1  0.26714159  0.44942033  0.86638619  1
  Pr  Pr1  1  0.73341055  0.55814084  0.13561850  1
  Pr  Pr2  1  0.77535988  0.96844987  0.86700104  1
  Pr  Pr3  1  0.22740440  0.98320744  0.12755954  1
  Mn  Mn4  1  0.29386897  0.54779005  0.59598242  1
  Mn  Mn5  1  0.70725405  0.51822111  0.39272109  1
  Mn  Mn6  1  0.99381882  0.90769330  0.99284047  1
  Mn  Mn7  1  0.79135579  0.04372598  0.59716710  1
  Mn  Mn8  1  0.18316895  0.99213061  0.39550791  1
  Mn  Mn9  1  0.52697884  0.51537541  0.03316491  1
  Sb  Sb10  1  0.89639201  0.99891894  0.45531244  1
  Sb  Sb11  1  0.11527432  0.00968829  0.55452874  1
  Sb  Sb12  1  0.03044313  0.50471451  0.80609313  1
  Sb  Sb13  1  0.96209835  0.47992691  0.18600785  1
  Sb  Sb14  1  0.40286659  0.50436390  0.46282438  1
  Sb  Sb15  1  0.60750314  0.43220248  0.55245168  1
  Sb  Sb16  1  0.52715018  0.97044060  0.81124731  1
  Sb  Sb17  1  0.46977371  0.00873399  0.18977967  1
  S  S18  1  0.94739135  0.95109225  0.82978785  1
  S  S19  1  0.06905655  0.02702259  0.20872343  1
  S  S20  1  0.41664252  0.95482549  0.00158042  1
  S  S21  1  0.58919354  0.01799340  0.02520394  1
  S  S22  1  0.18876193  0.98733612  0.90934790  1
  S  S23  1  0.84120316  0.99227069  0.11569814  1
  S  S24  1  0.09441764  0.49718468  0.65140227  1
  S  S25  1  0.88987769  0.48612938  0.33816844  1
  S  S26  1  0.74108244  0.98716751  0.31769095  1
  S  S27  1  0.27552007  0.06258031  0.69767285  1
  S  S28  1  0.16286789  0.48624518  0.44952076  1
  S  S29  1  0.84298697  0.50357435  0.56674045  1
  S  S30  1  0.44787451  0.49257211  0.83371072  1
  S  S31  1  0.59065798  0.51897680  0.22230277  1
  S  S32  1  0.91964989  0.47400586  0.99720232  1
  S  S33  1  0.08512520  0.50200698  0.00268555  1
  S  S34  1  0.68719858  0.47233445  0.90435270  1
  S  S35  1  0.35603244  0.47073796  0.11407399  1
  S  S36  1  0.60889565  0.93206359  0.66257218  1
  S  S37  1  0.42140629  0.97478941  0.37125782  1
  S  S38  1  0.24697075  0.49588993  0.28444663  1
  S  S39  1  0.76617726  0.50558550  0.68456774  1
  S  S40  1  0.67003733  0.97837939  0.44909550  1
  S  S41  1  0.32216820  0.03462329  0.53753612  1
