# generated using pymatgen
data_Pr2Mn3(SbS3)4
_symmetry_space_group_name_H-M   'P 1'
_cell_length_a   20.02960800
_cell_length_b   3.90410600
_cell_length_c   14.95364829
_cell_angle_alpha   90.00000000
_cell_angle_beta   126.33350609
_cell_angle_gamma   90.00000000
_symmetry_Int_Tables_number   1
_chemical_formula_structural   Pr2Mn3(SbS3)4
_chemical_formula_sum   'Pr4 Mn6 Sb8 S24'
_cell_volume   942.00006694
_cell_formula_units_Z   2
loop_
 _symmetry_equiv_pos_site_id
 _symmetry_equiv_pos_as_xyz
  1  'x, y, z'
loop_
 _atom_site_type_symbol
 _atom_site_label
 _atom_site_symmetry_multiplicity
 _atom_site_fract_x
 _atom_site_fract_y
 _atom_site_fract_z
 _atom_site_occupancy
  Pr  Pr0  1  0.26709368  0.44916728  0.86610806  1
  Pr  Pr1  1  0.73342194  0.55831375  0.13580684  1
  Pr  Pr2  1  0.77517711  0.96786216  0.86678965  1
  Pr  Pr3  1  0.22736742  0.98289011  0.12766275  1
  Mn  Mn4  1  0.29364634  0.54821722  0.59599390  1
  Mn  Mn5  1  0.70729901  0.51798148  0.39286225  1
  Mn  Mn6  1  0.99407659  0.90712052  0.99310363  1
  Mn  Mn7  1  0.79142640  0.04393402  0.59738454  1
  Mn  Mn8  1  0.18342042  0.99226306  0.39601935  1
  Mn  Mn9  1  0.52672610  0.51488053  0.03306197  1
  Sb  Sb10  1  0.89642238  0.99878548  0.45522024  1
  Sb  Sb11  1  0.11546519  0.00947757  0.55478987  1
  Sb  Sb12  1  0.03053530  0.50538934  0.80610178  1
  Sb  Sb13  1  0.96203744  0.47922336  0.18617039  1
  Sb  Sb14  1  0.40286053  0.50388639  0.46274276  1
  Sb  Sb15  1  0.60772078  0.43242160  0.55268618  1
  Sb  Sb16  1  0.52720320  0.97010009  0.81130522  1
  Sb  Sb17  1  0.46982622  0.00872109  0.19006998  1
  S  S18  1  0.94764589  0.95184001  0.83021400  1
  S  S19  1  0.06895378  0.02828169  0.20898393  1
  S  S20  1  0.41648163  0.95544150  0.00144911  1
  S  S21  1  0.58941016  0.01932446  0.02526492  1
  S  S22  1  0.18897963  0.98761113  0.90940352  1
  S  S23  1  0.84136409  0.99301598  0.11568119  1
  S  S24  1  0.09478638  0.49745291  0.65144132  1
  S  S25  1  0.88960087  0.48555048  0.33801776  1
  S  S26  1  0.74127901  0.98588075  0.31772360  1
  S  S27  1  0.27550977  0.06098562  0.69801157  1
  S  S28  1  0.16292207  0.48639635  0.44925853  1
  S  S29  1  0.84297033  0.50127238  0.56662399  1
  S  S30  1  0.44792674  0.49357292  0.83338447  1
  S  S31  1  0.59053796  0.51884259  0.22192260  1
  S  S32  1  0.91951287  0.47470516  0.99742030  1
  S  S33  1  0.08523082  0.50253438  0.00236687  1
  S  S34  1  0.68726952  0.47243164  0.90389875  1
  S  S35  1  0.35595288  0.46913058  0.11390558  1
  S  S36  1  0.60873974  0.93193711  0.66220710  1
  S  S37  1  0.42120675  0.97505099  0.37067983  1
  S  S38  1  0.24716294  0.49615149  0.28424011  1
  S  S39  1  0.76660534  0.50569469  0.68514478  1
  S  S40  1  0.67035736  0.97799949  0.44900335  1
  S  S41  1  0.32254812  0.03499690  0.53830454  1
