# generated using pymatgen
data_Pr2Mn3(SbS3)4
_symmetry_space_group_name_H-M   'P 1'
_cell_length_a   20.02960800
_cell_length_b   3.90410600
_cell_length_c   14.95364829
_cell_angle_alpha   90.00000000
_cell_angle_beta   126.33350609
_cell_angle_gamma   90.00000000
_symmetry_Int_Tables_number   1
_chemical_formula_structural   Pr2Mn3(SbS3)4
_chemical_formula_sum   'Pr4 Mn6 Sb8 S24'
_cell_volume   942.00006694
_cell_formula_units_Z   2
loop_
 _symmetry_equiv_pos_site_id
 _symmetry_equiv_pos_as_xyz
  1  'x, y, z'
loop_
 _atom_site_type_symbol
 _atom_site_label
 _atom_site_symmetry_multiplicity
 _atom_site_fract_x
 _atom_site_fract_y
 _atom_site_fract_z
 _atom_site_occupancy
  Pr  Pr0  1  0.26950598  0.50353268  0.86798430  1
  Pr  Pr1  1  0.73400102  0.51329077  0.13462210  1
  Pr  Pr2  1  0.76475624  0.02998076  0.86815631  1
  Pr  Pr3  1  0.23036759  0.98557677  0.13107626  1
  Mn  Mn4  1  0.30088954  0.46338256  0.60835666  1
  Mn  Mn5  1  0.68523749  0.46799503  0.36435874  1
  Mn  Mn6  1  0.00277102  0.99264875  0.01022593  1
  Mn  Mn7  1  0.79297143  0.02641978  0.61438668  1
  Mn  Mn8  1  0.19387271  0.00279280  0.36513214  1
  Mn  Mn9  1  0.48258552  0.47224530  0.98207905  1
  Sb  Sb10  1  0.88965024  0.98587706  0.44787190  1
  Sb  Sb11  1  0.11072419  0.98007500  0.54666563  1
  Sb  Sb12  1  0.03522300  0.52918145  0.82171373  1
  Sb  Sb13  1  0.96732239  0.49381604  0.19053222  1
  Sb  Sb14  1  0.39515029  0.49917785  0.45088758  1
  Sb  Sb15  1  0.61085747  0.48048603  0.54772532  1
  Sb  Sb16  1  0.53160249  0.97230509  0.80603422  1
  Sb  Sb17  1  0.46569867  0.02268130  0.18717394  1
  S  S18  1  0.93985312  0.02181120  0.80817111  1
  S  S19  1  0.06702425  0.00622938  0.20831444  1
  S  S20  1  0.41921834  0.97192005  0.98203656  1
  S  S21  1  0.58735184  0.02917185  0.01501969  1
  S  S22  1  0.16390985  0.03645729  0.90022151  1
  S  S23  1  0.82628491  0.00566782  0.10534141  1
  S  S24  1  0.08641561  0.49781523  0.63978663  1
  S  S25  1  0.91504099  0.48196816  0.35274439  1
  S  S26  1  0.73471925  0.01281506  0.29505173  1
  S  S27  1  0.25857887  0.01833709  0.70526412  1
  S  S28  1  0.16826546  0.51755784  0.43755739  1
  S  S29  1  0.80937534  0.51366427  0.53859611  1
  S  S30  1  0.43196741  0.47666743  0.79999763  1
  S  S31  1  0.55333556  0.51019491  0.18062237  1
  S  S32  1  0.92388147  0.50765359  0.99155612  1
  S  S33  1  0.09177955  0.49572186  0.02712921  1
  S  S34  1  0.66777453  0.56022319  0.89820692  1
  S  S35  1  0.32840695  0.46359803  0.09541250  1
  S  S36  1  0.58810769  0.99711975  0.64779351  1
  S  S37  1  0.39607450  0.98189370  0.33397635  1
  S  S38  1  0.24670618  0.47562239  0.31671736  1
  S  S39  1  0.76264195  0.51671930  0.69163180  1
  S  S40  1  0.66081613  0.98131465  0.44018699  1
  S  S41  1  0.32901309  0.97884215  0.55148455  1
