# generated using pymatgen
data_Pr2Mn3(SbS3)4
_symmetry_space_group_name_H-M   'P 1'
_cell_length_a   20.02960800
_cell_length_b   3.90410600
_cell_length_c   14.95364829
_cell_angle_alpha   90.00000000
_cell_angle_beta   126.33350609
_cell_angle_gamma   90.00000000
_symmetry_Int_Tables_number   1
_chemical_formula_structural   Pr2Mn3(SbS3)4
_chemical_formula_sum   'Pr4 Mn6 Sb8 S24'
_cell_volume   942.00006694
_cell_formula_units_Z   2
loop_
 _symmetry_equiv_pos_site_id
 _symmetry_equiv_pos_as_xyz
  1  'x, y, z'
loop_
 _atom_site_type_symbol
 _atom_site_label
 _atom_site_symmetry_multiplicity
 _atom_site_fract_x
 _atom_site_fract_y
 _atom_site_fract_z
 _atom_site_occupancy
  Pr  Pr0  1  0.26707734  0.44889666  0.86587305  1
  Pr  Pr1  1  0.73339740  0.55862959  0.13590670  1
  Pr  Pr2  1  0.77501027  0.96733125  0.86657670  1
  Pr  Pr3  1  0.22729729  0.98247649  0.12774939  1
  Mn  Mn4  1  0.29335413  0.54825014  0.59617115  1
  Mn  Mn5  1  0.70732806  0.51780081  0.39300849  1
  Mn  Mn6  1  0.99434852  0.90621402  0.99346896  1
  Mn  Mn7  1  0.79149177  0.04362518  0.59764747  1
  Mn  Mn8  1  0.18365006  0.99254069  0.39664347  1
  Mn  Mn9  1  0.52659429  0.51423157  0.03295716  1
  Sb  Sb10  1  0.89639410  0.99856014  0.45518859  1
  Sb  Sb11  1  0.11571479  0.00905883  0.55507519  1
  Sb  Sb12  1  0.03061497  0.50612149  0.80611297  1
  Sb  Sb13  1  0.96201923  0.47887658  0.18638433  1
  Sb  Sb14  1  0.40283957  0.50350751  0.46267586  1
  Sb  Sb15  1  0.60787747  0.43273760  0.55294279  1
  Sb  Sb16  1  0.52725652  0.96954502  0.81130685  1
  Sb  Sb17  1  0.46988912  0.00884413  0.19033926  1
  S  S18  1  0.94794855  0.95298156  0.83064681  1
  S  S19  1  0.06897604  0.02904607  0.20942203  1
  S  S20  1  0.41648174  0.95678419  0.00140061  1
  S  S21  1  0.58955363  0.02060471  0.02536853  1
  S  S22  1  0.18914960  0.98772573  0.90954654  1
  S  S23  1  0.84154028  0.99335002  0.11567073  1
  S  S24  1  0.09501896  0.49719230  0.65165175  1
  S  S25  1  0.88924071  0.48481137  0.33774574  1
  S  S26  1  0.74150702  0.98448688  0.31775658  1
  S  S27  1  0.27554667  0.05959953  0.69828666  1
  S  S28  1  0.16292839  0.48610036  0.44914230  1
  S  S29  1  0.84303120  0.49907090  0.56644245  1
  S  S30  1  0.44805574  0.49417350  0.83309711  1
  S  S31  1  0.59047319  0.51875081  0.22147121  1
  S  S32  1  0.91932001  0.47537114  0.99746960  1
  S  S33  1  0.08519440  0.50286940  0.00216983  1
  S  S34  1  0.68732873  0.47228337  0.90357484  1
  S  S35  1  0.35598234  0.46728716  0.11386395  1
  S  S36  1  0.60866045  0.93239705  0.66215866  1
  S  S37  1  0.42108179  0.97493012  0.37025788  1
  S  S38  1  0.24750626  0.49624577  0.28416222  1
  S  S39  1  0.76680397  0.50615012  0.68560399  1
  S  S40  1  0.67073121  0.97785413  0.44894331  1
  S  S41  1  0.32287183  0.03592146  0.53903898  1
