# generated using pymatgen
data_Pr2Mn3(SbS3)4
_symmetry_space_group_name_H-M   'P 1'
_cell_length_a   20.02960800
_cell_length_b   3.90410600
_cell_length_c   14.95364829
_cell_angle_alpha   90.00000000
_cell_angle_beta   126.33350609
_cell_angle_gamma   90.00000000
_symmetry_Int_Tables_number   1
_chemical_formula_structural   Pr2Mn3(SbS3)4
_chemical_formula_sum   'Pr4 Mn6 Sb8 S24'
_cell_volume   942.00006694
_cell_formula_units_Z   2
loop_
 _symmetry_equiv_pos_site_id
 _symmetry_equiv_pos_as_xyz
  1  'x, y, z'
loop_
 _atom_site_type_symbol
 _atom_site_label
 _atom_site_symmetry_multiplicity
 _atom_site_fract_x
 _atom_site_fract_y
 _atom_site_fract_z
 _atom_site_occupancy
  Pr  Pr0  1  0.26712119  0.44864100  0.86573765  1
  Pr  Pr1  1  0.73334011  0.55864471  0.13601382  1
  Pr  Pr2  1  0.77482385  0.96688914  0.86635245  1
  Pr  Pr3  1  0.22728853  0.98196341  0.12783087  1
  Mn  Mn4  1  0.29312296  0.54826614  0.59651277  1
  Mn  Mn5  1  0.70734499  0.51721887  0.39322127  1
  Mn  Mn6  1  0.99470209  0.90557525  0.99384475  1
  Mn  Mn7  1  0.79154920  0.04371626  0.59785841  1
  Mn  Mn8  1  0.18394912  0.99299029  0.39732682  1
  Mn  Mn9  1  0.52657478  0.51373086  0.03294376  1
  Sb  Sb10  1  0.89642439  0.99870832  0.45517661  1
  Sb  Sb11  1  0.11587119  0.00865307  0.55527253  1
  Sb  Sb12  1  0.03073856  0.50733661  0.80629500  1
  Sb  Sb13  1  0.96192839  0.47815913  0.18658491  1
  Sb  Sb14  1  0.40279550  0.50319714  0.46262802  1
  Sb  Sb15  1  0.60805949  0.43283182  0.55319091  1
  Sb  Sb16  1  0.52732298  0.96968114  0.81134198  1
  Sb  Sb17  1  0.46999508  0.00921823  0.19062788  1
  S  S18  1  0.94836744  0.95420600  0.83127374  1
  S  S19  1  0.06890119  0.02972597  0.20989309  1
  S  S20  1  0.41640172  0.95803411  0.00113637  1
  S  S21  1  0.58975350  0.02163742  0.02556275  1
  S  S22  1  0.18937255  0.98846574  0.90975146  1
  S  S23  1  0.84187241  0.99350777  0.11581213  1
  S  S24  1  0.09533373  0.49699274  0.65197260  1
  S  S25  1  0.88885727  0.48404270  0.33750447  1
  S  S26  1  0.74169330  0.98295241  0.31781647  1
  S  S27  1  0.27548006  0.05817482  0.69843910  1
  S  S28  1  0.16288209  0.48518928  0.44890450  1
  S  S29  1  0.84330625  0.49727323  0.56644514  1
  S  S30  1  0.44810489  0.49445547  0.83286677  1
  S  S31  1  0.59044724  0.51882335  0.22107661  1
  S  S32  1  0.91915811  0.47594218  0.99750545  1
  S  S33  1  0.08509734  0.50322012  0.00190265  1
  S  S34  1  0.68724059  0.47218326  0.90318949  1
  S  S35  1  0.35613823  0.46531644  0.11379688  1
  S  S36  1  0.60850830  0.93287385  0.66201593  1
  S  S37  1  0.42087257  0.97474112  0.36984212  1
  S  S38  1  0.24787171  0.49651991  0.28417772  1
  S  S39  1  0.76701356  0.50709022  0.68611106  1
  S  S40  1  0.67105572  0.97807328  0.44882166  1
  S  S41  1  0.32324210  0.03644258  0.53986496  1
