# generated using pymatgen
data_Pr2Mn3(SbS3)4
_symmetry_space_group_name_H-M   'P 1'
_cell_length_a   20.02960800
_cell_length_b   3.90410600
_cell_length_c   14.95364829
_cell_angle_alpha   90.00000000
_cell_angle_beta   126.33350609
_cell_angle_gamma   90.00000000
_symmetry_Int_Tables_number   1
_chemical_formula_structural   Pr2Mn3(SbS3)4
_chemical_formula_sum   'Pr4 Mn6 Sb8 S24'
_cell_volume   942.00006694
_cell_formula_units_Z   2
loop_
 _symmetry_equiv_pos_site_id
 _symmetry_equiv_pos_as_xyz
  1  'x, y, z'
loop_
 _atom_site_type_symbol
 _atom_site_label
 _atom_site_symmetry_multiplicity
 _atom_site_fract_x
 _atom_site_fract_y
 _atom_site_fract_z
 _atom_site_occupancy
  Pr  Pr0  1  0.26711179  0.44847086  0.86561036  1
  Pr  Pr1  1  0.73330401  0.55897150  0.13609124  1
  Pr  Pr2  1  0.77466751  0.96641244  0.86616804  1
  Pr  Pr3  1  0.22733985  0.98164733  0.12793111  1
  Mn  Mn4  1  0.29288650  0.54852532  0.59673510  1
  Mn  Mn5  1  0.70737293  0.51640802  0.39340384  1
  Mn  Mn6  1  0.99499747  0.90448594  0.99417976  1
  Mn  Mn7  1  0.79175089  0.04412008  0.59818673  1
  Mn  Mn8  1  0.18411490  0.99311979  0.39790815  1
  Mn  Mn9  1  0.52659742  0.51326813  0.03302509  1
  Sb  Sb10  1  0.89643479  0.99904815  0.45516885  1
  Sb  Sb11  1  0.11600304  0.00839276  0.55545383  1
  Sb  Sb12  1  0.03076197  0.50835383  0.80639775  1
  Sb  Sb13  1  0.96186231  0.47748531  0.18678499  1
  Sb  Sb14  1  0.40276109  0.50311442  0.46255132  1
  Sb  Sb15  1  0.60825998  0.43327591  0.55345842  1
  Sb  Sb16  1  0.52739412  0.96984562  0.81147372  1
  Sb  Sb17  1  0.47000137  0.00956300  0.19086167  1
  S  S18  1  0.94880011  0.95603295  0.83188248  1
  S  S19  1  0.06877925  0.03021954  0.21042118  1
  S  S20  1  0.41631782  0.95833530  0.00083256  1
  S  S21  1  0.58987698  0.02287233  0.02592499  1
  S  S22  1  0.18958856  0.98914503  0.91000298  1
  S  S23  1  0.84208445  0.99312583  0.11600056  1
  S  S24  1  0.09565340  0.49656198  0.65217208  1
  S  S25  1  0.88845347  0.48326098  0.33737060  1
  S  S26  1  0.74200788  0.98107842  0.31807095  1
  S  S27  1  0.27537400  0.05727439  0.69851625  1
  S  S28  1  0.16283887  0.48443939  0.44868713  1
  S  S29  1  0.84333373  0.49578799  0.56625642  1
  S  S30  1  0.44821213  0.49523589  0.83279945  1
  S  S31  1  0.59046900  0.51930215  0.22060887  1
  S  S32  1  0.91898126  0.47693205  0.99745632  1
  S  S33  1  0.08505098  0.50376545  0.00170473  1
  S  S34  1  0.68714179  0.47173644  0.90279609  1
  S  S35  1  0.35639484  0.46373744  0.11381946  1
  S  S36  1  0.60843597  0.93355097  0.66199928  1
  S  S37  1  0.42072645  0.97446517  0.36961162  1
  S  S38  1  0.24829782  0.49626162  0.28431205  1
  S  S39  1  0.76726275  0.50704627  0.68681038  1
  S  S40  1  0.67138529  0.97890262  0.44856381  1
  S  S41  1  0.32362320  0.03732136  0.54081863  1
