# generated using pymatgen
data_Pr2Mn3(SbS3)4
_symmetry_space_group_name_H-M   'P 1'
_cell_length_a   20.02960800
_cell_length_b   3.90410600
_cell_length_c   14.95364829
_cell_angle_alpha   90.00000000
_cell_angle_beta   126.33350609
_cell_angle_gamma   90.00000000
_symmetry_Int_Tables_number   1
_chemical_formula_structural   Pr2Mn3(SbS3)4
_chemical_formula_sum   'Pr4 Mn6 Sb8 S24'
_cell_volume   942.00006694
_cell_formula_units_Z   2
loop_
 _symmetry_equiv_pos_site_id
 _symmetry_equiv_pos_as_xyz
  1  'x, y, z'
loop_
 _atom_site_type_symbol
 _atom_site_label
 _atom_site_symmetry_multiplicity
 _atom_site_fract_x
 _atom_site_fract_y
 _atom_site_fract_z
 _atom_site_occupancy
  Pr  Pr0  1  0.26713249  0.44803886  0.86563101  1
  Pr  Pr1  1  0.73322946  0.55894148  0.13609101  1
  Pr  Pr2  1  0.77455181  0.96581872  0.86600584  1
  Pr  Pr3  1  0.22735038  0.98130296  0.12800987  1
  Mn  Mn4  1  0.29263542  0.54868039  0.59696449  1
  Mn  Mn5  1  0.70742974  0.51597162  0.39372791  1
  Mn  Mn6  1  0.99522808  0.90312292  0.99444463  1
  Mn  Mn7  1  0.79193852  0.04465604  0.59838470  1
  Mn  Mn8  1  0.18427681  0.99315784  0.39860822  1
  Mn  Mn9  1  0.52656285  0.51282338  0.03319124  1
  Sb  Sb10  1  0.89643189  0.99941667  0.45509822  1
  Sb  Sb11  1  0.11612162  0.00797301  0.55569978  1
  Sb  Sb12  1  0.03079496  0.50954851  0.80648953  1
  Sb  Sb13  1  0.96192808  0.47699398  0.18704316  1
  Sb  Sb14  1  0.40270871  0.50297263  0.46245322  1
  Sb  Sb15  1  0.60843061  0.43386608  0.55367230  1
  Sb  Sb16  1  0.52744892  0.96985746  0.81159593  1
  Sb  Sb17  1  0.47008234  0.00996957  0.19110947  1
  S  S18  1  0.94915233  0.95711958  0.83235990  1
  S  S19  1  0.06882837  0.03006577  0.21101660  1
  S  S20  1  0.41621971  0.95840030  0.00063162  1
  S  S21  1  0.59006327  0.02366753  0.02634395  1
  S  S22  1  0.18992227  0.98990216  0.91034063  1
  S  S23  1  0.84212524  0.99285746  0.11606030  1
  S  S24  1  0.09616316  0.49606410  0.65270225  1
  S  S25  1  0.88809841  0.48256516  0.33716116  1
  S  S26  1  0.74229090  0.97968722  0.31845225  1
  S  S27  1  0.27511121  0.05661361  0.69852314  1
  S  S28  1  0.16275052  0.48355499  0.44840650  1
  S  S29  1  0.84342188  0.49471460  0.56608744  1
  S  S30  1  0.44826848  0.49545565  0.83278283  1
  S  S31  1  0.59044300  0.51989609  0.22026711  1
  S  S32  1  0.91867227  0.47779910  0.99721844  1
  S  S33  1  0.08477035  0.50420005  0.00139314  1
  S  S34  1  0.68716665  0.47119807  0.90259647  1
  S  S35  1  0.35651651  0.46233270  0.11379798  1
  S  S36  1  0.60834048  0.93398046  0.66206005  1
  S  S37  1  0.42062949  0.97442930  0.36925887  1
  S  S38  1  0.24869890  0.49654270  0.28432732  1
  S  S39  1  0.76767803  0.50699204  0.68742961  1
  S  S40  1  0.67157990  0.97979876  0.44826811  1
  S  S41  1  0.32398028  0.03777912  0.54163456  1
