# generated using pymatgen
data_Pr2Mn3(SbS3)4
_symmetry_space_group_name_H-M   'P 1'
_cell_length_a   20.02960800
_cell_length_b   3.90410600
_cell_length_c   14.95364829
_cell_angle_alpha   90.00000000
_cell_angle_beta   126.33350609
_cell_angle_gamma   90.00000000
_symmetry_Int_Tables_number   1
_chemical_formula_structural   Pr2Mn3(SbS3)4
_chemical_formula_sum   'Pr4 Mn6 Sb8 S24'
_cell_volume   942.00006694
_cell_formula_units_Z   2
loop_
 _symmetry_equiv_pos_site_id
 _symmetry_equiv_pos_as_xyz
  1  'x, y, z'
loop_
 _atom_site_type_symbol
 _atom_site_label
 _atom_site_symmetry_multiplicity
 _atom_site_fract_x
 _atom_site_fract_y
 _atom_site_fract_z
 _atom_site_occupancy
  Pr  Pr0  1  0.26718299  0.44755462  0.86566924  1
  Pr  Pr1  1  0.73308233  0.55876715  0.13604717  1
  Pr  Pr2  1  0.77456844  0.96542588  0.86590884  1
  Pr  Pr3  1  0.22732917  0.98088565  0.12810581  1
  Mn  Mn4  1  0.29236603  0.54877221  0.59728287  1
  Mn  Mn5  1  0.70736653  0.51544453  0.39383731  1
  Mn  Mn6  1  0.99545511  0.90255641  0.99472090  1
  Mn  Mn7  1  0.79200077  0.04521404  0.59831301  1
  Mn  Mn8  1  0.18452823  0.99333377  0.39929962  1
  Mn  Mn9  1  0.52651230  0.51264275  0.03331064  1
  Sb  Sb10  1  0.89640536  0.99990498  0.45503323  1
  Sb  Sb11  1  0.11633346  0.00724419  0.55594807  1
  Sb  Sb12  1  0.03077616  0.51071009  0.80652524  1
  Sb  Sb13  1  0.96202439  0.47674633  0.18734634  1
  Sb  Sb14  1  0.40267263  0.50283624  0.46242892  1
  Sb  Sb15  1  0.60852522  0.43451069  0.55385031  1
  Sb  Sb16  1  0.52748631  0.96973811  0.81164256  1
  Sb  Sb17  1  0.47022894  0.01016404  0.19135525  1
  S  S18  1  0.94952512  0.95854028  0.83275451  1
  S  S19  1  0.06887129  0.02956082  0.21143699  1
  S  S20  1  0.41614355  0.95846808  0.00052267  1
  S  S21  1  0.59025426  0.02395424  0.02658985  1
  S  S22  1  0.19023991  0.99107843  0.91075616  1
  S  S23  1  0.84205934  0.99249442  0.11612869  1
  S  S24  1  0.09644550  0.49614169  0.65294618  1
  S  S25  1  0.88776603  0.48199221  0.33687791  1
  S  S26  1  0.74244269  0.97809842  0.31873350  1
  S  S27  1  0.27474519  0.05624918  0.69829312  1
  S  S28  1  0.16246327  0.48284607  0.44797313  1
  S  S29  1  0.84341537  0.49364992  0.56589112  1
  S  S30  1  0.44835558  0.49575260  0.83296802  1
  S  S31  1  0.59035959  0.52048118  0.21990430  1
  S  S32  1  0.91851262  0.47909530  0.99715857  1
  S  S33  1  0.08439010  0.50446233  0.00104271  1
  S  S34  1  0.68723199  0.47036459  0.90232958  1
  S  S35  1  0.35647570  0.46017139  0.11357311  1
  S  S36  1  0.60819250  0.93470810  0.66222238  1
  S  S37  1  0.42049801  0.97454372  0.36860786  1
  S  S38  1  0.24910288  0.49710459  0.28437690  1
  S  S39  1  0.76790545  0.50662245  0.68770329  1
  S  S40  1  0.67165127  0.98063401  0.44787552  1
  S  S41  1  0.32427615  0.03810488  0.54234095  1
