# generated using pymatgen
data_Pr2Mn3(SbS3)4
_symmetry_space_group_name_H-M   'P 1'
_cell_length_a   20.02960800
_cell_length_b   3.90410600
_cell_length_c   14.95364829
_cell_angle_alpha   90.00000000
_cell_angle_beta   126.33350609
_cell_angle_gamma   90.00000000
_symmetry_Int_Tables_number   1
_chemical_formula_structural   Pr2Mn3(SbS3)4
_chemical_formula_sum   'Pr4 Mn6 Sb8 S24'
_cell_volume   942.00006694
_cell_formula_units_Z   2
loop_
 _symmetry_equiv_pos_site_id
 _symmetry_equiv_pos_as_xyz
  1  'x, y, z'
loop_
 _atom_site_type_symbol
 _atom_site_label
 _atom_site_symmetry_multiplicity
 _atom_site_fract_x
 _atom_site_fract_y
 _atom_site_fract_z
 _atom_site_occupancy
  Pr  Pr0  1  0.26723466  0.44742307  0.86569178  1
  Pr  Pr1  1  0.73303161  0.55864204  0.13603303  1
  Pr  Pr2  1  0.77458738  0.96497521  0.86586805  1
  Pr  Pr3  1  0.22730080  0.98041785  0.12818842  1
  Mn  Mn4  1  0.29209166  0.54866042  0.59775823  1
  Mn  Mn5  1  0.70722279  0.51479501  0.39390580  1
  Mn  Mn6  1  0.99559091  0.90221824  0.99491429  1
  Mn  Mn7  1  0.79213432  0.04571385  0.59834569  1
  Mn  Mn8  1  0.18468780  0.99349489  0.39977816  1
  Mn  Mn9  1  0.52632856  0.51276759  0.03324031  1
  Sb  Sb10  1  0.89644881  0.00043688  0.45511186  1
  Sb  Sb11  1  0.11654454  0.00641966  0.55621206  1
  Sb  Sb12  1  0.03071807  0.51178972  0.80648587  1
  Sb  Sb13  1  0.96222201  0.47660084  0.18771565  1
  Sb  Sb14  1  0.40263417  0.50238905  0.46239157  1
  Sb  Sb15  1  0.60869764  0.43514206  0.55402337  1
  Sb  Sb16  1  0.52749328  0.96932264  0.81164945  1
  Sb  Sb17  1  0.47035619  0.01080109  0.19153361  1
  S  S18  1  0.94986186  0.95993165  0.83305265  1
  S  S19  1  0.06899102  0.02921700  0.21173880  1
  S  S20  1  0.41598395  0.95869892  0.00016481  1
  S  S21  1  0.59034543  0.02470387  0.02674010  1
  S  S22  1  0.19046473  0.99179339  0.91113908  1
  S  S23  1  0.84194210  0.99182306  0.11610373  1
  S  S24  1  0.09665600  0.49611703  0.65309247  1
  S  S25  1  0.88744920  0.48191656  0.33646450  1
  S  S26  1  0.74261672  0.97707053  0.31894988  1
  S  S27  1  0.27448719  0.05617321  0.69806228  1
  S  S28  1  0.16234264  0.48175314  0.44787255  1
  S  S29  1  0.84339234  0.49235494  0.56568740  1
  S  S30  1  0.44829962  0.49620336  0.83308795  1
  S  S31  1  0.59018705  0.52039792  0.21947143  1
  S  S32  1  0.91837487  0.48079985  0.99718587  1
  S  S33  1  0.08394433  0.50447787  0.00073029  1
  S  S34  1  0.68724789  0.46920243  0.90215840  1
  S  S35  1  0.35644829  0.45804301  0.11346800  1
  S  S36  1  0.60803817  0.93524104  0.66243184  1
  S  S37  1  0.42015760  0.97495883  0.36792475  1
  S  S38  1  0.24948015  0.49708501  0.28446067  1
  S  S39  1  0.76818980  0.50646589  0.68810028  1
  S  S40  1  0.67175538  0.98163558  0.44742816  1
  S  S41  1  0.32462046  0.03808523  0.54309352  1
