# generated using pymatgen
data_Pr2Mn3(SbS3)4
_symmetry_space_group_name_H-M   'P 1'
_cell_length_a   20.02960800
_cell_length_b   3.90410600
_cell_length_c   14.95364829
_cell_angle_alpha   90.00000000
_cell_angle_beta   126.33350609
_cell_angle_gamma   90.00000000
_symmetry_Int_Tables_number   1
_chemical_formula_structural   Pr2Mn3(SbS3)4
_chemical_formula_sum   'Pr4 Mn6 Sb8 S24'
_cell_volume   942.00006694
_cell_formula_units_Z   2
loop_
 _symmetry_equiv_pos_site_id
 _symmetry_equiv_pos_as_xyz
  1  'x, y, z'
loop_
 _atom_site_type_symbol
 _atom_site_label
 _atom_site_symmetry_multiplicity
 _atom_site_fract_x
 _atom_site_fract_y
 _atom_site_fract_z
 _atom_site_occupancy
  Pr  Pr0  1  0.26723782  0.44710986  0.86563869  1
  Pr  Pr1  1  0.73297513  0.55852737  0.13597784  1
  Pr  Pr2  1  0.77456761  0.96446194  0.86583824  1
  Pr  Pr3  1  0.22729396  0.98005479  0.12826786  1
  Mn  Mn4  1  0.29182304  0.54853741  0.59816112  1
  Mn  Mn5  1  0.70721597  0.51393374  0.39417410  1
  Mn  Mn6  1  0.99572818  0.90238405  0.99505832  1
  Mn  Mn7  1  0.79221068  0.04607358  0.59834178  1
  Mn  Mn8  1  0.18505638  0.99374779  0.40029929  1
  Mn  Mn9  1  0.52607189  0.51284342  0.03308790  1
  Sb  Sb10  1  0.89650541  0.00082301  0.45521403  1
  Sb  Sb11  1  0.11677245  0.00574195  0.55648047  1
  Sb  Sb12  1  0.03077972  0.51257991  0.80648599  1
  Sb  Sb13  1  0.96240138  0.47650258  0.18818386  1
  Sb  Sb14  1  0.40263972  0.50207331  0.46237806  1
  Sb  Sb15  1  0.60890638  0.43558811  0.55420547  1
  Sb  Sb16  1  0.52754362  0.96923445  0.81161121  1
  Sb  Sb17  1  0.47045425  0.01132336  0.19172954  1
  S  S18  1  0.95032711  0.96096353  0.83347984  1
  S  S19  1  0.06881364  0.02860192  0.21169229  1
  S  S20  1  0.41583137  0.95880683  0.99983591  1
  S  S21  1  0.59050982  0.02533445  0.02694869  1
  S  S22  1  0.19057954  0.99209534  0.91145542  1
  S  S23  1  0.84201108  0.99158573  0.11641364  1
  S  S24  1  0.09690029  0.49598885  0.65326823  1
  S  S25  1  0.88719790  0.48248913  0.33617012  1
  S  S26  1  0.74295017  0.97584749  0.31927930  1
  S  S27  1  0.27412211  0.05618979  0.69774703  1
  S  S28  1  0.16209713  0.48112724  0.44769563  1
  S  S29  1  0.84327984  0.49038520  0.56558541  1
  S  S30  1  0.44819600  0.49658691  0.83318114  1
  S  S31  1  0.58990355  0.52036893  0.21889694  1
  S  S32  1  0.91811679  0.48266422  0.99696546  1
  S  S33  1  0.08353537  0.50430561  0.00049071  1
  S  S34  1  0.68712721  0.46786365  0.90193688  1
  S  S35  1  0.35634936  0.45607479  0.11341779  1
  S  S36  1  0.60774099  0.93658001  0.66263963  1
  S  S37  1  0.41973063  0.97539378  0.36698157  1
  S  S38  1  0.24978546  0.49690243  0.28481613  1
  S  S39  1  0.76838104  0.50628864  0.68849865  1
  S  S40  1  0.67182969  0.98235537  0.44679260  1
  S  S41  1  0.32487196  0.03816514  0.54359938  1
