# generated using pymatgen
data_Pr2Mn3(SbS3)4
_symmetry_space_group_name_H-M   'P 1'
_cell_length_a   20.02960800
_cell_length_b   3.90410600
_cell_length_c   14.95364829
_cell_angle_alpha   90.00000000
_cell_angle_beta   126.33350609
_cell_angle_gamma   90.00000000
_symmetry_Int_Tables_number   1
_chemical_formula_structural   Pr2Mn3(SbS3)4
_chemical_formula_sum   'Pr4 Mn6 Sb8 S24'
_cell_volume   942.00006694
_cell_formula_units_Z   2
loop_
 _symmetry_equiv_pos_site_id
 _symmetry_equiv_pos_as_xyz
  1  'x, y, z'
loop_
 _atom_site_type_symbol
 _atom_site_label
 _atom_site_symmetry_multiplicity
 _atom_site_fract_x
 _atom_site_fract_y
 _atom_site_fract_z
 _atom_site_occupancy
  Pr  Pr0  1  0.26724684  0.44676450  0.86567436  1
  Pr  Pr1  1  0.73290737  0.55829010  0.13600570  1
  Pr  Pr2  1  0.77449194  0.96387978  0.86582328  1
  Pr  Pr3  1  0.22736485  0.97972436  0.12833940  1
  Mn  Mn4  1  0.29160012  0.54867439  0.59855240  1
  Mn  Mn5  1  0.70721803  0.51358557  0.39439692  1
  Mn  Mn6  1  0.99591151  0.90234716  0.99514380  1
  Mn  Mn7  1  0.79225415  0.04621280  0.59839812  1
  Mn  Mn8  1  0.18549056  0.99391210  0.40078892  1
  Mn  Mn9  1  0.52571609  0.51296783  0.03288008  1
  Sb  Sb10  1  0.89655201  0.00099240  0.45535388  1
  Sb  Sb11  1  0.11693796  0.00492458  0.55670251  1
  Sb  Sb12  1  0.03082879  0.51348847  0.80654259  1
  Sb  Sb13  1  0.96262864  0.47646796  0.18867456  1
  Sb  Sb14  1  0.40257775  0.50166110  0.46231485  1
  Sb  Sb15  1  0.60908010  0.43570269  0.55436702  1
  Sb  Sb16  1  0.52759597  0.96901282  0.81157081  1
  Sb  Sb17  1  0.47052368  0.01144801  0.19187981  1
  S  S18  1  0.95075026  0.96178057  0.83374086  1
  S  S19  1  0.06861580  0.02822230  0.21165550  1
  S  S20  1  0.41576209  0.95867307  0.99947645  1
  S  S21  1  0.59056289  0.02618832  0.02709751  1
  S  S22  1  0.19055034  0.99268708  0.91163062  1
  S  S23  1  0.84194225  0.99117864  0.11652035  1
  S  S24  1  0.09716737  0.49519472  0.65348777  1
  S  S25  1  0.88696977  0.48315536  0.33608952  1
  S  S26  1  0.74325315  0.97520676  0.31962261  1
  S  S27  1  0.27396365  0.05624977  0.69760383  1
  S  S28  1  0.16180757  0.48048051  0.44734239  1
  S  S29  1  0.84316989  0.48854390  0.56552156  1
  S  S30  1  0.44817540  0.49642582  0.83327092  1
  S  S31  1  0.58958697  0.52114826  0.21843091  1
  S  S32  1  0.91792456  0.48457384  0.99676640  1
  S  S33  1  0.08312687  0.50371323  0.00033428  1
  S  S34  1  0.68706645  0.46624735  0.90182796  1
  S  S35  1  0.35615115  0.45388926  0.11329388  1
  S  S36  1  0.60747871  0.93793842  0.66284086  1
  S  S37  1  0.41926265  0.97602883  0.36594000  1
  S  S38  1  0.24997818  0.49696315  0.28535232  1
  S  S39  1  0.76853197  0.50564540  0.68873287  1
  S  S40  1  0.67203222  0.98292516  0.44617784  1
  S  S41  1  0.32499241  0.03817469  0.54382840  1
