# generated using pymatgen
data_Pr2Mn3(SbS3)4
_symmetry_space_group_name_H-M   'P 1'
_cell_length_a   20.02960800
_cell_length_b   3.90410600
_cell_length_c   14.95364829
_cell_angle_alpha   90.00000000
_cell_angle_beta   126.33350609
_cell_angle_gamma   90.00000000
_symmetry_Int_Tables_number   1
_chemical_formula_structural   Pr2Mn3(SbS3)4
_chemical_formula_sum   'Pr4 Mn6 Sb8 S24'
_cell_volume   942.00006694
_cell_formula_units_Z   2
loop_
 _symmetry_equiv_pos_site_id
 _symmetry_equiv_pos_as_xyz
  1  'x, y, z'
loop_
 _atom_site_type_symbol
 _atom_site_label
 _atom_site_symmetry_multiplicity
 _atom_site_fract_x
 _atom_site_fract_y
 _atom_site_fract_z
 _atom_site_occupancy
  Pr  Pr0  1  0.26728021  0.44660089  0.86567755  1
  Pr  Pr1  1  0.73284665  0.55799583  0.13610486  1
  Pr  Pr2  1  0.77438312  0.96337072  0.86570213  1
  Pr  Pr3  1  0.22744925  0.97939863  0.12847939  1
  Mn  Mn4  1  0.29153533  0.54929082  0.59905126  1
  Mn  Mn5  1  0.70731235  0.51318125  0.39459473  1
  Mn  Mn6  1  0.99619047  0.90261289  0.99549004  1
  Mn  Mn7  1  0.79229654  0.04580847  0.59843577  1
  Mn  Mn8  1  0.18586218  0.99434311  0.40131612  1
  Mn  Mn9  1  0.52545768  0.51318511  0.03273006  1
  Sb  Sb10  1  0.89651607  0.00108924  0.45545537  1
  Sb  Sb11  1  0.11702536  0.00402357  0.55684714  1
  Sb  Sb12  1  0.03087649  0.51444247  0.80653968  1
  Sb  Sb13  1  0.96279800  0.47640966  0.18913273  1
  Sb  Sb14  1  0.40246476  0.50129956  0.46213628  1
  Sb  Sb15  1  0.60926421  0.43558603  0.55442722  1
  Sb  Sb16  1  0.52762805  0.96878905  0.81162434  1
  Sb  Sb17  1  0.47050318  0.01171680  0.19199858  1
  S  S18  1  0.95111316  0.96198635  0.83380446  1
  S  S19  1  0.06835967  0.02852019  0.21126303  1
  S  S20  1  0.41580097  0.95832544  0.99924094  1
  S  S21  1  0.59065985  0.02717423  0.02720410  1
  S  S22  1  0.19056106  0.99310913  0.91179775  1
  S  S23  1  0.84190235  0.99037705  0.11670796  1
  S  S24  1  0.09771618  0.49467597  0.65393891  1
  S  S25  1  0.88674521  0.48416795  0.33613868  1
  S  S26  1  0.74339049  0.97448506  0.31982312  1
  S  S27  1  0.27378796  0.05713647  0.69736991  1
  S  S28  1  0.16146204  0.48018077  0.44704821  1
  S  S29  1  0.84315587  0.48723041  0.56557807  1
  S  S30  1  0.44814930  0.49608633  0.83354886  1
  S  S31  1  0.58933405  0.52166814  0.21823557  1
  S  S32  1  0.91761346  0.48635326  0.99656209  1
  S  S33  1  0.08280821  0.50333520  0.00030989  1
  S  S34  1  0.68714940  0.46515765  0.90166746  1
  S  S35  1  0.35598416  0.45234988  0.11321277  1
  S  S36  1  0.60709526  0.93898387  0.66293003  1
  S  S37  1  0.41873891  0.97639367  0.36499113  1
  S  S38  1  0.25030567  0.49733419  0.28623995  1
  S  S39  1  0.76866915  0.50510945  0.68871184  1
  S  S40  1  0.67232242  0.98335084  0.44563332  1
  S  S41  1  0.32533748  0.03762152  0.54421450  1
