# generated using pymatgen
data_Pr2Mn3(SbS3)4
_symmetry_space_group_name_H-M   'P 1'
_cell_length_a   20.02960800
_cell_length_b   3.90410600
_cell_length_c   14.95364829
_cell_angle_alpha   90.00000000
_cell_angle_beta   126.33350609
_cell_angle_gamma   90.00000000
_symmetry_Int_Tables_number   1
_chemical_formula_structural   Pr2Mn3(SbS3)4
_chemical_formula_sum   'Pr4 Mn6 Sb8 S24'
_cell_volume   942.00006694
_cell_formula_units_Z   2
loop_
 _symmetry_equiv_pos_site_id
 _symmetry_equiv_pos_as_xyz
  1  'x, y, z'
loop_
 _atom_site_type_symbol
 _atom_site_label
 _atom_site_symmetry_multiplicity
 _atom_site_fract_x
 _atom_site_fract_y
 _atom_site_fract_z
 _atom_site_occupancy
  Pr  Pr0  1  0.26725873  0.44638464  0.86559949  1
  Pr  Pr1  1  0.73277315  0.55762344  0.13615504  1
  Pr  Pr2  1  0.77433300  0.96301973  0.86564966  1
  Pr  Pr3  1  0.22754770  0.97891937  0.12855929  1
  Mn  Mn4  1  0.29149167  0.54926183  0.59956825  1
  Mn  Mn5  1  0.70745302  0.51264283  0.39465420  1
  Mn  Mn6  1  0.99628889  0.90291140  0.99568226  1
  Mn  Mn7  1  0.79223412  0.04575014  0.59849727  1
  Mn  Mn8  1  0.18625723  0.99449416  0.40172320  1
  Mn  Mn9  1  0.52524865  0.51319717  0.03259908  1
  Sb  Sb10  1  0.89652668  0.00128778  0.45550215  1
  Sb  Sb11  1  0.11721096  0.00329158  0.55711221  1
  Sb  Sb12  1  0.03095240  0.51565084  0.80657273  1
  Sb  Sb13  1  0.96307051  0.47683921  0.18958897  1
  Sb  Sb14  1  0.40236919  0.50062924  0.46207785  1
  Sb  Sb15  1  0.60943896  0.43567549  0.55443558  1
  Sb  Sb16  1  0.52759871  0.96888502  0.81167148  1
  Sb  Sb17  1  0.47051248  0.01216412  0.19218283  1
  S  S18  1  0.95145162  0.96230933  0.83386736  1
  S  S19  1  0.06807353  0.02892166  0.21101611  1
  S  S20  1  0.41603254  0.95808756  0.99904772  1
  S  S21  1  0.59063523  0.02700519  0.02730658  1
  S  S22  1  0.19065869  0.99413274  0.91203976  1
  S  S23  1  0.84190680  0.98995220  0.11695876  1
  S  S24  1  0.09831478  0.49388932  0.65436415  1
  S  S25  1  0.88665389  0.48512015  0.33627402  1
  S  S26  1  0.74344396  0.97346247  0.32000188  1
  S  S27  1  0.27365229  0.05758702  0.69715913  1
  S  S28  1  0.16109235  0.47979868  0.44649919  1
  S  S29  1  0.84313611  0.48600499  0.56553344  1
  S  S30  1  0.44815731  0.49571363  0.83392806  1
  S  S31  1  0.58930215  0.52161593  0.21824693  1
  S  S32  1  0.91726437  0.48787999  0.99634500  1
  S  S33  1  0.08261421  0.50370412  0.00027127  1
  S  S34  1  0.68721490  0.46503586  0.90171245  1
  S  S35  1  0.35594080  0.45117601  0.11328426  1
  S  S36  1  0.60681545  0.93930912  0.66300203  1
  S  S37  1  0.41815942  0.97625600  0.36391132  1
  S  S38  1  0.25058355  0.49810969  0.28700070  1
  S  S39  1  0.76883075  0.50457765  0.68866838  1
  S  S40  1  0.67249810  0.98323770  0.44516632  1
  S  S41  1  0.32560776  0.03728774  0.54461626  1
