# generated using pymatgen
data_Pr2Mn3(SbS3)4
_symmetry_space_group_name_H-M   'P 1'
_cell_length_a   20.02960800
_cell_length_b   3.90410600
_cell_length_c   14.95364829
_cell_angle_alpha   90.00000000
_cell_angle_beta   126.33350609
_cell_angle_gamma   90.00000000
_symmetry_Int_Tables_number   1
_chemical_formula_structural   Pr2Mn3(SbS3)4
_chemical_formula_sum   'Pr4 Mn6 Sb8 S24'
_cell_volume   942.00006694
_cell_formula_units_Z   2
loop_
 _symmetry_equiv_pos_site_id
 _symmetry_equiv_pos_as_xyz
  1  'x, y, z'
loop_
 _atom_site_type_symbol
 _atom_site_label
 _atom_site_symmetry_multiplicity
 _atom_site_fract_x
 _atom_site_fract_y
 _atom_site_fract_z
 _atom_site_occupancy
  Pr  Pr0  1  0.26958228  0.50376792  0.86824950  1
  Pr  Pr1  1  0.73410298  0.51325630  0.13475655  1
  Pr  Pr2  1  0.76467169  0.03015416  0.86808285  1
  Pr  Pr3  1  0.23017769  0.98499663  0.13096844  1
  Mn  Mn4  1  0.30075706  0.46320484  0.60835710  1
  Mn  Mn5  1  0.68516577  0.46817150  0.36442819  1
  Mn  Mn6  1  0.00274386  0.99238920  0.01011682  1
  Mn  Mn7  1  0.79284414  0.02674423  0.61416961  1
  Mn  Mn8  1  0.19413400  0.00300971  0.36530452  1
  Mn  Mn9  1  0.48246124  0.47213535  0.98215101  1
  Sb  Sb10  1  0.88973552  0.98593270  0.44801468  1
  Sb  Sb11  1  0.11083706  0.98019975  0.54681003  1
  Sb  Sb12  1  0.03534542  0.52899005  0.82181188  1
  Sb  Sb13  1  0.96747664  0.49301128  0.19070683  1
  Sb  Sb14  1  0.39526746  0.49923323  0.45110707  1
  Sb  Sb15  1  0.61093060  0.48053758  0.54783744  1
  Sb  Sb16  1  0.53146042  0.97176628  0.80600357  1
  Sb  Sb17  1  0.46573753  0.02248916  0.18708869  1
  S  S18  1  0.93997584  0.02189125  0.80807120  1
  S  S19  1  0.06687495  0.00617011  0.20811127  1
  S  S20  1  0.41900589  0.97201623  0.98148340  1
  S  S21  1  0.58732428  0.02852296  0.01480732  1
  S  S22  1  0.16371111  0.03539543  0.90011034  1
  S  S23  1  0.82627955  0.00488434  0.10539165  1
  S  S24  1  0.08632006  0.49805169  0.63949710  1
  S  S25  1  0.91504915  0.48151902  0.35291537  1
  S  S26  1  0.73462249  0.01317056  0.29487737  1
  S  S27  1  0.25879890  0.01778426  0.70541873  1
  S  S28  1  0.16829476  0.51827222  0.43747361  1
  S  S29  1  0.80950198  0.51452273  0.53880261  1
  S  S30  1  0.43220449  0.47702596  0.80042478  1
  S  S31  1  0.55348600  0.50978459  0.18090120  1
  S  S32  1  0.92396201  0.50822059  0.99126127  1
  S  S33  1  0.09186624  0.49547109  0.02710072  1
  S  S34  1  0.66784443  0.55994156  0.89814039  1
  S  S35  1  0.32822150  0.46356904  0.09543807  1
  S  S36  1  0.58819503  0.99769222  0.64786173  1
  S  S37  1  0.39611013  0.98282049  0.33403728  1
  S  S38  1  0.24678064  0.47595869  0.31687641  1
  S  S39  1  0.76293290  0.51610337  0.69162003  1
  S  S40  1  0.66042432  0.98077581  0.43972467  1
  S  S41  1  0.32895342  0.97952762  0.55140554  1
