# generated using pymatgen
data_Pr2Mn3(SbS3)4
_symmetry_space_group_name_H-M   'P 1'
_cell_length_a   20.02960800
_cell_length_b   3.90410600
_cell_length_c   14.95364829
_cell_angle_alpha   90.00000000
_cell_angle_beta   126.33350609
_cell_angle_gamma   90.00000000
_symmetry_Int_Tables_number   1
_chemical_formula_structural   Pr2Mn3(SbS3)4
_chemical_formula_sum   'Pr4 Mn6 Sb8 S24'
_cell_volume   942.00006694
_cell_formula_units_Z   2
loop_
 _symmetry_equiv_pos_site_id
 _symmetry_equiv_pos_as_xyz
  1  'x, y, z'
loop_
 _atom_site_type_symbol
 _atom_site_label
 _atom_site_symmetry_multiplicity
 _atom_site_fract_x
 _atom_site_fract_y
 _atom_site_fract_z
 _atom_site_occupancy
  Pr  Pr0  1  0.26727715  0.44641055  0.86556499  1
  Pr  Pr1  1  0.73272618  0.55733320  0.13625050  1
  Pr  Pr2  1  0.77431655  0.96295594  0.86565217  1
  Pr  Pr3  1  0.22763144  0.97824276  0.12855904  1
  Mn  Mn4  1  0.29142006  0.54954078  0.60011979  1
  Mn  Mn5  1  0.70752648  0.51215504  0.39469707  1
  Mn  Mn6  1  0.99641381  0.90350225  0.99590920  1
  Mn  Mn7  1  0.79228778  0.04576858  0.59863892  1
  Mn  Mn8  1  0.18658826  0.99486908  0.40205518  1
  Mn  Mn9  1  0.52506510  0.51299085  0.03257913  1
  Sb  Sb10  1  0.89652638  0.00174007  0.45562051  1
  Sb  Sb11  1  0.11739711  0.00280073  0.55730363  1
  Sb  Sb12  1  0.03107746  0.51651668  0.80669553  1
  Sb  Sb13  1  0.96331181  0.47747915  0.19006263  1
  Sb  Sb14  1  0.40228119  0.49991641  0.46203916  1
  Sb  Sb15  1  0.60963862  0.43567186  0.55449487  1
  Sb  Sb16  1  0.52760167  0.96873010  0.81173878  1
  Sb  Sb17  1  0.47056602  0.01249918  0.19237831  1
  S  S18  1  0.95174619  0.96243163  0.83382979  1
  S  S19  1  0.06778183  0.02943820  0.21101294  1
  S  S20  1  0.41611853  0.95749787  0.99866919  1
  S  S21  1  0.59072997  0.02688692  0.02739111  1
  S  S22  1  0.19078608  0.99503772  0.91222518  1
  S  S23  1  0.84200796  0.98986804  0.11736914  1
  S  S24  1  0.09876514  0.49279804  0.65453642  1
  S  S25  1  0.88658438  0.48670891  0.33657614  1
  S  S26  1  0.74344255  0.97294819  0.32026013  1
  S  S27  1  0.27365572  0.05768468  0.69692345  1
  S  S28  1  0.16082115  0.47907863  0.44588604  1
  S  S29  1  0.84317816  0.48487440  0.56543448  1
  S  S30  1  0.44819717  0.49560906  0.83430240  1
  S  S31  1  0.58920130  0.52205879  0.21825934  1
  S  S32  1  0.91687550  0.48940008  0.99597841  1
  S  S33  1  0.08256806  0.50415354  0.00029998  1
  S  S34  1  0.68721852  0.46509918  0.90172930  1
  S  S35  1  0.35608997  0.45005259  0.11350708  1
  S  S36  1  0.60655150  0.93893602  0.66299123  1
  S  S37  1  0.41777856  0.97608475  0.36300536  1
  S  S38  1  0.25092202  0.49856924  0.28760925  1
  S  S39  1  0.76886915  0.50383503  0.68847337  1
  S  S40  1  0.67268148  0.98313313  0.44470177  1
  S  S41  1  0.32569384  0.03692515  0.54487986  1
