# generated using pymatgen
data_Pr2Mn3(SbS3)4
_symmetry_space_group_name_H-M   'P 1'
_cell_length_a   20.02960800
_cell_length_b   3.90410600
_cell_length_c   14.95364829
_cell_angle_alpha   90.00000000
_cell_angle_beta   126.33350609
_cell_angle_gamma   90.00000000
_symmetry_Int_Tables_number   1
_chemical_formula_structural   Pr2Mn3(SbS3)4
_chemical_formula_sum   'Pr4 Mn6 Sb8 S24'
_cell_volume   942.00006694
_cell_formula_units_Z   2
loop_
 _symmetry_equiv_pos_site_id
 _symmetry_equiv_pos_as_xyz
  1  'x, y, z'
loop_
 _atom_site_type_symbol
 _atom_site_label
 _atom_site_symmetry_multiplicity
 _atom_site_fract_x
 _atom_site_fract_y
 _atom_site_fract_z
 _atom_site_occupancy
  Pr  Pr0  1  0.26731666  0.44659586  0.86554463  1
  Pr  Pr1  1  0.73272556  0.55701129  0.13633484  1
  Pr  Pr2  1  0.77431410  0.96295043  0.86569133  1
  Pr  Pr3  1  0.22770241  0.97759178  0.12854265  1
  Mn  Mn4  1  0.29134868  0.54996475  0.60060455  1
  Mn  Mn5  1  0.70761453  0.51199444  0.39461575  1
  Mn  Mn6  1  0.99656987  0.90393663  0.99612675  1
  Mn  Mn7  1  0.79231962  0.04592308  0.59865494  1
  Mn  Mn8  1  0.18694305  0.99553414  0.40238274  1
  Mn  Mn9  1  0.52497687  0.51242264  0.03270565  1
  Sb  Sb10  1  0.89654145  0.00194146  0.45565183  1
  Sb  Sb11  1  0.11749936  0.00266346  0.55744625  1
  Sb  Sb12  1  0.03123755  0.51714727  0.80684124  1
  Sb  Sb13  1  0.96350794  0.47806452  0.19037450  1
  Sb  Sb14  1  0.40218497  0.49932092  0.46202443  1
  Sb  Sb15  1  0.60982644  0.43580736  0.55450903  1
  Sb  Sb16  1  0.52751354  0.96866996  0.81169565  1
  Sb  Sb17  1  0.47054926  0.01323699  0.19258510  1
  S  S18  1  0.95200874  0.96237381  0.83385836  1
  S  S19  1  0.06754766  0.02945589  0.21100783  1
  S  S20  1  0.41629625  0.95696770  0.99831301  1
  S  S21  1  0.59081234  0.02710758  0.02745884  1
  S  S22  1  0.19080382  0.99573934  0.91217578  1
  S  S23  1  0.84200311  0.98939745  0.11774502  1
  S  S24  1  0.09919346  0.49176702  0.65470490  1
  S  S25  1  0.88660278  0.48843124  0.33698937  1
  S  S26  1  0.74345212  0.97232951  0.32055167  1
  S  S27  1  0.27352244  0.05775373  0.69657093  1
  S  S28  1  0.16067834  0.47833244  0.44544553  1
  S  S29  1  0.84329297  0.48395924  0.56561467  1
  S  S30  1  0.44822516  0.49577943  0.83445744  1
  S  S31  1  0.58904812  0.52292597  0.21817281  1
  S  S32  1  0.91642063  0.49124396  0.99572718  1
  S  S33  1  0.08226848  0.50408365  0.00026543  1
  S  S34  1  0.68717786  0.46547098  0.90178817  1
  S  S35  1  0.35610295  0.44927003  0.11347488  1
  S  S36  1  0.60632677  0.93842002  0.66316667  1
  S  S37  1  0.41744129  0.97516624  0.36211402  1
  S  S38  1  0.25125456  0.49852218  0.28832791  1
  S  S39  1  0.76877685  0.50235990  0.68837431  1
  S  S40  1  0.67292085  0.98244635  0.44421968  1
  S  S41  1  0.32577520  0.03657176  0.54527063  1
