# generated using pymatgen
data_Pr2Mn3(SbS3)4
_symmetry_space_group_name_H-M   'P 1'
_cell_length_a   20.02960800
_cell_length_b   3.90410600
_cell_length_c   14.95364829
_cell_angle_alpha   90.00000000
_cell_angle_beta   126.33350609
_cell_angle_gamma   90.00000000
_symmetry_Int_Tables_number   1
_chemical_formula_structural   Pr2Mn3(SbS3)4
_chemical_formula_sum   'Pr4 Mn6 Sb8 S24'
_cell_volume   942.00006694
_cell_formula_units_Z   2
loop_
 _symmetry_equiv_pos_site_id
 _symmetry_equiv_pos_as_xyz
  1  'x, y, z'
loop_
 _atom_site_type_symbol
 _atom_site_label
 _atom_site_symmetry_multiplicity
 _atom_site_fract_x
 _atom_site_fract_y
 _atom_site_fract_z
 _atom_site_occupancy
  Pr  Pr0  1  0.26735841  0.44624357  0.86552382  1
  Pr  Pr1  1  0.73275189  0.55657406  0.13642750  1
  Pr  Pr2  1  0.77424082  0.96269561  0.86572447  1
  Pr  Pr3  1  0.22778943  0.97713824  0.12848256  1
  Mn  Mn4  1  0.29116853  0.55054290  0.60091259  1
  Mn  Mn5  1  0.70764444  0.51187367  0.39449517  1
  Mn  Mn6  1  0.99679827  0.90394883  0.99645535  1
  Mn  Mn7  1  0.79230127  0.04531311  0.59854560  1
  Mn  Mn8  1  0.18719452  0.99614485  0.40249563  1
  Mn  Mn9  1  0.52487596  0.51187929  0.03278216  1
  Sb  Sb10  1  0.89653267  0.00207621  0.45563218  1
  Sb  Sb11  1  0.11757600  0.00256087  0.55753517  1
  Sb  Sb12  1  0.03140560  0.51752839  0.80703216  1
  Sb  Sb13  1  0.96359080  0.47855243  0.19056654  1
  Sb  Sb14  1  0.40209250  0.49870399  0.46194099  1
  Sb  Sb15  1  0.61005068  0.43570409  0.55446825  1
  Sb  Sb16  1  0.52746878  0.96824579  0.81160311  1
  Sb  Sb17  1  0.47049097  0.01377628  0.19275718  1
  S  S18  1  0.95240968  0.96240369  0.83394147  1
  S  S19  1  0.06736467  0.02863361  0.21107959  1
  S  S20  1  0.41645109  0.95686910  0.99807801  1
  S  S21  1  0.59075443  0.02848275  0.02760363  1
  S  S22  1  0.19075573  0.99613419  0.91198145  1
  S  S23  1  0.84193448  0.98948765  0.11806514  1
  S  S24  1  0.09958777  0.49064480  0.65474761  1
  S  S25  1  0.88663939  0.48977369  0.33731920  1
  S  S26  1  0.74335667  0.97174109  0.32073378  1
  S  S27  1  0.27324073  0.05750080  0.69604682  1
  S  S28  1  0.16038324  0.47778452  0.44493905  1
  S  S29  1  0.84331748  0.48323384  0.56548194  1
  S  S30  1  0.44823260  0.49628236  0.83481103  1
  S  S31  1  0.58898946  0.52469565  0.21835427  1
  S  S32  1  0.91595347  0.49295620  0.99549547  1
  S  S33  1  0.08203633  0.50386799  0.00022639  1
  S  S34  1  0.68707983  0.46605486  0.90173870  1
  S  S35  1  0.35615576  0.44912247  0.11344773  1
  S  S36  1  0.60615755  0.93716979  0.66347152  1
  S  S37  1  0.41712272  0.97397565  0.36137220  1
  S  S38  1  0.25150131  0.49855779  0.28893974  1
  S  S39  1  0.76874210  0.50125256  0.68830798  1
  S  S40  1  0.67319800  0.98209516  0.44368094  1
  S  S41  1  0.32570877  0.03720304  0.54559703  1
