# generated using pymatgen
data_Pr2Mn3(SbS3)4
_symmetry_space_group_name_H-M   'P 1'
_cell_length_a   20.02960800
_cell_length_b   3.90410600
_cell_length_c   14.95364829
_cell_angle_alpha   90.00000000
_cell_angle_beta   126.33350609
_cell_angle_gamma   90.00000000
_symmetry_Int_Tables_number   1
_chemical_formula_structural   Pr2Mn3(SbS3)4
_chemical_formula_sum   'Pr4 Mn6 Sb8 S24'
_cell_volume   942.00006694
_cell_formula_units_Z   2
loop_
 _symmetry_equiv_pos_site_id
 _symmetry_equiv_pos_as_xyz
  1  'x, y, z'
loop_
 _atom_site_type_symbol
 _atom_site_label
 _atom_site_symmetry_multiplicity
 _atom_site_fract_x
 _atom_site_fract_y
 _atom_site_fract_z
 _atom_site_occupancy
  Pr  Pr0  1  0.26735127  0.44560695  0.86541552  1
  Pr  Pr1  1  0.73278829  0.55616939  0.13640216  1
  Pr  Pr2  1  0.77418834  0.96221300  0.86572431  1
  Pr  Pr3  1  0.22789643  0.97659386  0.12842612  1
  Mn  Mn4  1  0.29099548  0.55126824  0.60114607  1
  Mn  Mn5  1  0.70763313  0.51224907  0.39442545  1
  Mn  Mn6  1  0.99698979  0.90458067  0.99673332  1
  Mn  Mn7  1  0.79231852  0.04521354  0.59846454  1
  Mn  Mn8  1  0.18742635  0.99658416  0.40253537  1
  Mn  Mn9  1  0.52482783  0.51195539  0.03298936  1
  Sb  Sb10  1  0.89654075  0.00237181  0.45561149  1
  Sb  Sb11  1  0.11756156  0.00232381  0.55747035  1
  Sb  Sb12  1  0.03158605  0.51798235  0.80725814  1
  Sb  Sb13  1  0.96367360  0.47933083  0.19073254  1
  Sb  Sb14  1  0.40192213  0.49821311  0.46187257  1
  Sb  Sb15  1  0.61027372  0.43582434  0.55439407  1
  Sb  Sb16  1  0.52747645  0.96787035  0.81153796  1
  Sb  Sb17  1  0.47040015  0.01438070  0.19287555  1
  S  S18  1  0.95268379  0.96242863  0.83386648  1
  S  S19  1  0.06726355  0.02786175  0.21131801  1
  S  S20  1  0.41664499  0.95781590  0.99777130  1
  S  S21  1  0.59072258  0.03024614  0.02776188  1
  S  S22  1  0.19079771  0.99621408  0.91188900  1
  S  S23  1  0.84193324  0.98922923  0.11823985  1
  S  S24  1  0.09988945  0.49061867  0.65478881  1
  S  S25  1  0.88656965  0.49084771  0.33754438  1
  S  S26  1  0.74318520  0.97073760  0.32096538  1
  S  S27  1  0.27296256  0.05811389  0.69550171  1
  S  S28  1  0.16013231  0.47671251  0.44463728  1
  S  S29  1  0.84327215  0.48295634  0.56552941  1
  S  S30  1  0.44828360  0.49630178  0.83515103  1
  S  S31  1  0.58909122  0.52604769  0.21856068  1
  S  S32  1  0.91562113  0.49409473  0.99531589  1
  S  S33  1  0.08191078  0.50285290  0.00028196  1
  S  S34  1  0.68681391  0.46638535  0.90152621  1
  S  S35  1  0.35621154  0.44891654  0.11360146  1
  S  S36  1  0.60609899  0.93575696  0.66377342  1
  S  S37  1  0.41686349  0.97318005  0.36067986  1
  S  S38  1  0.25163887  0.49865492  0.28964519  1
  S  S39  1  0.76882938  0.50014617  0.68822282  1
  S  S40  1  0.67351251  0.98143629  0.44348398  1
  S  S41  1  0.32586696  0.03798467  0.54589909  1
