# generated using pymatgen
data_Pr2Mn3(SbS3)4
_symmetry_space_group_name_H-M   'P 1'
_cell_length_a   20.02960800
_cell_length_b   3.90410600
_cell_length_c   14.95364829
_cell_angle_alpha   90.00000000
_cell_angle_beta   126.33350609
_cell_angle_gamma   90.00000000
_symmetry_Int_Tables_number   1
_chemical_formula_structural   Pr2Mn3(SbS3)4
_chemical_formula_sum   'Pr4 Mn6 Sb8 S24'
_cell_volume   942.00006694
_cell_formula_units_Z   2
loop_
 _symmetry_equiv_pos_site_id
 _symmetry_equiv_pos_as_xyz
  1  'x, y, z'
loop_
 _atom_site_type_symbol
 _atom_site_label
 _atom_site_symmetry_multiplicity
 _atom_site_fract_x
 _atom_site_fract_y
 _atom_site_fract_z
 _atom_site_occupancy
  Pr  Pr0  1  0.26741230  0.44472071  0.86547105  1
  Pr  Pr1  1  0.73277874  0.55573328  0.13632407  1
  Pr  Pr2  1  0.77412422  0.96145355  0.86566033  1
  Pr  Pr3  1  0.22797826  0.97582713  0.12832917  1
  Mn  Mn4  1  0.29089173  0.55180341  0.60152139  1
  Mn  Mn5  1  0.70758891  0.51271554  0.39433874  1
  Mn  Mn6  1  0.99715838  0.90506571  0.99695158  1
  Mn  Mn7  1  0.79234863  0.04498077  0.59830748  1
  Mn  Mn8  1  0.18768825  0.99697656  0.40252488  1
  Mn  Mn9  1  0.52483847  0.51209463  0.03319886  1
  Sb  Sb10  1  0.89657969  0.00236821  0.45557644  1
  Sb  Sb11  1  0.11756697  0.00220239  0.55745927  1
  Sb  Sb12  1  0.03177304  0.51864208  0.80755011  1
  Sb  Sb13  1  0.96364392  0.47982364  0.19078195  1
  Sb  Sb14  1  0.40168226  0.49783197  0.46171620  1
  Sb  Sb15  1  0.61046029  0.43611826  0.55428328  1
  Sb  Sb16  1  0.52743698  0.96757411  0.81137980  1
  Sb  Sb17  1  0.47030904  0.01496186  0.19294007  1
  S  S18  1  0.95274235  0.96149637  0.83366780  1
  S  S19  1  0.06716945  0.02728240  0.21174022  1
  S  S20  1  0.41672011  0.95864131  0.99748473  1
  S  S21  1  0.59082113  0.03191516  0.02809717  1
  S  S22  1  0.19072059  0.99684920  0.91160748  1
  S  S23  1  0.84221986  0.98977398  0.11865842  1
  S  S24  1  0.10006641  0.49015427  0.65473165  1
  S  S25  1  0.88644353  0.49191493  0.33763848  1
  S  S26  1  0.74288051  0.96966872  0.32109403  1
  S  S27  1  0.27287143  0.05864311  0.69518287  1
  S  S28  1  0.15992151  0.47580057  0.44444783  1
  S  S29  1  0.84320240  0.48328467  0.56551320  1
  S  S30  1  0.44821293  0.49702772  0.83535329  1
  S  S31  1  0.58930463  0.52686676  0.21909016  1
  S  S32  1  0.91527054  0.49454495  0.99507588  1
  S  S33  1  0.08171434  0.50169821  0.00028304  1
  S  S34  1  0.68637019  0.46645359  0.90113614  1
  S  S35  1  0.35625720  0.44890043  0.11374586  1
  S  S36  1  0.60611976  0.93462033  0.66400272  1
  S  S37  1  0.41664297  0.97280287  0.36000465  1
  S  S38  1  0.25163244  0.49955777  0.29004776  1
  S  S39  1  0.76886524  0.49883236  0.68807638  1
  S  S40  1  0.67382919  0.98072125  0.44326054  1
  S  S41  1  0.32609194  0.03848269  0.54617578  1
