# generated using pymatgen
data_Pr2Mn3(SbS3)4
_symmetry_space_group_name_H-M   'P 1'
_cell_length_a   20.02960800
_cell_length_b   3.90410600
_cell_length_c   14.95364829
_cell_angle_alpha   90.00000000
_cell_angle_beta   126.33350609
_cell_angle_gamma   90.00000000
_symmetry_Int_Tables_number   1
_chemical_formula_structural   Pr2Mn3(SbS3)4
_chemical_formula_sum   'Pr4 Mn6 Sb8 S24'
_cell_volume   942.00006694
_cell_formula_units_Z   2
loop_
 _symmetry_equiv_pos_site_id
 _symmetry_equiv_pos_as_xyz
  1  'x, y, z'
loop_
 _atom_site_type_symbol
 _atom_site_label
 _atom_site_symmetry_multiplicity
 _atom_site_fract_x
 _atom_site_fract_y
 _atom_site_fract_z
 _atom_site_occupancy
  Pr  Pr0  1  0.26734878  0.44389409  0.86535660  1
  Pr  Pr1  1  0.73275950  0.55534963  0.13620746  1
  Pr  Pr2  1  0.77409928  0.96076148  0.86569844  1
  Pr  Pr3  1  0.22803969  0.97505092  0.12822764  1
  Mn  Mn4  1  0.29075295  0.55251042  0.60187766  1
  Mn  Mn5  1  0.70748574  0.51343555  0.39418015  1
  Mn  Mn6  1  0.99750736  0.90529874  0.99724756  1
  Mn  Mn7  1  0.79241329  0.04504192  0.59828918  1
  Mn  Mn8  1  0.18802222  0.99751674  0.40273401  1
  Mn  Mn9  1  0.52478746  0.51237967  0.03316450  1
  Sb  Sb10  1  0.89668682  0.00214043  0.45560676  1
  Sb  Sb11  1  0.11748372  0.00205597  0.55739730  1
  Sb  Sb12  1  0.03194404  0.51956136  0.80787255  1
  Sb  Sb13  1  0.96361138  0.48043719  0.19078006  1
  Sb  Sb14  1  0.40148381  0.49766247  0.46160766  1
  Sb  Sb15  1  0.61075048  0.43634098  0.55423284  1
  Sb  Sb16  1  0.52735628  0.96747391  0.81125919  1
  Sb  Sb17  1  0.47023744  0.01546765  0.19295782  1
  S  S18  1  0.95259846  0.96054238  0.83327404  1
  S  S19  1  0.06691457  0.02668627  0.21199054  1
  S  S20  1  0.41699537  0.96037522  0.99738728  1
  S  S21  1  0.59091383  0.03292777  0.02845241  1
  S  S22  1  0.19083824  0.99628248  0.91159449  1
  S  S23  1  0.84264541  0.99005841  0.11917021  1
  S  S24  1  0.10026502  0.49028331  0.65482993  1
  S  S25  1  0.88640635  0.49282614  0.33762964  1
  S  S26  1  0.74256284  0.96811380  0.32128474  1
  S  S27  1  0.27277132  0.05934221  0.69492407  1
  S  S28  1  0.15981854  0.47502963  0.44427345  1
  S  S29  1  0.84296613  0.48354084  0.56540819  1
  S  S30  1  0.44823015  0.49770069  0.83552767  1
  S  S31  1  0.58949849  0.52789407  0.21945945  1
  S  S32  1  0.91494688  0.49500799  0.99480735  1
  S  S33  1  0.08143005  0.50092845  0.99998687  1
  S  S34  1  0.68592759  0.46627055  0.90056000  1
  S  S35  1  0.35626814  0.44865410  0.11408967  1
  S  S36  1  0.60606728  0.93394243  0.66430319  1
  S  S37  1  0.41645571  0.97213762  0.35955399  1
  S  S38  1  0.25146972  0.50030553  0.29007600  1
  S  S39  1  0.76895838  0.49760612  0.68804543  1
  S  S40  1  0.67417357  0.98009845  0.44303192  1
  S  S41  1  0.32625073  0.03954130  0.54629200  1
