# generated using pymatgen
data_Pr2Mn3(SbS3)4
_symmetry_space_group_name_H-M   'P 1'
_cell_length_a   20.02960800
_cell_length_b   3.90410600
_cell_length_c   14.95364829
_cell_angle_alpha   90.00000000
_cell_angle_beta   126.33350609
_cell_angle_gamma   90.00000000
_symmetry_Int_Tables_number   1
_chemical_formula_structural   Pr2Mn3(SbS3)4
_chemical_formula_sum   'Pr4 Mn6 Sb8 S24'
_cell_volume   942.00006694
_cell_formula_units_Z   2
loop_
 _symmetry_equiv_pos_site_id
 _symmetry_equiv_pos_as_xyz
  1  'x, y, z'
loop_
 _atom_site_type_symbol
 _atom_site_label
 _atom_site_symmetry_multiplicity
 _atom_site_fract_x
 _atom_site_fract_y
 _atom_site_fract_z
 _atom_site_occupancy
  Pr  Pr0  1  0.26729143  0.44330530  0.86520306  1
  Pr  Pr1  1  0.73273450  0.55488027  0.13618781  1
  Pr  Pr2  1  0.77403585  0.96002849  0.86566764  1
  Pr  Pr3  1  0.22799764  0.97441447  0.12804723  1
  Mn  Mn4  1  0.29056565  0.55334374  0.60212543  1
  Mn  Mn5  1  0.70733724  0.51364856  0.39405936  1
  Mn  Mn6  1  0.99790605  0.90553372  0.99752780  1
  Mn  Mn7  1  0.79244280  0.04546304  0.59833827  1
  Mn  Mn8  1  0.18839341  0.99773432  0.40309992  1
  Mn  Mn9  1  0.52476086  0.51294768  0.03309627  1
  Sb  Sb10  1  0.89685435  0.00243262  0.45579447  1
  Sb  Sb11  1  0.11740308  0.00168323  0.55728211  1
  Sb  Sb12  1  0.03211002  0.52037390  0.80818670  1
  Sb  Sb13  1  0.96354201  0.48093169  0.19075288  1
  Sb  Sb14  1  0.40128051  0.49749153  0.46144104  1
  Sb  Sb15  1  0.61103892  0.43668389  0.55415293  1
  Sb  Sb16  1  0.52725387  0.96718600  0.81122737  1
  Sb  Sb17  1  0.47016645  0.01578139  0.19301347  1
  S  S18  1  0.95254390  0.95993444  0.83299918  1
  S  S19  1  0.06666886  0.02580464  0.21225039  1
  S  S20  1  0.41725248  0.96209126  0.99724053  1
  S  S21  1  0.59102164  0.03385360  0.02875503  1
  S  S22  1  0.19071819  0.99579369  0.91137432  1
  S  S23  1  0.84285924  0.99049596  0.11938956  1
  S  S24  1  0.10044369  0.49096630  0.65517183  1
  S  S25  1  0.88628572  0.49393162  0.33740125  1
  S  S26  1  0.74244676  0.96699417  0.32173253  1
  S  S27  1  0.27272138  0.06022555  0.69470898  1
  S  S28  1  0.15968512  0.47477690  0.44401861  1
  S  S29  1  0.84263643  0.48350214  0.56520142  1
  S  S30  1  0.44832517  0.49805023  0.83580566  1
  S  S31  1  0.58958286  0.52885009  0.21976511  1
  S  S32  1  0.91469450  0.49568446  0.99446273  1
  S  S33  1  0.08139100  0.50002171  0.99998093  1
  S  S34  1  0.68557400  0.46597569  0.90003137  1
  S  S35  1  0.35625782  0.44903006  0.11427085  1
  S  S36  1  0.60595637  0.93378599  0.66454207  1
  S  S37  1  0.41637453  0.97106429  0.35907707  1
  S  S38  1  0.25124945  0.50080215  0.29000306  1
  S  S39  1  0.76902451  0.49697051  0.68797128  1
  S  S40  1  0.67447686  0.97937142  0.44293702  1
  S  S41  1  0.32624505  0.04058213  0.54637488  1
