# generated using pymatgen
data_Pr2Mn3(SbS3)4
_symmetry_space_group_name_H-M   'P 1'
_cell_length_a   20.02960800
_cell_length_b   3.90410600
_cell_length_c   14.95364829
_cell_angle_alpha   90.00000000
_cell_angle_beta   126.33350609
_cell_angle_gamma   90.00000000
_symmetry_Int_Tables_number   1
_chemical_formula_structural   Pr2Mn3(SbS3)4
_chemical_formula_sum   'Pr4 Mn6 Sb8 S24'
_cell_volume   942.00006694
_cell_formula_units_Z   2
loop_
 _symmetry_equiv_pos_site_id
 _symmetry_equiv_pos_as_xyz
  1  'x, y, z'
loop_
 _atom_site_type_symbol
 _atom_site_label
 _atom_site_symmetry_multiplicity
 _atom_site_fract_x
 _atom_site_fract_y
 _atom_site_fract_z
 _atom_site_occupancy
  Pr  Pr0  1  0.26728645  0.44298264  0.86505077  1
  Pr  Pr1  1  0.73265903  0.55446720  0.13606783  1
  Pr  Pr2  1  0.77393694  0.95906324  0.86563358  1
  Pr  Pr3  1  0.22796614  0.97411382  0.12800216  1
  Mn  Mn4  1  0.29039365  0.55427875  0.60234998  1
  Mn  Mn5  1  0.70721528  0.51375774  0.39391893  1
  Mn  Mn6  1  0.99828123  0.90572182  0.99786562  1
  Mn  Mn7  1  0.79241914  0.04598189  0.59847881  1
  Mn  Mn8  1  0.18882723  0.99801310  0.40352294  1
  Mn  Mn9  1  0.52485230  0.51331355  0.03304533  1
  Sb  Sb10  1  0.89685223  0.00248484  0.45573459  1
  Sb  Sb11  1  0.11727312  0.00104328  0.55722955  1
  Sb  Sb12  1  0.03222241  0.52106158  0.80844068  1
  Sb  Sb13  1  0.96346878  0.48137189  0.19078440  1
  Sb  Sb14  1  0.40111837  0.49728873  0.46136291  1
  Sb  Sb15  1  0.61132059  0.43708867  0.55411445  1
  Sb  Sb16  1  0.52706067  0.96719933  0.81116109  1
  Sb  Sb17  1  0.47014161  0.01599123  0.19314097  1
  S  S18  1  0.95250695  0.95953429  0.83253285  1
  S  S19  1  0.06643967  0.02492372  0.21240187  1
  S  S20  1  0.41741553  0.96387680  0.99702870  1
  S  S21  1  0.59110995  0.03464195  0.02889401  1
  S  S22  1  0.19059358  0.99510331  0.91112996  1
  S  S23  1  0.84305122  0.99147819  0.11958732  1
  S  S24  1  0.10058535  0.49160521  0.65554159  1
  S  S25  1  0.88624119  0.49465611  0.33724304  1
  S  S26  1  0.74239985  0.96558982  0.32220773  1
  S  S27  1  0.27279468  0.06206217  0.69478661  1
  S  S28  1  0.15954504  0.47452154  0.44373084  1
  S  S29  1  0.84222490  0.48318848  0.56496764  1
  S  S30  1  0.44843235  0.49832328  0.83617064  1
  S  S31  1  0.58960857  0.52938786  0.22017440  1
  S  S32  1  0.91440841  0.49599666  0.99409118  1
  S  S33  1  0.08136877  0.49932543  0.99994166  1
  S  S34  1  0.68537573  0.46580998  0.89959698  1
  S  S35  1  0.35611758  0.44979849  0.11417694  1
  S  S36  1  0.60580111  0.93342092  0.66477604  1
  S  S37  1  0.41617921  0.97011630  0.35844739  1
  S  S38  1  0.25098462  0.50178698  0.28995157  1
  S  S39  1  0.76903337  0.49575876  0.68784398  1
  S  S40  1  0.67479145  0.97855951  0.44286048  1
  S  S41  1  0.32637682  0.04146352  0.54653122  1
