# generated using pymatgen
data_Pr2Mn3(SbS3)4
_symmetry_space_group_name_H-M   'P 1'
_cell_length_a   20.02960800
_cell_length_b   3.90410600
_cell_length_c   14.95364829
_cell_angle_alpha   90.00000000
_cell_angle_beta   126.33350609
_cell_angle_gamma   90.00000000
_symmetry_Int_Tables_number   1
_chemical_formula_structural   Pr2Mn3(SbS3)4
_chemical_formula_sum   'Pr4 Mn6 Sb8 S24'
_cell_volume   942.00006694
_cell_formula_units_Z   2
loop_
 _symmetry_equiv_pos_site_id
 _symmetry_equiv_pos_as_xyz
  1  'x, y, z'
loop_
 _atom_site_type_symbol
 _atom_site_label
 _atom_site_symmetry_multiplicity
 _atom_site_fract_x
 _atom_site_fract_y
 _atom_site_fract_z
 _atom_site_occupancy
  Pr  Pr0  1  0.26731416  0.44289107  0.86488235  1
  Pr  Pr1  1  0.73249288  0.55422942  0.13588622  1
  Pr  Pr2  1  0.77380402  0.95832118  0.86560367  1
  Pr  Pr3  1  0.22792924  0.97364714  0.12792657  1
  Mn  Mn4  1  0.29027202  0.55561655  0.60270507  1
  Mn  Mn5  1  0.70712891  0.51380627  0.39382379  1
  Mn  Mn6  1  0.99851783  0.90584630  0.99801264  1
  Mn  Mn7  1  0.79230889  0.04649568  0.59847970  1
  Mn  Mn8  1  0.18915063  0.99831130  0.40394454  1
  Mn  Mn9  1  0.52495413  0.51335223  0.03308080  1
  Sb  Sb10  1  0.89685043  0.00277491  0.45565772  1
  Sb  Sb11  1  0.11720720  0.00056872  0.55728962  1
  Sb  Sb12  1  0.03229919  0.52152169  0.80855040  1
  Sb  Sb13  1  0.96339526  0.48177353  0.19081323  1
  Sb  Sb14  1  0.40091918  0.49701171  0.46123326  1
  Sb  Sb15  1  0.61161372  0.43768853  0.55409992  1
  Sb  Sb16  1  0.52691918  0.96745407  0.81116889  1
  Sb  Sb17  1  0.47007053  0.01627158  0.19307041  1
  S  S18  1  0.95250825  0.95844131  0.83193809  1
  S  S19  1  0.06630111  0.02418270  0.21277049  1
  S  S20  1  0.41760444  0.96506204  0.99677272  1
  S  S21  1  0.59122246  0.03544152  0.02899365  1
  S  S22  1  0.19052436  0.99423509  0.91097388  1
  S  S23  1  0.84312389  0.99268345  0.11969693  1
  S  S24  1  0.10064178  0.49253974  0.65572374  1
  S  S25  1  0.88628979  0.49638577  0.33699668  1
  S  S26  1  0.74237711  0.96407584  0.32272838  1
  S  S27  1  0.27279915  0.06418653  0.69475411  1
  S  S28  1  0.15939237  0.47425420  0.44359317  1
  S  S29  1  0.84184615  0.48256672  0.56486225  1
  S  S30  1  0.44879032  0.49898928  0.83658748  1
  S  S31  1  0.58965682  0.53028980  0.22030313  1
  S  S32  1  0.91391777  0.49662040  0.99354702  1
  S  S33  1  0.08118720  0.49864026  0.99985826  1
  S  S34  1  0.68511615  0.46575997  0.89912845  1
  S  S35  1  0.35594857  0.45060014  0.11410285  1
  S  S36  1  0.60558456  0.93371506  0.66482643  1
  S  S37  1  0.41614466  0.96972720  0.35782191  1
  S  S38  1  0.25069195  0.50253462  0.28993221  1
  S  S39  1  0.76905386  0.49482159  0.68775603  1
  S  S40  1  0.67529186  0.97792587  0.44290914  1
  S  S41  1  0.32634140  0.04258979  0.54676582  1
