# generated using pymatgen
data_Pr2Mn3(SbS3)4
_symmetry_space_group_name_H-M   'P 1'
_cell_length_a   20.02960800
_cell_length_b   3.90410600
_cell_length_c   14.95364829
_cell_angle_alpha   90.00000000
_cell_angle_beta   126.33350609
_cell_angle_gamma   90.00000000
_symmetry_Int_Tables_number   1
_chemical_formula_structural   Pr2Mn3(SbS3)4
_chemical_formula_sum   'Pr4 Mn6 Sb8 S24'
_cell_volume   942.00006694
_cell_formula_units_Z   2
loop_
 _symmetry_equiv_pos_site_id
 _symmetry_equiv_pos_as_xyz
  1  'x, y, z'
loop_
 _atom_site_type_symbol
 _atom_site_label
 _atom_site_symmetry_multiplicity
 _atom_site_fract_x
 _atom_site_fract_y
 _atom_site_fract_z
 _atom_site_occupancy
  Pr  Pr0  1  0.26729726  0.44253697  0.86479172  1
  Pr  Pr1  1  0.73234106  0.55379265  0.13575224  1
  Pr  Pr2  1  0.77371201  0.95779045  0.86566779  1
  Pr  Pr3  1  0.22785950  0.97378432  0.12791091  1
  Mn  Mn4  1  0.29018005  0.55666987  0.60307143  1
  Mn  Mn5  1  0.70706279  0.51376306  0.39377583  1
  Mn  Mn6  1  0.99871228  0.90573364  0.99804077  1
  Mn  Mn7  1  0.79210390  0.04695207  0.59840152  1
  Mn  Mn8  1  0.18946498  0.99804066  0.40427463  1
  Mn  Mn9  1  0.52498499  0.51345685  0.03310934  1
  Sb  Sb10  1  0.89686723  0.00323591  0.45557963  1
  Sb  Sb11  1  0.11706257  0.99983620  0.55734984  1
  Sb  Sb12  1  0.03232788  0.52203981  0.80858536  1
  Sb  Sb13  1  0.96334990  0.48217097  0.19090498  1
  Sb  Sb14  1  0.40078745  0.49689265  0.46118810  1
  Sb  Sb15  1  0.61193335  0.43821710  0.55413137  1
  Sb  Sb16  1  0.52686091  0.96805862  0.81122698  1
  Sb  Sb17  1  0.47000369  0.01697437  0.19301949  1
  S  S18  1  0.95262293  0.95775626  0.83135908  1
  S  S19  1  0.06603132  0.02285721  0.21301422  1
  S  S20  1  0.41775613  0.96659708  0.99659446  1
  S  S21  1  0.59135998  0.03660761  0.02915684  1
  S  S22  1  0.19033368  0.99344867  0.91065075  1
  S  S23  1  0.84306609  0.99341875  0.11988070  1
  S  S24  1  0.10064872  0.49320727  0.65597253  1
  S  S25  1  0.88641890  0.49802106  0.33701989  1
  S  S26  1  0.74236311  0.96234332  0.32331174  1
  S  S27  1  0.27275587  0.06580588  0.69463936  1
  S  S28  1  0.15927392  0.47402905  0.44336839  1
  S  S29  1  0.84153433  0.48203096  0.56474335  1
  S  S30  1  0.44913984  0.49955754  0.83708884  1
  S  S31  1  0.58989965  0.53133214  0.22053979  1
  S  S32  1  0.91350629  0.49721910  0.99304537  1
  S  S33  1  0.08111836  0.49777602  0.99984200  1
  S  S34  1  0.68492020  0.46601316  0.89902739  1
  S  S35  1  0.35567927  0.45153156  0.11396049  1
  S  S36  1  0.60541683  0.93388610  0.66500381  1
  S  S37  1  0.41608636  0.96955082  0.35724240  1
  S  S38  1  0.25049768  0.50380330  0.28986832  1
  S  S39  1  0.76899357  0.49416265  0.68752028  1
  S  S40  1  0.67570215  0.97749259  0.44278598  1
  S  S41  1  0.32627764  0.04247801  0.54696778  1
