# generated using pymatgen
data_Pr2Mn3(SbS3)4
_symmetry_space_group_name_H-M   'P 1'
_cell_length_a   20.02960800
_cell_length_b   3.90410600
_cell_length_c   14.95364829
_cell_angle_alpha   90.00000000
_cell_angle_beta   126.33350609
_cell_angle_gamma   90.00000000
_symmetry_Int_Tables_number   1
_chemical_formula_structural   Pr2Mn3(SbS3)4
_chemical_formula_sum   'Pr4 Mn6 Sb8 S24'
_cell_volume   942.00006694
_cell_formula_units_Z   2
loop_
 _symmetry_equiv_pos_site_id
 _symmetry_equiv_pos_as_xyz
  1  'x, y, z'
loop_
 _atom_site_type_symbol
 _atom_site_label
 _atom_site_symmetry_multiplicity
 _atom_site_fract_x
 _atom_site_fract_y
 _atom_site_fract_z
 _atom_site_occupancy
  Pr  Pr0  1  0.26959148  0.50398892  0.86846952  1
  Pr  Pr1  1  0.73415369  0.51329804  0.13480693  1
  Pr  Pr2  1  0.76455072  0.03023596  0.86798850  1
  Pr  Pr3  1  0.23000809  0.98437233  0.13087322  1
  Mn  Mn4  1  0.30066672  0.46280656  0.60847041  1
  Mn  Mn5  1  0.68508144  0.46833449  0.36441974  1
  Mn  Mn6  1  0.00260875  0.99183702  0.00998035  1
  Mn  Mn7  1  0.79262947  0.02699024  0.61395306  1
  Mn  Mn8  1  0.19445024  0.00300169  0.36567314  1
  Mn  Mn9  1  0.48236005  0.47235591  0.98225067  1
  Sb  Sb10  1  0.88985416  0.98578456  0.44813465  1
  Sb  Sb11  1  0.11096571  0.98037229  0.54692010  1
  Sb  Sb12  1  0.03547389  0.52883264  0.82193705  1
  Sb  Sb13  1  0.96758048  0.49227445  0.19081915  1
  Sb  Sb14  1  0.39532352  0.49928552  0.45122000  1
  Sb  Sb15  1  0.61099847  0.48049529  0.54789583  1
  Sb  Sb16  1  0.53128287  0.97125150  0.80589082  1
  Sb  Sb17  1  0.46579794  0.02245606  0.18704242  1
  S  S18  1  0.94002272  0.02201958  0.80800279  1
  S  S19  1  0.06679424  0.00621882  0.20803089  1
  S  S20  1  0.41881037  0.97290441  0.98101425  1
  S  S21  1  0.58728267  0.02715091  0.01452228  1
  S  S22  1  0.16349309  0.03475351  0.90002024  1
  S  S23  1  0.82628040  0.00413639  0.10534540  1
  S  S24  1  0.08629552  0.49793099  0.63927543  1
  S  S25  1  0.91509895  0.48131341  0.35309785  1
  S  S26  1  0.73457291  0.01373825  0.29475041  1
  S  S27  1  0.25901200  0.01695435  0.70553214  1
  S  S28  1  0.16834078  0.51877406  0.43736301  1
  S  S29  1  0.80960128  0.51499988  0.53899157  1
  S  S30  1  0.43244409  0.47753113  0.80086789  1
  S  S31  1  0.55355558  0.50906572  0.18116497  1
  S  S32  1  0.92400714  0.50880828  0.99095718  1
  S  S33  1  0.09189928  0.49562821  0.02719430  1
  S  S34  1  0.66785221  0.55955114  0.89788466  1
  S  S35  1  0.32813536  0.46333989  0.09548977  1
  S  S36  1  0.58821457  0.99818980  0.64778269  1
  S  S37  1  0.39602014  0.98339724  0.33384934  1
  S  S38  1  0.24674147  0.47654271  0.31687808  1
  S  S39  1  0.76323367  0.51527306  0.69159669  1
  S  S40  1  0.66015707  0.98051056  0.43938155  1
  S  S41  1  0.32897249  0.97998809  0.55141832  1
