# generated using pymatgen
data_Pr2Mn3(SbS3)4
_symmetry_space_group_name_H-M   'P 1'
_cell_length_a   20.02960800
_cell_length_b   3.90410600
_cell_length_c   14.95364829
_cell_angle_alpha   90.00000000
_cell_angle_beta   126.33350609
_cell_angle_gamma   90.00000000
_symmetry_Int_Tables_number   1
_chemical_formula_structural   Pr2Mn3(SbS3)4
_chemical_formula_sum   'Pr4 Mn6 Sb8 S24'
_cell_volume   942.00006694
_cell_formula_units_Z   2
loop_
 _symmetry_equiv_pos_site_id
 _symmetry_equiv_pos_as_xyz
  1  'x, y, z'
loop_
 _atom_site_type_symbol
 _atom_site_label
 _atom_site_symmetry_multiplicity
 _atom_site_fract_x
 _atom_site_fract_y
 _atom_site_fract_z
 _atom_site_occupancy
  Pr  Pr0  1  0.26725614  0.44214342  0.86467730  1
  Pr  Pr1  1  0.73217667  0.55342839  0.13558065  1
  Pr  Pr2  1  0.77359079  0.95746472  0.86564305  1
  Pr  Pr3  1  0.22778754  0.97435557  0.12797647  1
  Mn  Mn4  1  0.29014886  0.55693362  0.60343103  1
  Mn  Mn5  1  0.70694872  0.51341228  0.39357672  1
  Mn  Mn6  1  0.99893766  0.90565181  0.99820180  1
  Mn  Mn7  1  0.79186044  0.04708991  0.59823676  1
  Mn  Mn8  1  0.18969892  0.99747129  0.40450710  1
  Mn  Mn9  1  0.52497901  0.51344916  0.03312416  1
  Sb  Sb10  1  0.89685524  0.00358384  0.45548996  1
  Sb  Sb11  1  0.11686675  0.99932772  0.55735693  1
  Sb  Sb12  1  0.03235073  0.52218547  0.80860843  1
  Sb  Sb13  1  0.96322722  0.48277828  0.19092425  1
  Sb  Sb14  1  0.40069231  0.49685528  0.46113074  1
  Sb  Sb15  1  0.61224444  0.43869092  0.55410981  1
  Sb  Sb16  1  0.52683154  0.96915352  0.81132838  1
  Sb  Sb17  1  0.46996209  0.01771709  0.19310319  1
  S  S18  1  0.95272940  0.95764191  0.83071462  1
  S  S19  1  0.06588595  0.02179633  0.21344671  1
  S  S20  1  0.41805329  0.96710903  0.99670035  1
  S  S21  1  0.59146697  0.03786684  0.02933892  1
  S  S22  1  0.19011445  0.99342251  0.91031316  1
  S  S23  1  0.84296458  0.99366952  0.12017880  1
  S  S24  1  0.10064442  0.49315160  0.65610655  1
  S  S25  1  0.88663569  0.49964399  0.33728488  1
  S  S26  1  0.74221348  0.96086167  0.32353291  1
  S  S27  1  0.27273360  0.06689948  0.69436129  1
  S  S28  1  0.15921082  0.47304316  0.44304975  1
  S  S29  1  0.84128536  0.48214760  0.56471408  1
  S  S30  1  0.44930332  0.50004985  0.83733612  1
  S  S31  1  0.59008974  0.53263587  0.22070742  1
  S  S32  1  0.91312345  0.49837842  0.99258058  1
  S  S33  1  0.08118826  0.49771272  0.00004045  1
  S  S34  1  0.68481012  0.46676448  0.89903800  1
  S  S35  1  0.35540294  0.45228994  0.11367273  1
  S  S36  1  0.60511497  0.93392735  0.66511624  1
  S  S37  1  0.41597087  0.97072408  0.35655441  1
  S  S38  1  0.25032466  0.50502766  0.28995608  1
  S  S39  1  0.76895768  0.49400015  0.68728140  1
  S  S40  1  0.67598377  0.97777716  0.44246426  1
  S  S41  1  0.32627640  0.04229651  0.54724804  1
