# generated using pymatgen
data_Pr2Mn3(SbS3)4
_symmetry_space_group_name_H-M   'P 1'
_cell_length_a   20.02960800
_cell_length_b   3.90410600
_cell_length_c   14.95364829
_cell_angle_alpha   90.00000000
_cell_angle_beta   126.33350609
_cell_angle_gamma   90.00000000
_symmetry_Int_Tables_number   1
_chemical_formula_structural   Pr2Mn3(SbS3)4
_chemical_formula_sum   'Pr4 Mn6 Sb8 S24'
_cell_volume   942.00006694
_cell_formula_units_Z   2
loop_
 _symmetry_equiv_pos_site_id
 _symmetry_equiv_pos_as_xyz
  1  'x, y, z'
loop_
 _atom_site_type_symbol
 _atom_site_label
 _atom_site_symmetry_multiplicity
 _atom_site_fract_x
 _atom_site_fract_y
 _atom_site_fract_z
 _atom_site_occupancy
  Pr  Pr0  1  0.26721907  0.44197571  0.86461853  1
  Pr  Pr1  1  0.73203183  0.55309333  0.13546538  1
  Pr  Pr2  1  0.77349490  0.95723310  0.86563993  1
  Pr  Pr3  1  0.22763725  0.97529844  0.12796389  1
  Mn  Mn4  1  0.29020324  0.55726336  0.60385382  1
  Mn  Mn5  1  0.70677697  0.51295688  0.39329103  1
  Mn  Mn6  1  0.99910916  0.90563056  0.99829904  1
  Mn  Mn7  1  0.79155255  0.04752919  0.59808324  1
  Mn  Mn8  1  0.18988240  0.99631836  0.40481660  1
  Mn  Mn9  1  0.52494872  0.51351462  0.03326137  1
  Sb  Sb10  1  0.89681921  0.00379731  0.45534973  1
  Sb  Sb11  1  0.11668562  0.99899009  0.55745734  1
  Sb  Sb12  1  0.03235359  0.52209188  0.80858906  1
  Sb  Sb13  1  0.96312865  0.48348004  0.19099633  1
  Sb  Sb14  1  0.40058303  0.49700024  0.46102557  1
  Sb  Sb15  1  0.61251111  0.43934452  0.55400454  1
  Sb  Sb16  1  0.52677270  0.96994832  0.81140148  1
  Sb  Sb17  1  0.46989351  0.01855912  0.19314510  1
  S  S18  1  0.95278165  0.95748037  0.83009860  1
  S  S19  1  0.06570329  0.02039164  0.21370336  1
  S  S20  1  0.41851724  0.96718727  0.99686515  1
  S  S21  1  0.59160405  0.03864737  0.02956071  1
  S  S22  1  0.18997744  0.99354641  0.91007429  1
  S  S23  1  0.84282234  0.99365120  0.12047616  1
  S  S24  1  0.10061798  0.49196463  0.65595271  1
  S  S25  1  0.88685734  0.50140927  0.33764672  1
  S  S26  1  0.74200335  0.95929282  0.32369406  1
  S  S27  1  0.27274689  0.06789687  0.69415815  1
  S  S28  1  0.15917144  0.47300780  0.44283197  1
  S  S29  1  0.84105380  0.48270445  0.56450139  1
  S  S30  1  0.44929510  0.50047065  0.83757106  1
  S  S31  1  0.59025609  0.53382335  0.22079742  1
  S  S32  1  0.91274998  0.49957161  0.99221869  1
  S  S33  1  0.08127072  0.49716461  0.00030919  1
  S  S34  1  0.68468113  0.46694887  0.89907719  1
  S  S35  1  0.35516145  0.45334128  0.11335953  1
  S  S36  1  0.60495772  0.93442717  0.66533214  1
  S  S37  1  0.41593979  0.97157207  0.35594825  1
  S  S38  1  0.25029684  0.50663385  0.29005738  1
  S  S39  1  0.76875885  0.49400083  0.68684074  1
  S  S40  1  0.67615460  0.97811084  0.44215868  1
  S  S41  1  0.32633845  0.04197849  0.54755702  1
