# generated using pymatgen
data_Pr2Mn3(SbS3)4
_symmetry_space_group_name_H-M   'P 1'
_cell_length_a   20.02960800
_cell_length_b   3.90410600
_cell_length_c   14.95364829
_cell_angle_alpha   90.00000000
_cell_angle_beta   126.33350609
_cell_angle_gamma   90.00000000
_symmetry_Int_Tables_number   1
_chemical_formula_structural   Pr2Mn3(SbS3)4
_chemical_formula_sum   'Pr4 Mn6 Sb8 S24'
_cell_volume   942.00006694
_cell_formula_units_Z   2
loop_
 _symmetry_equiv_pos_site_id
 _symmetry_equiv_pos_as_xyz
  1  'x, y, z'
loop_
 _atom_site_type_symbol
 _atom_site_label
 _atom_site_symmetry_multiplicity
 _atom_site_fract_x
 _atom_site_fract_y
 _atom_site_fract_z
 _atom_site_occupancy
  Pr  Pr0  1  0.26722251  0.44186268  0.86462197  1
  Pr  Pr1  1  0.73192358  0.55287948  0.13534987  1
  Pr  Pr2  1  0.77340976  0.95729592  0.86566614  1
  Pr  Pr3  1  0.22746070  0.97613978  0.12789862  1
  Mn  Mn4  1  0.29026192  0.55770663  0.60410710  1
  Mn  Mn5  1  0.70661186  0.51264709  0.39297023  1
  Mn  Mn6  1  0.99933395  0.90607527  0.99837266  1
  Mn  Mn7  1  0.79123353  0.04789283  0.59784393  1
  Mn  Mn8  1  0.18992033  0.99489191  0.40508599  1
  Mn  Mn9  1  0.52492504  0.51376729  0.03336063  1
  Sb  Sb10  1  0.89672997  0.00392168  0.45514685  1
  Sb  Sb11  1  0.11653727  0.99871960  0.55756617  1
  Sb  Sb12  1  0.03236958  0.52165645  0.80852498  1
  Sb  Sb13  1  0.96302358  0.48382060  0.19110954  1
  Sb  Sb14  1  0.40044459  0.49708498  0.46083699  1
  Sb  Sb15  1  0.61280487  0.44006602  0.55399060  1
  Sb  Sb16  1  0.52676899  0.97089809  0.81150066  1
  Sb  Sb17  1  0.46985173  0.01920924  0.19326308  1
  S  S18  1  0.95288412  0.95737579  0.82963945  1
  S  S19  1  0.06543913  0.01909785  0.21381116  1
  S  S20  1  0.41890176  0.96693806  0.99701695  1
  S  S21  1  0.59154399  0.03963955  0.02935130  1
  S  S22  1  0.18974970  0.99316448  0.90988010  1
  S  S23  1  0.84266959  0.99394590  0.12074665  1
  S  S24  1  0.10056978  0.49091136  0.65581565  1
  S  S25  1  0.88704253  0.50293788  0.33808215  1
  S  S26  1  0.74192985  0.95821381  0.32384524  1
  S  S27  1  0.27270688  0.06833634  0.69374039  1
  S  S28  1  0.15920980  0.47352483  0.44279794  1
  S  S29  1  0.84097581  0.48340237  0.56434995  1
  S  S30  1  0.44924456  0.50124558  0.83781395  1
  S  S31  1  0.59045331  0.53486074  0.22085224  1
  S  S32  1  0.91245642  0.50079039  0.99191087  1
  S  S33  1  0.08146860  0.49693247  0.00066574  1
  S  S34  1  0.68453663  0.46655555  0.89914546  1
  S  S35  1  0.35496393  0.45435663  0.11320370  1
  S  S36  1  0.60484413  0.93467734  0.66554435  1
  S  S37  1  0.41593942  0.97246274  0.35551297  1
  S  S38  1  0.25020097  0.50750551  0.28991787  1
  S  S39  1  0.76858461  0.49388608  0.68630713  1
  S  S40  1  0.67646605  0.97816339  0.44205072  1
  S  S41  1  0.32650136  0.04141051  0.54788447  1
