# generated using pymatgen
data_Pr2Mn3(SbS3)4
_symmetry_space_group_name_H-M   'P 1'
_cell_length_a   20.02960800
_cell_length_b   3.90410600
_cell_length_c   14.95364829
_cell_angle_alpha   90.00000000
_cell_angle_beta   126.33350609
_cell_angle_gamma   90.00000000
_symmetry_Int_Tables_number   1
_chemical_formula_structural   Pr2Mn3(SbS3)4
_chemical_formula_sum   'Pr4 Mn6 Sb8 S24'
_cell_volume   942.00006694
_cell_formula_units_Z   2
loop_
 _symmetry_equiv_pos_site_id
 _symmetry_equiv_pos_as_xyz
  1  'x, y, z'
loop_
 _atom_site_type_symbol
 _atom_site_label
 _atom_site_symmetry_multiplicity
 _atom_site_fract_x
 _atom_site_fract_y
 _atom_site_fract_z
 _atom_site_occupancy
  Pr  Pr0  1  0.26728224  0.44185079  0.86470115  1
  Pr  Pr1  1  0.73182415  0.55268959  0.13520221  1
  Pr  Pr2  1  0.77326753  0.95709565  0.86574813  1
  Pr  Pr3  1  0.22724659  0.97685341  0.12784087  1
  Mn  Mn4  1  0.29042350  0.55852897  0.60455056  1
  Mn  Mn5  1  0.70645398  0.51224221  0.39284135  1
  Mn  Mn6  1  0.99959920  0.90608021  0.99851104  1
  Mn  Mn7  1  0.79095665  0.04850802  0.59758239  1
  Mn  Mn8  1  0.18994246  0.99317608  0.40533516  1
  Mn  Mn9  1  0.52477794  0.51375111  0.03334212  1
  Sb  Sb10  1  0.89667407  0.00401411  0.45498501  1
  Sb  Sb11  1  0.11635336  0.99788226  0.55766752  1
  Sb  Sb12  1  0.03237721  0.52094023  0.80854985  1
  Sb  Sb13  1  0.96294282  0.48399179  0.19133392  1
  Sb  Sb14  1  0.40022915  0.49725490  0.46058886  1
  Sb  Sb15  1  0.61313319  0.44070194  0.55415503  1
  Sb  Sb16  1  0.52680495  0.97180312  0.81169661  1
  Sb  Sb17  1  0.46986690  0.01943189  0.19335754  1
  S  S18  1  0.95298345  0.95725018  0.82931726  1
  S  S19  1  0.06520475  0.01778706  0.21396666  1
  S  S20  1  0.41923274  0.96622619  0.99719209  1
  S  S21  1  0.59146353  0.04024152  0.02907367  1
  S  S22  1  0.18940282  0.99272230  0.90949837  1
  S  S23  1  0.84262460  0.99398162  0.12110738  1
  S  S24  1  0.10046427  0.49012848  0.65572507  1
  S  S25  1  0.88704091  0.50375191  0.33843653  1
  S  S26  1  0.74183629  0.95680119  0.32384963  1
  S  S27  1  0.27268307  0.06855758  0.69355409  1
  S  S28  1  0.15926769  0.47391636  0.44286046  1
  S  S29  1  0.84099335  0.48413573  0.56424565  1
  S  S30  1  0.44922508  0.50172407  0.83809862  1
  S  S31  1  0.59074666  0.53530505  0.22101073  1
  S  S32  1  0.91234767  0.50141955  0.99186557  1
  S  S33  1  0.08176235  0.49562547  0.00098607  1
  S  S34  1  0.68436085  0.46555766  0.89921428  1
  S  S35  1  0.35482445  0.45573600  0.11311978  1
  S  S36  1  0.60472501  0.93467889  0.66560148  1
  S  S37  1  0.41578731  0.97337365  0.35511222  1
  S  S38  1  0.24991557  0.50806664  0.28959007  1
  S  S39  1  0.76845367  0.49393984  0.68581008  1
  S  S40  1  0.67678419  0.97895302  0.44192681  1
  S  S41  1  0.32652507  0.04087985  0.54812633  1
