# generated using pymatgen
data_Pr2Mn3(SbS3)4
_symmetry_space_group_name_H-M   'P 1'
_cell_length_a   20.02960800
_cell_length_b   3.90410600
_cell_length_c   14.95364829
_cell_angle_alpha   90.00000000
_cell_angle_beta   126.33350609
_cell_angle_gamma   90.00000000
_symmetry_Int_Tables_number   1
_chemical_formula_structural   Pr2Mn3(SbS3)4
_chemical_formula_sum   'Pr4 Mn6 Sb8 S24'
_cell_volume   942.00006694
_cell_formula_units_Z   2
loop_
 _symmetry_equiv_pos_site_id
 _symmetry_equiv_pos_as_xyz
  1  'x, y, z'
loop_
 _atom_site_type_symbol
 _atom_site_label
 _atom_site_symmetry_multiplicity
 _atom_site_fract_x
 _atom_site_fract_y
 _atom_site_fract_z
 _atom_site_occupancy
  Pr  Pr0  1  0.26736471  0.44190254  0.86478865  1
  Pr  Pr1  1  0.73171382  0.55266839  0.13505459  1
  Pr  Pr2  1  0.77318216  0.95684843  0.86585012  1
  Pr  Pr3  1  0.22704915  0.97737059  0.12785146  1
  Mn  Mn4  1  0.29052483  0.55905363  0.60490640  1
  Mn  Mn5  1  0.70627937  0.51165048  0.39269127  1
  Mn  Mn6  1  0.99981174  0.90616543  0.99861481  1
  Mn  Mn7  1  0.79084219  0.04859435  0.59749448  1
  Mn  Mn8  1  0.18991550  0.99224087  0.40560609  1
  Mn  Mn9  1  0.52467715  0.51417562  0.03337061  1
  Sb  Sb10  1  0.89657666  0.00399425  0.45487105  1
  Sb  Sb11  1  0.11620752  0.99690832  0.55783293  1
  Sb  Sb12  1  0.03243960  0.52008961  0.80857482  1
  Sb  Sb13  1  0.96292090  0.48427505  0.19159975  1
  Sb  Sb14  1  0.40008184  0.49743035  0.46041800  1
  Sb  Sb15  1  0.61348521  0.44106639  0.55434633  1
  Sb  Sb16  1  0.52686978  0.97252828  0.81192593  1
  Sb  Sb17  1  0.46990815  0.01963241  0.19342850  1
  S  S18  1  0.95309057  0.95736594  0.82898513  1
  S  S19  1  0.06512245  0.01642712  0.21410839  1
  S  S20  1  0.41937867  0.96563353  0.99727241  1
  S  S21  1  0.59132208  0.04093118  0.02880180  1
  S  S22  1  0.18902135  0.99262841  0.90897709  1
  S  S23  1  0.84246943  0.99379197  0.12133641  1
  S  S24  1  0.10040564  0.48915899  0.65576180  1
  S  S25  1  0.88693201  0.50474774  0.33867744  1
  S  S26  1  0.74192345  0.95562030  0.32401928  1
  S  S27  1  0.27261146  0.06927878  0.69329398  1
  S  S28  1  0.15919181  0.47460486  0.44277916  1
  S  S29  1  0.84098364  0.48494104  0.56402582  1
  S  S30  1  0.44913892  0.50218793  0.83819198  1
  S  S31  1  0.59096880  0.53584286  0.22115611  1
  S  S32  1  0.91246710  0.50152777  0.99209007  1
  S  S33  1  0.08195917  0.49475846  0.00119540  1
  S  S34  1  0.68414240  0.46434656  0.89913494  1
  S  S35  1  0.35465702  0.45605441  0.11298148  1
  S  S36  1  0.60451538  0.93442527  0.66554201  1
  S  S37  1  0.41561838  0.97386631  0.35477801  1
  S  S38  1  0.24955792  0.50785995  0.28925203  1
  S  S39  1  0.76825028  0.49398882  0.68520471  1
  S  S40  1  0.67709316  0.97930672  0.44189140  1
  S  S41  1  0.32651481  0.04021678  0.54828847  1
