# generated using pymatgen
data_Pr2Mn3(SbS3)4
_symmetry_space_group_name_H-M   'P 1'
_cell_length_a   20.02960800
_cell_length_b   3.90410600
_cell_length_c   14.95364829
_cell_angle_alpha   90.00000000
_cell_angle_beta   126.33350609
_cell_angle_gamma   90.00000000
_symmetry_Int_Tables_number   1
_chemical_formula_structural   Pr2Mn3(SbS3)4
_chemical_formula_sum   'Pr4 Mn6 Sb8 S24'
_cell_volume   942.00006694
_cell_formula_units_Z   2
loop_
 _symmetry_equiv_pos_site_id
 _symmetry_equiv_pos_as_xyz
  1  'x, y, z'
loop_
 _atom_site_type_symbol
 _atom_site_label
 _atom_site_symmetry_multiplicity
 _atom_site_fract_x
 _atom_site_fract_y
 _atom_site_fract_z
 _atom_site_occupancy
  Pr  Pr0  1  0.26748145  0.44192742  0.86495607  1
  Pr  Pr1  1  0.73159667  0.55253742  0.13491487  1
  Pr  Pr2  1  0.77312812  0.95697644  0.86590150  1
  Pr  Pr3  1  0.22684232  0.97797273  0.12793769  1
  Mn  Mn4  1  0.29058972  0.55950013  0.60525119  1
  Mn  Mn5  1  0.70617703  0.51139745  0.39257987  1
  Mn  Mn6  1  0.00000473  0.90641094  0.99876121  1
  Mn  Mn7  1  0.79077205  0.04828962  0.59750797  1
  Mn  Mn8  1  0.18985788  0.99164218  0.40579990  1
  Mn  Mn9  1  0.52459339  0.51514351  0.03327411  1
  Sb  Sb10  1  0.89652975  0.00386885  0.45485217  1
  Sb  Sb11  1  0.11606695  0.99621091  0.55794412  1
  Sb  Sb12  1  0.03253440  0.51916322  0.80861056  1
  Sb  Sb13  1  0.96287797  0.48440008  0.19175186  1
  Sb  Sb14  1  0.39993484  0.49761918  0.46021682  1
  Sb  Sb15  1  0.61372804  0.44132166  0.55447520  1
  Sb  Sb16  1  0.52694831  0.97322935  0.81210374  1
  Sb  Sb17  1  0.46998546  0.01999185  0.19350468  1
  S  S18  1  0.95308226  0.95742733  0.82868849  1
  S  S19  1  0.06516859  0.01473143  0.21465048  1
  S  S20  1  0.41976240  0.96491819  0.99758816  1
  S  S21  1  0.59116623  0.04222484  0.02848079  1
  S  S22  1  0.18858346  0.99230432  0.90852419  1
  S  S23  1  0.84233132  0.99414348  0.12163085  1
  S  S24  1  0.10035006  0.48833967  0.65566718  1
  S  S25  1  0.88678860  0.50611448  0.33894003  1
  S  S26  1  0.74204235  0.95438455  0.32401763  1
  S  S27  1  0.27245384  0.06938361  0.69294121  1
  S  S28  1  0.15910537  0.47479536  0.44269610  1
  S  S29  1  0.84089920  0.48579479  0.56379506  1
  S  S30  1  0.44916310  0.50276096  0.83830039  1
  S  S31  1  0.59124746  0.53668508  0.22139480  1
  S  S32  1  0.91254924  0.50200762  0.99220930  1
  S  S33  1  0.08237744  0.49432420  0.00173277  1
  S  S34  1  0.68397402  0.46417973  0.89910716  1
  S  S35  1  0.35450498  0.45661647  0.11300331  1
  S  S36  1  0.60421035  0.93408393  0.66535153  1
  S  S37  1  0.41566640  0.97432580  0.35469972  1
  S  S38  1  0.24938369  0.50656762  0.28905189  1
  S  S39  1  0.76812971  0.49387859  0.68462680  1
  S  S40  1  0.67725769  0.97922898  0.44180925  1
  S  S41  1  0.32656216  0.03899566  0.54851865  1
