# generated using pymatgen
data_Pr2Mn3(SbS3)4
_symmetry_space_group_name_H-M   'P 1'
_cell_length_a   20.02960800
_cell_length_b   3.90410600
_cell_length_c   14.95364829
_cell_angle_alpha   90.00000000
_cell_angle_beta   126.33350609
_cell_angle_gamma   90.00000000
_symmetry_Int_Tables_number   1
_chemical_formula_structural   Pr2Mn3(SbS3)4
_chemical_formula_sum   'Pr4 Mn6 Sb8 S24'
_cell_volume   942.00006694
_cell_formula_units_Z   2
loop_
 _symmetry_equiv_pos_site_id
 _symmetry_equiv_pos_as_xyz
  1  'x, y, z'
loop_
 _atom_site_type_symbol
 _atom_site_label
 _atom_site_symmetry_multiplicity
 _atom_site_fract_x
 _atom_site_fract_y
 _atom_site_fract_z
 _atom_site_occupancy
  Pr  Pr0  1  0.26764842  0.44175355  0.86516999  1
  Pr  Pr1  1  0.73158957  0.55228676  0.13493488  1
  Pr  Pr2  1  0.77309508  0.95753939  0.86600646  1
  Pr  Pr3  1  0.22665470  0.97868175  0.12793919  1
  Mn  Mn4  1  0.29062316  0.55982754  0.60549943  1
  Mn  Mn5  1  0.70614852  0.51113610  0.39261309  1
  Mn  Mn6  1  0.00019750  0.90657715  0.99903905  1
  Mn  Mn7  1  0.79069332  0.04759016  0.59752228  1
  Mn  Mn8  1  0.18986168  0.99101988  0.40609375  1
  Mn  Mn9  1  0.52441753  0.51564443  0.03307979  1
  Sb  Sb10  1  0.89652214  0.00400865  0.45481957  1
  Sb  Sb11  1  0.11587490  0.99593212  0.55793592  1
  Sb  Sb12  1  0.03263542  0.51828221  0.80867198  1
  Sb  Sb13  1  0.96283621  0.48425755  0.19182736  1
  Sb  Sb14  1  0.39985290  0.49770410  0.46014811  1
  Sb  Sb15  1  0.61401031  0.44153568  0.55474994  1
  Sb  Sb16  1  0.52707933  0.97414009  0.81235684  1
  Sb  Sb17  1  0.46995354  0.02044328  0.19354173  1
  S  S18  1  0.95308174  0.95718119  0.82860622  1
  S  S19  1  0.06535521  0.01346213  0.21515818  1
  S  S20  1  0.42014782  0.96506299  0.99810112  1
  S  S21  1  0.59129336  0.04323123  0.02840281  1
  S  S22  1  0.18826707  0.99210146  0.90810282  1
  S  S23  1  0.84229602  0.99484159  0.12215280  1
  S  S24  1  0.10018771  0.48779203  0.65552214  1
  S  S25  1  0.88672933  0.50760195  0.33911491  1
  S  S26  1  0.74215634  0.95327400  0.32402089  1
  S  S27  1  0.27241762  0.06924963  0.69279231  1
  S  S28  1  0.15898203  0.47420293  0.44260670  1
  S  S29  1  0.84079527  0.48635321  0.56360701  1
  S  S30  1  0.44902524  0.50247286  0.83801997  1
  S  S31  1  0.59147906  0.53768449  0.22173814  1
  S  S32  1  0.91257055  0.50218672  0.99217099  1
  S  S33  1  0.08272742  0.49469225  0.00210546  1
  S  S34  1  0.68385295  0.46367497  0.89921132  1
  S  S35  1  0.35448717  0.45733624  0.11315384  1
  S  S36  1  0.60384627  0.93374618  0.66515785  1
  S  S37  1  0.41585363  0.97486347  0.35466542  1
  S  S38  1  0.24912176  0.50494412  0.28879167  1
  S  S39  1  0.76813836  0.49307741  0.68413962  1
  S  S40  1  0.67735882  0.97903378  0.44161819  1
  S  S41  1  0.32655146  0.03731182  0.54862731  1
