# generated using pymatgen
data_Pr2Mn3(SbS3)4
_symmetry_space_group_name_H-M   'P 1'
_cell_length_a   20.02960800
_cell_length_b   3.90410600
_cell_length_c   14.95364829
_cell_angle_alpha   90.00000000
_cell_angle_beta   126.33350609
_cell_angle_gamma   90.00000000
_symmetry_Int_Tables_number   1
_chemical_formula_structural   Pr2Mn3(SbS3)4
_chemical_formula_sum   'Pr4 Mn6 Sb8 S24'
_cell_volume   942.00006694
_cell_formula_units_Z   2
loop_
 _symmetry_equiv_pos_site_id
 _symmetry_equiv_pos_as_xyz
  1  'x, y, z'
loop_
 _atom_site_type_symbol
 _atom_site_label
 _atom_site_symmetry_multiplicity
 _atom_site_fract_x
 _atom_site_fract_y
 _atom_site_fract_z
 _atom_site_occupancy
  Pr  Pr0  1  0.26784312  0.44178732  0.86542046  1
  Pr  Pr1  1  0.73156790  0.55227519  0.13500728  1
  Pr  Pr2  1  0.77303944  0.95815799  0.86602869  1
  Pr  Pr3  1  0.22647830  0.97938581  0.12794339  1
  Mn  Mn4  1  0.29055889  0.56016466  0.60571581  1
  Mn  Mn5  1  0.70621927  0.51096396  0.39274568  1
  Mn  Mn6  1  0.00036441  0.90686350  0.99930544  1
  Mn  Mn7  1  0.79071210  0.04702504  0.59758056  1
  Mn  Mn8  1  0.18977376  0.99042463  0.40623896  1
  Mn  Mn9  1  0.52416306  0.51643841  0.03266921  1
  Sb  Sb10  1  0.89650920  0.00410530  0.45478480  1
  Sb  Sb11  1  0.11572094  0.99554563  0.55788558  1
  Sb  Sb12  1  0.03269784  0.51768493  0.80864024  1
  Sb  Sb13  1  0.96282918  0.48406248  0.19194604  1
  Sb  Sb14  1  0.39979302  0.49784267  0.46010233  1
  Sb  Sb15  1  0.61435402  0.44169829  0.55493650  1
  Sb  Sb16  1  0.52717801  0.97472768  0.81263413  1
  Sb  Sb17  1  0.46990106  0.02076778  0.19356577  1
  S  S18  1  0.95329361  0.95707419  0.82867226  1
  S  S19  1  0.06565521  0.01208709  0.21561132  1
  S  S20  1  0.42042890  0.96543887  0.99845061  1
  S  S21  1  0.59152874  0.04394627  0.02841671  1
  S  S22  1  0.18790423  0.99187448  0.90759340  1
  S  S23  1  0.84218207  0.99537269  0.12246652  1
  S  S24  1  0.10019136  0.48752437  0.65570391  1
  S  S25  1  0.88691716  0.50838704  0.33945393  1
  S  S26  1  0.74230709  0.95184012  0.32421788  1
  S  S27  1  0.27243911  0.06952994  0.69261155  1
  S  S28  1  0.15883101  0.47392910  0.44235676  1
  S  S29  1  0.84076463  0.48715203  0.56320472  1
  S  S30  1  0.44909814  0.50336846  0.83798424  1
  S  S31  1  0.59169534  0.53900954  0.22205809  1
  S  S32  1  0.91257702  0.50213516  0.99220093  1
  S  S33  1  0.08286709  0.49430562  0.00231371  1
  S  S34  1  0.68371366  0.46300678  0.89939854  1
  S  S35  1  0.35432817  0.45817110  0.11327735  1
  S  S36  1  0.60367457  0.93402574  0.66504189  1
  S  S37  1  0.41587727  0.97550422  0.35467066  1
  S  S38  1  0.24891033  0.50349105  0.28857682  1
  S  S39  1  0.76819687  0.49273960  0.68367774  1
  S  S40  1  0.67742368  0.97845660  0.44151632  1
  S  S41  1  0.32634327  0.03639906  0.54843895  1
