# generated using pymatgen
data_Pr2Mn3(SbS3)4
_symmetry_space_group_name_H-M   'P 1'
_cell_length_a   20.02960800
_cell_length_b   3.90410600
_cell_length_c   14.95364829
_cell_angle_alpha   90.00000000
_cell_angle_beta   126.33350609
_cell_angle_gamma   90.00000000
_symmetry_Int_Tables_number   1
_chemical_formula_structural   Pr2Mn3(SbS3)4
_chemical_formula_sum   'Pr4 Mn6 Sb8 S24'
_cell_volume   942.00006694
_cell_formula_units_Z   2
loop_
 _symmetry_equiv_pos_site_id
 _symmetry_equiv_pos_as_xyz
  1  'x, y, z'
loop_
 _atom_site_type_symbol
 _atom_site_label
 _atom_site_symmetry_multiplicity
 _atom_site_fract_x
 _atom_site_fract_y
 _atom_site_fract_z
 _atom_site_occupancy
  Pr  Pr0  1  0.26800116  0.44211164  0.86563350  1
  Pr  Pr1  1  0.73155852  0.55241499  0.13507268  1
  Pr  Pr2  1  0.77300688  0.95855796  0.86611801  1
  Pr  Pr3  1  0.22639732  0.98018185  0.12804834  1
  Mn  Mn4  1  0.29059266  0.56138651  0.60589629  1
  Mn  Mn5  1  0.70636856  0.51072376  0.39276771  1
  Mn  Mn6  1  0.00056232  0.90657386  0.99956238  1
  Mn  Mn7  1  0.79081214  0.04658499  0.59783938  1
  Mn  Mn8  1  0.18978728  0.98928410  0.40648179  1
  Mn  Mn9  1  0.52402197  0.51741492  0.03236356  1
  Sb  Sb10  1  0.89653291  0.00449664  0.45475406  1
  Sb  Sb11  1  0.11552504  0.99499076  0.55777734  1
  Sb  Sb12  1  0.03282484  0.51684441  0.80867160  1
  Sb  Sb13  1  0.96289014  0.48414342  0.19211198  1
  Sb  Sb14  1  0.39981467  0.49816686  0.46008278  1
  Sb  Sb15  1  0.61462926  0.44175813  0.55508309  1
  Sb  Sb16  1  0.52722568  0.97488839  0.81291503  1
  Sb  Sb17  1  0.46980606  0.02101437  0.19360212  1
  S  S18  1  0.95354791  0.95718035  0.82893395  1
  S  S19  1  0.06605646  0.01097790  0.21611462  1
  S  S20  1  0.42068309  0.96583873  0.99869372  1
  S  S21  1  0.59168865  0.04463198  0.02850679  1
  S  S22  1  0.18767352  0.99132925  0.90739691  1
  S  S23  1  0.84196947  0.99611537  0.12268385  1
  S  S24  1  0.10017434  0.48757723  0.65600855  1
  S  S25  1  0.88715123  0.50889414  0.33976501  1
  S  S26  1  0.74262380  0.95074267  0.32457888  1
  S  S27  1  0.27256180  0.06963238  0.69252544  1
  S  S28  1  0.15865269  0.47452044  0.44208618  1
  S  S29  1  0.84076269  0.48813057  0.56295869  1
  S  S30  1  0.44933453  0.50332158  0.83808931  1
  S  S31  1  0.59196385  0.54001661  0.22247578  1
  S  S32  1  0.91251390  0.50206401  0.99208334  1
  S  S33  1  0.08285807  0.49411842  0.00245107  1
  S  S34  1  0.68359686  0.46202014  0.89938674  1
  S  S35  1  0.35416619  0.45935593  0.11324031  1
  S  S36  1  0.60344762  0.93492160  0.66482976  1
  S  S37  1  0.41598236  0.97562491  0.35482741  1
  S  S38  1  0.24861901  0.50187715  0.28828560  1
  S  S39  1  0.76841766  0.49172176  0.68350578  1
  S  S40  1  0.67730771  0.97771501  0.44124462  1
  S  S41  1  0.32615060  0.03575109  0.54816225  1
