# generated using pymatgen
data_Pr2Mn3(SbS3)4
_symmetry_space_group_name_H-M   'P 1'
_cell_length_a   20.02960800
_cell_length_b   3.90410600
_cell_length_c   14.95364829
_cell_angle_alpha   90.00000000
_cell_angle_beta   126.33350609
_cell_angle_gamma   90.00000000
_symmetry_Int_Tables_number   1
_chemical_formula_structural   Pr2Mn3(SbS3)4
_chemical_formula_sum   'Pr4 Mn6 Sb8 S24'
_cell_volume   942.00006694
_cell_formula_units_Z   2
loop_
 _symmetry_equiv_pos_site_id
 _symmetry_equiv_pos_as_xyz
  1  'x, y, z'
loop_
 _atom_site_type_symbol
 _atom_site_label
 _atom_site_symmetry_multiplicity
 _atom_site_fract_x
 _atom_site_fract_y
 _atom_site_fract_z
 _atom_site_occupancy
  Pr  Pr0  1  0.26814083  0.44238954  0.86582729  1
  Pr  Pr1  1  0.73151653  0.55279474  0.13510725  1
  Pr  Pr2  1  0.77303924  0.95886603  0.86616407  1
  Pr  Pr3  1  0.22630207  0.98091784  0.12815084  1
  Mn  Mn4  1  0.29054231  0.56262232  0.60596352  1
  Mn  Mn5  1  0.70653928  0.51035540  0.39278191  1
  Mn  Mn6  1  0.00078239  0.90645554  0.99992214  1
  Mn  Mn7  1  0.79100298  0.04588089  0.59815803  1
  Mn  Mn8  1  0.18970769  0.98808956  0.40661160  1
  Mn  Mn9  1  0.52386959  0.51855843  0.03205369  1
  Sb  Sb10  1  0.89664750  0.00472369  0.45477112  1
  Sb  Sb11  1  0.11534370  0.99444496  0.55776801  1
  Sb  Sb12  1  0.03298359  0.51568976  0.80870908  1
  Sb  Sb13  1  0.96300234  0.48396784  0.19229879  1
  Sb  Sb14  1  0.39989499  0.49858089  0.46003548  1
  Sb  Sb15  1  0.61474739  0.44192071  0.55510969  1
  Sb  Sb16  1  0.52734255  0.97508015  0.81326837  1
  Sb  Sb17  1  0.46964208  0.02133728  0.19357185  1
  S  S18  1  0.95376041  0.95770492  0.82893828  1
  S  S19  1  0.06663272  0.00964914  0.21671310  1
  S  S20  1  0.42084868  0.96646165  0.99893133  1
  S  S21  1  0.59184422  0.04581060  0.02855179  1
  S  S22  1  0.18764443  0.99063298  0.90731040  1
  S  S23  1  0.84193272  0.99710138  0.12293848  1
  S  S24  1  0.10024908  0.48753941  0.65629704  1
  S  S25  1  0.88715245  0.50974077  0.33985894  1
  S  S26  1  0.74295529  0.95007882  0.32481733  1
  S  S27  1  0.27277072  0.06993019  0.69241643  1
  S  S28  1  0.15853234  0.47513721  0.44188804  1
  S  S29  1  0.84072882  0.48928874  0.56242570  1
  S  S30  1  0.44967856  0.50313995  0.83830136  1
  S  S31  1  0.59215080  0.54065296  0.22284149  1
  S  S32  1  0.91250442  0.50173178  0.99202179  1
  S  S33  1  0.08298888  0.49345258  0.00259372  1
  S  S34  1  0.68359577  0.46091836  0.89940133  1
  S  S35  1  0.35404261  0.46077353  0.11313469  1
  S  S36  1  0.60331159  0.93588091  0.66466447  1
  S  S37  1  0.41599789  0.97620240  0.35495153  1
  S  S38  1  0.24837563  0.50058931  0.28813068  1
  S  S39  1  0.76851433  0.49080151  0.68332084  1
  S  S40  1  0.67698771  0.97688133  0.44072300  1
  S  S41  1  0.32603618  0.03523079  0.54800386  1
