# generated using pymatgen
data_Pr2Mn3(SbS3)4
_symmetry_space_group_name_H-M   'P 1'
_cell_length_a   20.02960800
_cell_length_b   3.90410600
_cell_length_c   14.95364829
_cell_angle_alpha   90.00000000
_cell_angle_beta   126.33350609
_cell_angle_gamma   90.00000000
_symmetry_Int_Tables_number   1
_chemical_formula_structural   Pr2Mn3(SbS3)4
_chemical_formula_sum   'Pr4 Mn6 Sb8 S24'
_cell_volume   942.00006694
_cell_formula_units_Z   2
loop_
 _symmetry_equiv_pos_site_id
 _symmetry_equiv_pos_as_xyz
  1  'x, y, z'
loop_
 _atom_site_type_symbol
 _atom_site_label
 _atom_site_symmetry_multiplicity
 _atom_site_fract_x
 _atom_site_fract_y
 _atom_site_fract_z
 _atom_site_occupancy
  Pr  Pr0  1  0.26958519  0.50421532  0.86872700  1
  Pr  Pr1  1  0.73420701  0.51337655  0.13489535  1
  Pr  Pr2  1  0.76450092  0.03036251  0.86795530  1
  Pr  Pr3  1  0.22983138  0.98352615  0.13075731  1
  Mn  Mn4  1  0.30061468  0.46232178  0.60860366  1
  Mn  Mn5  1  0.68501669  0.46821923  0.36445776  1
  Mn  Mn6  1  0.00250040  0.99118869  0.00993594  1
  Mn  Mn7  1  0.79257324  0.02722832  0.61391433  1
  Mn  Mn8  1  0.19475913  0.00335909  0.36603231  1
  Mn  Mn9  1  0.48226869  0.47230418  0.98227000  1
  Sb  Sb10  1  0.88999305  0.98556852  0.44825931  1
  Sb  Sb11  1  0.11104224  0.98059288  0.54697034  1
  Sb  Sb12  1  0.03563762  0.52867409  0.82208199  1
  Sb  Sb13  1  0.96772842  0.49144320  0.19103950  1
  Sb  Sb14  1  0.39544064  0.49940950  0.45140082  1
  Sb  Sb15  1  0.61110983  0.48079063  0.54792197  1
  Sb  Sb16  1  0.53110118  0.97073980  0.80573093  1
  Sb  Sb17  1  0.46578303  0.02242142  0.18694416  1
  S  S18  1  0.94025844  0.02186195  0.80812696  1
  S  S19  1  0.06672471  0.00595259  0.20785076  1
  S  S20  1  0.41863107  0.97406993  0.98067069  1
  S  S21  1  0.58710162  0.02571616  0.01396929  1
  S  S22  1  0.16331905  0.03451717  0.89991301  1
  S  S23  1  0.82623765  0.00308841  0.10514264  1
  S  S24  1  0.08624750  0.49778957  0.63897706  1
  S  S25  1  0.91500180  0.48138238  0.35304662  1
  S  S26  1  0.73443899  0.01405373  0.29461920  1
  S  S27  1  0.25932394  0.01590931  0.70581266  1
  S  S28  1  0.16846866  0.51942707  0.43737560  1
  S  S29  1  0.80956590  0.51556761  0.53904069  1
  S  S30  1  0.43273080  0.47795236  0.80136334  1
  S  S31  1  0.55362762  0.50805924  0.18136400  1
  S  S32  1  0.92403785  0.50958514  0.99075354  1
  S  S33  1  0.09181661  0.49580776  0.02731297  1
  S  S34  1  0.66792998  0.55923627  0.89769562  1
  S  S35  1  0.32825522  0.46308186  0.09584455  1
  S  S36  1  0.58817106  0.99858458  0.64771757  1
  S  S37  1  0.39588783  0.98398378  0.33386939  1
  S  S38  1  0.24674916  0.47648798  0.31684768  1
  S  S39  1  0.76344411  0.51393370  0.69158072  1
  S  S40  1  0.65989318  0.98061066  0.43914600  1
  S  S41  1  0.32915970  0.98067597  0.55147423  1
