# generated using pymatgen
data_Pr2Mn3(SbS3)4
_symmetry_space_group_name_H-M   'P 1'
_cell_length_a   20.02960800
_cell_length_b   3.90410600
_cell_length_c   14.95364829
_cell_angle_alpha   90.00000000
_cell_angle_beta   126.33350609
_cell_angle_gamma   90.00000000
_symmetry_Int_Tables_number   1
_chemical_formula_structural   Pr2Mn3(SbS3)4
_chemical_formula_sum   'Pr4 Mn6 Sb8 S24'
_cell_volume   942.00006694
_cell_formula_units_Z   2
loop_
 _symmetry_equiv_pos_site_id
 _symmetry_equiv_pos_as_xyz
  1  'x, y, z'
loop_
 _atom_site_type_symbol
 _atom_site_label
 _atom_site_symmetry_multiplicity
 _atom_site_fract_x
 _atom_site_fract_y
 _atom_site_fract_z
 _atom_site_occupancy
  Pr  Pr0  1  0.26828786  0.44251848  0.86596649  1
  Pr  Pr1  1  0.73149432  0.55311958  0.13510295  1
  Pr  Pr2  1  0.77303173  0.95950684  0.86621991  1
  Pr  Pr3  1  0.22618041  0.98163589  0.12817870  1
  Mn  Mn4  1  0.29046680  0.56416442  0.60610282  1
  Mn  Mn5  1  0.70667086  0.50999417  0.39294854  1
  Mn  Mn6  1  0.00099887  0.90639530  0.00005594  1
  Mn  Mn7  1  0.79108352  0.04511001  0.59841743  1
  Mn  Mn8  1  0.18953921  0.98670370  0.40652694  1
  Mn  Mn9  1  0.52388472  0.51965586  0.03189212  1
  Sb  Sb10  1  0.89675095  0.00498869  0.45485655  1
  Sb  Sb11  1  0.11514761  0.99406486  0.55769543  1
  Sb  Sb12  1  0.03320915  0.51467790  0.80880176  1
  Sb  Sb13  1  0.96310915  0.48380999  0.19249585  1
  Sb  Sb14  1  0.40002034  0.49928563  0.46005159  1
  Sb  Sb15  1  0.61482707  0.44211091  0.55522625  1
  Sb  Sb16  1  0.52748015  0.97563904  0.81361866  1
  Sb  Sb17  1  0.46950497  0.02170140  0.19358870  1
  S  S18  1  0.95397503  0.95830826  0.82879217  1
  S  S19  1  0.06717696  0.00884957  0.21726667  1
  S  S20  1  0.42103700  0.96744328  0.99916249  1
  S  S21  1  0.59182569  0.04669888  0.02844983  1
  S  S22  1  0.18754676  0.99050618  0.90731899  1
  S  S23  1  0.84188578  0.99745249  0.12290625  1
  S  S24  1  0.10036386  0.48802674  0.65677224  1
  S  S25  1  0.88705658  0.51015429  0.33987012  1
  S  S26  1  0.74325130  0.94940992  0.32518010  1
  S  S27  1  0.27307665  0.07018111  0.69248059  1
  S  S28  1  0.15840401  0.47601258  0.44174559  1
  S  S29  1  0.84073476  0.49011698  0.56188045  1
  S  S30  1  0.44998435  0.50341364  0.83840931  1
  S  S31  1  0.59248107  0.54065032  0.22337610  1
  S  S32  1  0.91259916  0.50118330  0.99198415  1
  S  S33  1  0.08295601  0.49331347  0.00257435  1
  S  S34  1  0.68359615  0.46008108  0.89950528  1
  S  S35  1  0.35400239  0.46282857  0.11317801  1
  S  S36  1  0.60303898  0.93740281  0.66422839  1
  S  S37  1  0.41591301  0.97677841  0.35505076  1
  S  S38  1  0.24823796  0.50032755  0.28814316  1
  S  S39  1  0.76860211  0.49035024  0.68326300  1
  S  S40  1  0.67656691  0.97552657  0.44021663  1
  S  S41  1  0.32597717  0.03452772  0.54799218  1
