# generated using pymatgen
data_Pr2Mn3(SbS3)4
_symmetry_space_group_name_H-M   'P 1'
_cell_length_a   20.02960800
_cell_length_b   3.90410600
_cell_length_c   14.95364829
_cell_angle_alpha   90.00000000
_cell_angle_beta   126.33350609
_cell_angle_gamma   90.00000000
_symmetry_Int_Tables_number   1
_chemical_formula_structural   Pr2Mn3(SbS3)4
_chemical_formula_sum   'Pr4 Mn6 Sb8 S24'
_cell_volume   942.00006694
_cell_formula_units_Z   2
loop_
 _symmetry_equiv_pos_site_id
 _symmetry_equiv_pos_as_xyz
  1  'x, y, z'
loop_
 _atom_site_type_symbol
 _atom_site_label
 _atom_site_symmetry_multiplicity
 _atom_site_fract_x
 _atom_site_fract_y
 _atom_site_fract_z
 _atom_site_occupancy
  Pr  Pr0  1  0.26839003  0.44252422  0.86597368  1
  Pr  Pr1  1  0.73150362  0.55353524  0.13504837  1
  Pr  Pr2  1  0.77298801  0.96022181  0.86623394  1
  Pr  Pr3  1  0.22613632  0.98257731  0.12823326  1
  Mn  Mn4  1  0.29042273  0.56585631  0.60626049  1
  Mn  Mn5  1  0.70676525  0.51002402  0.39293749  1
  Mn  Mn6  1  0.00116565  0.90616441  0.00016641  1
  Mn  Mn7  1  0.79120336  0.04468903  0.59864418  1
  Mn  Mn8  1  0.18937942  0.98490936  0.40647827  1
  Mn  Mn9  1  0.52406202  0.52020302  0.03196525  1
  Sb  Sb10  1  0.89689198  0.00492816  0.45493681  1
  Sb  Sb11  1  0.11496030  0.99340978  0.55770584  1
  Sb  Sb12  1  0.03337216  0.51364316  0.80887715  1
  Sb  Sb13  1  0.96310607  0.48360671  0.19249599  1
  Sb  Sb14  1  0.40004709  0.49981919  0.45998138  1
  Sb  Sb15  1  0.61488744  0.44209482  0.55539676  1
  Sb  Sb16  1  0.52761865  0.97612971  0.81386916  1
  Sb  Sb17  1  0.46937723  0.02229376  0.19365540  1
  S  S18  1  0.95415858  0.95816327  0.82868833  1
  S  S19  1  0.06763992  0.00776997  0.21757710  1
  S  S20  1  0.42107575  0.96838943  0.99920671  1
  S  S21  1  0.59187732  0.04823835  0.02826938  1
  S  S22  1  0.18760579  0.99024201  0.90769827  1
  S  S23  1  0.84203306  0.99784215  0.12316556  1
  S  S24  1  0.10055519  0.48835606  0.65747595  1
  S  S25  1  0.88699441  0.50988905  0.33989481  1
  S  S26  1  0.74358898  0.94882551  0.32544849  1
  S  S27  1  0.27338872  0.07061479  0.69236250  1
  S  S28  1  0.15825337  0.47712056  0.44179638  1
  S  S29  1  0.84062237  0.49078570  0.56107909  1
  S  S30  1  0.45007826  0.50405884  0.83823869  1
  S  S31  1  0.59276151  0.54029769  0.22394340  1
  S  S32  1  0.91266776  0.50020658  0.99186398  1
  S  S33  1  0.08289158  0.49296841  0.00240346  1
  S  S34  1  0.68367365  0.45933319  0.89975075  1
  S  S35  1  0.35408405  0.46429850  0.11309853  1
  S  S36  1  0.60272175  0.93881480  0.66365490  1
  S  S37  1  0.41585227  0.97675666  0.35526481  1
  S  S38  1  0.24823442  0.50003796  0.28816385  1
  S  S39  1  0.76886050  0.49008977  0.68331630  1
  S  S40  1  0.67631257  0.97346816  0.43994982  1
  S  S41  1  0.32593007  0.03423397  0.54791701  1
