# generated using pymatgen
data_Pr2Mn3(SbS3)4
_symmetry_space_group_name_H-M   'P 1'
_cell_length_a   20.02960800
_cell_length_b   3.90410600
_cell_length_c   14.95364829
_cell_angle_alpha   90.00000000
_cell_angle_beta   126.33350609
_cell_angle_gamma   90.00000000
_symmetry_Int_Tables_number   1
_chemical_formula_structural   Pr2Mn3(SbS3)4
_chemical_formula_sum   'Pr4 Mn6 Sb8 S24'
_cell_volume   942.00006694
_cell_formula_units_Z   2
loop_
 _symmetry_equiv_pos_site_id
 _symmetry_equiv_pos_as_xyz
  1  'x, y, z'
loop_
 _atom_site_type_symbol
 _atom_site_label
 _atom_site_symmetry_multiplicity
 _atom_site_fract_x
 _atom_site_fract_y
 _atom_site_fract_z
 _atom_site_occupancy
  Pr  Pr0  1  0.26848517  0.44251544  0.86593088  1
  Pr  Pr1  1  0.73156117  0.55364093  0.13504703  1
  Pr  Pr2  1  0.77293070  0.96052770  0.86618198  1
  Pr  Pr3  1  0.22608080  0.98360171  0.12827383  1
  Mn  Mn4  1  0.29035473  0.56754971  0.60624735  1
  Mn  Mn5  1  0.70682461  0.51015808  0.39290985  1
  Mn  Mn6  1  0.00140238  0.90640647  0.00027458  1
  Mn  Mn7  1  0.79152865  0.04425470  0.59910143  1
  Mn  Mn8  1  0.18914999  0.98312256  0.40621017  1
  Mn  Mn9  1  0.52420128  0.52126920  0.03210081  1
  Sb  Sb10  1  0.89697620  0.00495380  0.45498769  1
  Sb  Sb11  1  0.11481272  0.99260011  0.55773115  1
  Sb  Sb12  1  0.03351743  0.51246961  0.80892047  1
  Sb  Sb13  1  0.96309131  0.48376326  0.19256289  1
  Sb  Sb14  1  0.40012726  0.50055779  0.45997450  1
  Sb  Sb15  1  0.61499111  0.44204431  0.55555917  1
  Sb  Sb16  1  0.52774111  0.97646015  0.81415393  1
  Sb  Sb17  1  0.46928190  0.02283264  0.19377311  1
  S  S18  1  0.95423088  0.95823955  0.82855704  1
  S  S19  1  0.06806184  0.00675982  0.21782799  1
  S  S20  1  0.42106766  0.96907089  0.99913402  1
  S  S21  1  0.59200757  0.04932885  0.02832851  1
  S  S22  1  0.18777286  0.98987547  0.90813802  1
  S  S23  1  0.84214950  0.99808306  0.12320100  1
  S  S24  1  0.10086315  0.48918376  0.65844194  1
  S  S25  1  0.88694619  0.50932824  0.33981695  1
  S  S26  1  0.74392842  0.94797699  0.32561874  1
  S  S27  1  0.27387424  0.07071041  0.69247134  1
  S  S28  1  0.15841093  0.47828959  0.44204680  1
  S  S29  1  0.84049831  0.49131142  0.56027523  1
  S  S30  1  0.45018097  0.50444791  0.83799084  1
  S  S31  1  0.59287968  0.53962794  0.22417563  1
  S  S32  1  0.91285018  0.49896517  0.99188538  1
  S  S33  1  0.08296328  0.49313947  0.00246126  1
  S  S34  1  0.68374817  0.45879105  0.90019084  1
  S  S35  1  0.35407010  0.46563076  0.11304887  1
  S  S36  1  0.60249724  0.94058653  0.66299850  1
  S  S37  1  0.41574803  0.97755252  0.35553555  1
  S  S38  1  0.24824849  0.49949783  0.28829283  1
  S  S39  1  0.76898328  0.49075988  0.68313322  1
  S  S40  1  0.67596838  0.97205831  0.43962842  1
  S  S41  1  0.32595109  0.03402615  0.54801161  1
