# generated using pymatgen
data_Pr2Mn3(SbS3)4
_symmetry_space_group_name_H-M   'P 1'
_cell_length_a   20.02960800
_cell_length_b   3.90410600
_cell_length_c   14.95364829
_cell_angle_alpha   90.00000000
_cell_angle_beta   126.33350609
_cell_angle_gamma   90.00000000
_symmetry_Int_Tables_number   1
_chemical_formula_structural   Pr2Mn3(SbS3)4
_chemical_formula_sum   'Pr4 Mn6 Sb8 S24'
_cell_volume   942.00006694
_cell_formula_units_Z   2
loop_
 _symmetry_equiv_pos_site_id
 _symmetry_equiv_pos_as_xyz
  1  'x, y, z'
loop_
 _atom_site_type_symbol
 _atom_site_label
 _atom_site_symmetry_multiplicity
 _atom_site_fract_x
 _atom_site_fract_y
 _atom_site_fract_z
 _atom_site_occupancy
  Pr  Pr0  1  0.26856035  0.44271371  0.86587276  1
  Pr  Pr1  1  0.73167431  0.55412665  0.13512538  1
  Pr  Pr2  1  0.77286110  0.96101571  0.86608794  1
  Pr  Pr3  1  0.22601715  0.98443691  0.12830639  1
  Mn  Mn4  1  0.29035565  0.56915962  0.60629511  1
  Mn  Mn5  1  0.70680655  0.51009958  0.39302931  1
  Mn  Mn6  1  0.00167771  0.90694008  0.00042564  1
  Mn  Mn7  1  0.79186821  0.04390684  0.59962298  1
  Mn  Mn8  1  0.18898502  0.98178983  0.40595039  1
  Mn  Mn9  1  0.52426854  0.52246528  0.03216423  1
  Sb  Sb10  1  0.89701312  0.00544456  0.45514504  1
  Sb  Sb11  1  0.11470498  0.99178300  0.55780439  1
  Sb  Sb12  1  0.03359100  0.51142446  0.80886628  1
  Sb  Sb13  1  0.96308739  0.48412674  0.19264362  1
  Sb  Sb14  1  0.40015020  0.50147931  0.45996284  1
  Sb  Sb15  1  0.61512322  0.44170357  0.55571679  1
  Sb  Sb16  1  0.52789639  0.97692263  0.81438871  1
  Sb  Sb17  1  0.46914315  0.02326782  0.19378036  1
  S  S18  1  0.95413056  0.95804742  0.82820836  1
  S  S19  1  0.06836608  0.00498868  0.21791136  1
  S  S20  1  0.42121247  0.97006763  0.99923467  1
  S  S21  1  0.59231486  0.04947658  0.02859935  1
  S  S22  1  0.18793196  0.98966226  0.90864296  1
  S  S23  1  0.84209429  0.99834615  0.12296806  1
  S  S24  1  0.10106329  0.48897446  0.65951685  1
  S  S25  1  0.88679692  0.50881728  0.33968155  1
  S  S26  1  0.74415731  0.94719456  0.32578096  1
  S  S27  1  0.27439343  0.07003275  0.69256576  1
  S  S28  1  0.15849349  0.47905359  0.44209887  1
  S  S29  1  0.84024717  0.49153063  0.55946604  1
  S  S30  1  0.45041418  0.50477059  0.83802124  1
  S  S31  1  0.59285107  0.53857090  0.22424930  1
  S  S32  1  0.91305070  0.49846083  0.99201561  1
  S  S33  1  0.08306725  0.49398395  0.00266044  1
  S  S34  1  0.68364788  0.45838091  0.90050073  1
  S  S35  1  0.35404208  0.46663845  0.11296936  1
  S  S36  1  0.60223352  0.94262063  0.66233571  1
  S  S37  1  0.41546252  0.97836333  0.35564821  1
  S  S38  1  0.24832429  0.49925786  0.28859537  1
  S  S39  1  0.76910779  0.49162471  0.68300763  1
  S  S40  1  0.67566900  0.97048272  0.43953583  1
  S  S41  1  0.32601497  0.03355255  0.54813394  1
