# generated using pymatgen
data_Pr2Mn3(SbS3)4
_symmetry_space_group_name_H-M   'P 1'
_cell_length_a   20.02960800
_cell_length_b   3.90410600
_cell_length_c   14.95364829
_cell_angle_alpha   90.00000000
_cell_angle_beta   126.33350609
_cell_angle_gamma   90.00000000
_symmetry_Int_Tables_number   1
_chemical_formula_structural   Pr2Mn3(SbS3)4
_chemical_formula_sum   'Pr4 Mn6 Sb8 S24'
_cell_volume   942.00006694
_cell_formula_units_Z   2
loop_
 _symmetry_equiv_pos_site_id
 _symmetry_equiv_pos_as_xyz
  1  'x, y, z'
loop_
 _atom_site_type_symbol
 _atom_site_label
 _atom_site_symmetry_multiplicity
 _atom_site_fract_x
 _atom_site_fract_y
 _atom_site_fract_z
 _atom_site_occupancy
  Pr  Pr0  1  0.26860087  0.44293166  0.86573447  1
  Pr  Pr1  1  0.73181659  0.55474032  0.13514460  1
  Pr  Pr2  1  0.77277884  0.96145014  0.86604754  1
  Pr  Pr3  1  0.22592624  0.98506882  0.12827806  1
  Mn  Mn4  1  0.29029234  0.57043216  0.60632406  1
  Mn  Mn5  1  0.70696827  0.50994283  0.39339990  1
  Mn  Mn6  1  0.00203607  0.90771312  0.00072145  1
  Mn  Mn7  1  0.79211100  0.04321958  0.59995490  1
  Mn  Mn8  1  0.18884431  0.98098139  0.40566027  1
  Mn  Mn9  1  0.52420206  0.52309449  0.03223299  1
  Sb  Sb10  1  0.89711165  0.00598025  0.45533503  1
  Sb  Sb11  1  0.11460773  0.99107558  0.55786811  1
  Sb  Sb12  1  0.03359159  0.51022990  0.80864219  1
  Sb  Sb13  1  0.96312959  0.48451469  0.19280101  1
  Sb  Sb14  1  0.40016560  0.50229842  0.46001927  1
  Sb  Sb15  1  0.61523557  0.44147471  0.55584195  1
  Sb  Sb16  1  0.52805025  0.97765042  0.81472166  1
  Sb  Sb17  1  0.46893116  0.02377839  0.19371649  1
  S  S18  1  0.95401661  0.95795294  0.82797363  1
  S  S19  1  0.06860636  0.00380997  0.21795426  1
  S  S20  1  0.42129755  0.97049751  0.99924105  1
  S  S21  1  0.59266587  0.04971273  0.02894962  1
  S  S22  1  0.18789775  0.98927023  0.90890973  1
  S  S23  1  0.84193065  0.99823508  0.12268280  1
  S  S24  1  0.10127224  0.48912022  0.66064894  1
  S  S25  1  0.88663031  0.50831487  0.33953098  1
  S  S26  1  0.74443690  0.94681052  0.32596387  1
  S  S27  1  0.27484975  0.06934801  0.69270516  1
  S  S28  1  0.15857827  0.48000366  0.44231462  1
  S  S29  1  0.83988582  0.49140334  0.55860234  1
  S  S30  1  0.45052881  0.50508715  0.83803907  1
  S  S31  1  0.59287795  0.53738207  0.22429818  1
  S  S32  1  0.91320805  0.49889588  0.99209210  1
  S  S33  1  0.08308173  0.49562658  0.00262499  1
  S  S34  1  0.68350180  0.45827956  0.90075019  1
  S  S35  1  0.35415797  0.46691305  0.11293801  1
  S  S36  1  0.60188084  0.94402365  0.66163409  1
  S  S37  1  0.41521523  0.97887607  0.35585787  1
  S  S38  1  0.24835175  0.49890882  0.28867470  1
  S  S39  1  0.76938470  0.49277794  0.68299902  1
  S  S40  1  0.67551659  0.96820900  0.43962565  1
  S  S41  1  0.32604671  0.03259540  0.54822074  1
