# generated using pymatgen
data_Pr2Mn3(SbS3)4
_symmetry_space_group_name_H-M   'P 1'
_cell_length_a   20.02960800
_cell_length_b   3.90410600
_cell_length_c   14.95364829
_cell_angle_alpha   90.00000000
_cell_angle_beta   126.33350609
_cell_angle_gamma   90.00000000
_symmetry_Int_Tables_number   1
_chemical_formula_structural   Pr2Mn3(SbS3)4
_chemical_formula_sum   'Pr4 Mn6 Sb8 S24'
_cell_volume   942.00006694
_cell_formula_units_Z   2
loop_
 _symmetry_equiv_pos_site_id
 _symmetry_equiv_pos_as_xyz
  1  'x, y, z'
loop_
 _atom_site_type_symbol
 _atom_site_label
 _atom_site_symmetry_multiplicity
 _atom_site_fract_x
 _atom_site_fract_y
 _atom_site_fract_z
 _atom_site_occupancy
  Pr  Pr0  1  0.26864025  0.44333122  0.86564415  1
  Pr  Pr1  1  0.73191885  0.55516165  0.13516058  1
  Pr  Pr2  1  0.77274509  0.96177990  0.86608370  1
  Pr  Pr3  1  0.22577561  0.98585184  0.12811645  1
  Mn  Mn4  1  0.29025220  0.57173178  0.60630870  1
  Mn  Mn5  1  0.70719691  0.50981918  0.39392378  1
  Mn  Mn6  1  0.00241624  0.90830566  0.00101084  1
  Mn  Mn7  1  0.79233397  0.04240114  0.60019052  1
  Mn  Mn8  1  0.18872707  0.98035072  0.40533313  1
  Mn  Mn9  1  0.52412624  0.52335093  0.03239786  1
  Sb  Sb10  1  0.89716220  0.00620062  0.45542597  1
  Sb  Sb11  1  0.11453067  0.99073659  0.55796954  1
  Sb  Sb12  1  0.03363018  0.50942774  0.80859005  1
  Sb  Sb13  1  0.96318003  0.48487527  0.19293309  1
  Sb  Sb14  1  0.40019972  0.50288909  0.46006832  1
  Sb  Sb15  1  0.61534071  0.44092818  0.55594969  1
  Sb  Sb16  1  0.52812026  0.97809060  0.81498594  1
  Sb  Sb17  1  0.46874371  0.02426934  0.19361973  1
  S  S18  1  0.95385905  0.95784554  0.82766613  1
  S  S19  1  0.06901100  0.00311793  0.21825977  1
  S  S20  1  0.42136260  0.97084498  0.99934988  1
  S  S21  1  0.59314114  0.04980463  0.02932923  1
  S  S22  1  0.18798670  0.98879584  0.90926562  1
  S  S23  1  0.84159069  0.99827155  0.12213899  1
  S  S24  1  0.10153628  0.48929184  0.66166269  1
  S  S25  1  0.88642108  0.50791588  0.33946605  1
  S  S26  1  0.74459433  0.94620063  0.32608672  1
  S  S27  1  0.27534461  0.06857523  0.69265945  1
  S  S28  1  0.15878991  0.48044541  0.44261123  1
  S  S29  1  0.83957258  0.49085736  0.55766849  1
  S  S30  1  0.45054067  0.50517261  0.83805276  1
  S  S31  1  0.59284447  0.53633510  0.22435350  1
  S  S32  1  0.91345747  0.49954355  0.99217862  1
  S  S33  1  0.08308578  0.49735555  0.00264210  1
  S  S34  1  0.68326494  0.45879039  0.90094595  1
  S  S35  1  0.35413503  0.46782974  0.11292085  1
  S  S36  1  0.60165780  0.94561395  0.66100094  1
  S  S37  1  0.41499000  0.97940803  0.35604005  1
  S  S38  1  0.24849577  0.49891325  0.28873988  1
  S  S39  1  0.76959075  0.49411484  0.68285545  1
  S  S40  1  0.67545443  0.96636105  0.43985014  1
  S  S41  1  0.32611432  0.03181730  0.54832205  1
