# generated using pymatgen
data_Pr2Mn3(SbS3)4
_symmetry_space_group_name_H-M   'P 1'
_cell_length_a   20.02960800
_cell_length_b   3.90410600
_cell_length_c   14.95364829
_cell_angle_alpha   90.00000000
_cell_angle_beta   126.33350609
_cell_angle_gamma   90.00000000
_symmetry_Int_Tables_number   1
_chemical_formula_structural   Pr2Mn3(SbS3)4
_chemical_formula_sum   'Pr4 Mn6 Sb8 S24'
_cell_volume   942.00006694
_cell_formula_units_Z   2
loop_
 _symmetry_equiv_pos_site_id
 _symmetry_equiv_pos_as_xyz
  1  'x, y, z'
loop_
 _atom_site_type_symbol
 _atom_site_label
 _atom_site_symmetry_multiplicity
 _atom_site_fract_x
 _atom_site_fract_y
 _atom_site_fract_z
 _atom_site_occupancy
  Pr  Pr0  1  0.26867993  0.44341911  0.86557512  1
  Pr  Pr1  1  0.73200650  0.55542984  0.13517211  1
  Pr  Pr2  1  0.77264142  0.96190963  0.86597335  1
  Pr  Pr3  1  0.22565479  0.98671863  0.12797996  1
  Mn  Mn4  1  0.29024741  0.57257482  0.60623557  1
  Mn  Mn5  1  0.70739195  0.50934699  0.39441348  1
  Mn  Mn6  1  0.00284021  0.90915527  0.00129381  1
  Mn  Mn7  1  0.79248158  0.04139560  0.60040043  1
  Mn  Mn8  1  0.18855104  0.97924444  0.40494833  1
  Mn  Mn9  1  0.52403998  0.52364008  0.03253736  1
  Sb  Sb10  1  0.89718381  0.00622029  0.45542235  1
  Sb  Sb11  1  0.11443790  0.99024702  0.55794935  1
  Sb  Sb12  1  0.03369654  0.50843103  0.80851114  1
  Sb  Sb13  1  0.96323287  0.48524397  0.19305656  1
  Sb  Sb14  1  0.40024421  0.50357143  0.46010229  1
  Sb  Sb15  1  0.61540709  0.44071767  0.55601809  1
  Sb  Sb16  1  0.52813492  0.97825480  0.81514548  1
  Sb  Sb17  1  0.46862203  0.02502222  0.19360936  1
  S  S18  1  0.95389228  0.95743982  0.82755299  1
  S  S19  1  0.06948532  0.00270067  0.21860070  1
  S  S20  1  0.42146220  0.97034697  0.99946164  1
  S  S21  1  0.59369812  0.04936599  0.02974354  1
  S  S22  1  0.18794669  0.98833965  0.90962831  1
  S  S23  1  0.84136104  0.99819443  0.12176013  1
  S  S24  1  0.10180013  0.48959986  0.66268205  1
  S  S25  1  0.88616453  0.50758647  0.33937743  1
  S  S26  1  0.74462056  0.94611225  0.32606239  1
  S  S27  1  0.27592430  0.06739774  0.69274220  1
  S  S28  1  0.15894026  0.48084273  0.44291003  1
  S  S29  1  0.83919381  0.48928448  0.55674273  1
  S  S30  1  0.45038300  0.50554715  0.83804810  1
  S  S31  1  0.59275272  0.53596527  0.22446459  1
  S  S32  1  0.91368899  0.50008995  0.99226931  1
  S  S33  1  0.08319786  0.49896998  0.00260052  1
  S  S34  1  0.68292016  0.45943889  0.90091423  1
  S  S35  1  0.35409611  0.46904920  0.11288638  1
  S  S36  1  0.60141788  0.94728636  0.66053695  1
  S  S37  1  0.41486697  0.97930871  0.35605968  1
  S  S38  1  0.24860497  0.49959249  0.28871488  1
  S  S39  1  0.76979912  0.49518738  0.68277731  1
  S  S40  1  0.67535392  0.96455352  0.43999149  1
  S  S41  1  0.32599598  0.03120945  0.54827554  1
