# generated using pymatgen
data_Pr2Mn3(SbS3)4
_symmetry_space_group_name_H-M   'P 1'
_cell_length_a   20.02960800
_cell_length_b   3.90410600
_cell_length_c   14.95364829
_cell_angle_alpha   90.00000000
_cell_angle_beta   126.33350609
_cell_angle_gamma   90.00000000
_symmetry_Int_Tables_number   1
_chemical_formula_structural   Pr2Mn3(SbS3)4
_chemical_formula_sum   'Pr4 Mn6 Sb8 S24'
_cell_volume   942.00006694
_cell_formula_units_Z   2
loop_
 _symmetry_equiv_pos_site_id
 _symmetry_equiv_pos_as_xyz
  1  'x, y, z'
loop_
 _atom_site_type_symbol
 _atom_site_label
 _atom_site_symmetry_multiplicity
 _atom_site_fract_x
 _atom_site_fract_y
 _atom_site_fract_z
 _atom_site_occupancy
  Pr  Pr0  1  0.26871607  0.44343760  0.86551170  1
  Pr  Pr1  1  0.73210094  0.55564553  0.13522344  1
  Pr  Pr2  1  0.77257917  0.96206398  0.86591817  1
  Pr  Pr3  1  0.22559975  0.98782887  0.12783551  1
  Mn  Mn4  1  0.29009722  0.57339642  0.60595617  1
  Mn  Mn5  1  0.70753780  0.50898111  0.39461930  1
  Mn  Mn6  1  0.00318673  0.90991298  0.00151508  1
  Mn  Mn7  1  0.79274079  0.03991055  0.60053005  1
  Mn  Mn8  1  0.18828297  0.97874030  0.40453730  1
  Mn  Mn9  1  0.52391419  0.52360343  0.03253898  1
  Sb  Sb10  1  0.89719968  0.00605887  0.45545773  1
  Sb  Sb11  1  0.11438224  0.98995217  0.55794883  1
  Sb  Sb12  1  0.03379459  0.50791883  0.80847217  1
  Sb  Sb13  1  0.96326172  0.48592163  0.19315187  1
  Sb  Sb14  1  0.40033157  0.50386267  0.46021238  1
  Sb  Sb15  1  0.61553468  0.44049398  0.55612385  1
  Sb  Sb16  1  0.52816802  0.97841113  0.81534912  1
  Sb  Sb17  1  0.46848589  0.02561503  0.19350532  1
  S  S18  1  0.95402057  0.95708480  0.82758727  1
  S  S19  1  0.06997684  0.00209534  0.21892523  1
  S  S20  1  0.42159290  0.96994571  0.99950214  1
  S  S21  1  0.59416854  0.04921339  0.03024250  1
  S  S22  1  0.18786378  0.98802204  0.90969701  1
  S  S23  1  0.84115751  0.99784713  0.12151739  1
  S  S24  1  0.10205475  0.48984218  0.66357119  1
  S  S25  1  0.88603454  0.50759918  0.33934481  1
  S  S26  1  0.74457764  0.94569745  0.32584188  1
  S  S27  1  0.27650170  0.06653606  0.69267269  1
  S  S28  1  0.15908673  0.48142175  0.44320676  1
  S  S29  1  0.83891445  0.48803906  0.55615359  1
  S  S30  1  0.45015299  0.50558578  0.83791435  1
  S  S31  1  0.59272052  0.53566504  0.22452786  1
  S  S32  1  0.91403998  0.50067761  0.99255760  1
  S  S33  1  0.08329513  0.50007319  0.00256476  1
  S  S34  1  0.68268614  0.46030340  0.90084234  1
  S  S35  1  0.35400732  0.46996126  0.11295189  1
  S  S36  1  0.60131130  0.94876310  0.66014371  1
  S  S37  1  0.41472555  0.97846654  0.35605770  1
  S  S38  1  0.24868468  0.50063550  0.28861174  1
  S  S39  1  0.77008672  0.49662168  0.68278635  1
  S  S40  1  0.67510743  0.96277346  0.44009496  1
  S  S41  1  0.32577266  0.03073323  0.54828906  1
