# generated using pymatgen
data_Pr2Mn3(SbS3)4
_symmetry_space_group_name_H-M   'P 1'
_cell_length_a   20.02960800
_cell_length_b   3.90410600
_cell_length_c   14.95364829
_cell_angle_alpha   90.00000000
_cell_angle_beta   126.33350609
_cell_angle_gamma   90.00000000
_symmetry_Int_Tables_number   1
_chemical_formula_structural   Pr2Mn3(SbS3)4
_chemical_formula_sum   'Pr4 Mn6 Sb8 S24'
_cell_volume   942.00006694
_cell_formula_units_Z   2
loop_
 _symmetry_equiv_pos_site_id
 _symmetry_equiv_pos_as_xyz
  1  'x, y, z'
loop_
 _atom_site_type_symbol
 _atom_site_label
 _atom_site_symmetry_multiplicity
 _atom_site_fract_x
 _atom_site_fract_y
 _atom_site_fract_z
 _atom_site_occupancy
  Pr  Pr0  1  0.26872690  0.44322918  0.86544767  1
  Pr  Pr1  1  0.73215079  0.55597098  0.13525722  1
  Pr  Pr2  1  0.77261763  0.96232845  0.86601349  1
  Pr  Pr3  1  0.22558310  0.98888765  0.12780992  1
  Mn  Mn4  1  0.29007520  0.57377483  0.60579003  1
  Mn  Mn5  1  0.70778783  0.50875498  0.39488307  1
  Mn  Mn6  1  0.00347858  0.91062243  0.00161635  1
  Mn  Mn7  1  0.79292540  0.03868626  0.60066711  1
  Mn  Mn8  1  0.18805359  0.97844509  0.40415089  1
  Mn  Mn9  1  0.52370600  0.52359440  0.03235409  1
  Sb  Sb10  1  0.89720041  0.00571644  0.45554922  1
  Sb  Sb11  1  0.11427221  0.98937426  0.55789680  1
  Sb  Sb12  1  0.03390958  0.50705902  0.80848416  1
  Sb  Sb13  1  0.96326061  0.48608624  0.19319960  1
  Sb  Sb14  1  0.40049956  0.50366853  0.46033886  1
  Sb  Sb15  1  0.61558497  0.44060096  0.55621290  1
  Sb  Sb16  1  0.52819517  0.97847634  0.81550325  1
  Sb  Sb17  1  0.46841045  0.02614238  0.19349026  1
  S  S18  1  0.95422576  0.95664970  0.82775285  1
  S  S19  1  0.07038386  0.00206162  0.21905593  1
  S  S20  1  0.42180397  0.96952930  0.99958792  1
  S  S21  1  0.59466600  0.04927909  0.03058349  1
  S  S22  1  0.18780138  0.98741973  0.90990915  1
  S  S23  1  0.84111204  0.99718271  0.12124258  1
  S  S24  1  0.10207861  0.49000094  0.66423599  1
  S  S25  1  0.88591702  0.50800759  0.33935470  1
  S  S26  1  0.74442997  0.94533726  0.32553492  1
  S  S27  1  0.27697231  0.06577045  0.69247075  1
  S  S28  1  0.15931992  0.48185681  0.44348370  1
  S  S29  1  0.83875817  0.48678018  0.55593557  1
  S  S30  1  0.44996938  0.50539003  0.83779404  1
  S  S31  1  0.59253491  0.53547777  0.22455930  1
  S  S32  1  0.91436517  0.50046924  0.99304307  1
  S  S33  1  0.08340678  0.50128178  0.00264293  1
  S  S34  1  0.68246711  0.46095543  0.90090973  1
  S  S35  1  0.35389613  0.47083267  0.11313146  1
  S  S36  1  0.60134327  0.95027849  0.65995205  1
  S  S37  1  0.41457027  0.97720540  0.35604564  1
  S  S38  1  0.24875511  0.50163402  0.28845780  1
  S  S39  1  0.77046663  0.49789634  0.68279194  1
  S  S40  1  0.67485646  0.96137992  0.44005257  1
  S  S41  1  0.32560583  0.03045793  0.54829510  1
