# generated using pymatgen
data_Pr2Mn3(SbS3)4
_symmetry_space_group_name_H-M   'P 1'
_cell_length_a   20.02960800
_cell_length_b   3.90410600
_cell_length_c   14.95364829
_cell_angle_alpha   90.00000000
_cell_angle_beta   126.33350609
_cell_angle_gamma   90.00000000
_symmetry_Int_Tables_number   1
_chemical_formula_structural   Pr2Mn3(SbS3)4
_chemical_formula_sum   'Pr4 Mn6 Sb8 S24'
_cell_volume   942.00006694
_cell_formula_units_Z   2
loop_
 _symmetry_equiv_pos_site_id
 _symmetry_equiv_pos_as_xyz
  1  'x, y, z'
loop_
 _atom_site_type_symbol
 _atom_site_label
 _atom_site_symmetry_multiplicity
 _atom_site_fract_x
 _atom_site_fract_y
 _atom_site_fract_z
 _atom_site_occupancy
  Pr  Pr0  1  0.26868423  0.44308816  0.86542278  1
  Pr  Pr1  1  0.73216033  0.55628262  0.13522750  1
  Pr  Pr2  1  0.77270632  0.96243969  0.86619438  1
  Pr  Pr3  1  0.22556543  0.98987820  0.12771878  1
  Mn  Mn4  1  0.29010178  0.57382325  0.60553153  1
  Mn  Mn5  1  0.70804225  0.50884518  0.39522887  1
  Mn  Mn6  1  0.00377519  0.91105281  0.00166915  1
  Mn  Mn7  1  0.79311878  0.03732384  0.60083802  1
  Mn  Mn8  1  0.18781813  0.97861577  0.40374317  1
  Mn  Mn9  1  0.52356060  0.52393822  0.03214677  1
  Sb  Sb10  1  0.89717884  0.00532316  0.45569346  1
  Sb  Sb11  1  0.11411300  0.98883769  0.55778327  1
  Sb  Sb12  1  0.03396836  0.50631985  0.80845748  1
  Sb  Sb13  1  0.96320405  0.48607760  0.19319559  1
  Sb  Sb14  1  0.40070213  0.50334414  0.46056886  1
  Sb  Sb15  1  0.61558244  0.44071368  0.55623157  1
  Sb  Sb16  1  0.52830732  0.97861591  0.81562641  1
  Sb  Sb17  1  0.46836522  0.02679902  0.19348652  1
  S  S18  1  0.95427274  0.95604157  0.82786131  1
  S  S19  1  0.07085322  0.00172633  0.21923883  1
  S  S20  1  0.42196468  0.96890533  0.99961346  1
  S  S21  1  0.59507248  0.04965103  0.03081934  1
  S  S22  1  0.18778353  0.98710540  0.91022110  1
  S  S23  1  0.84109868  0.99631873  0.12088307  1
  S  S24  1  0.10199564  0.48953755  0.66482501  1
  S  S25  1  0.88583388  0.50876838  0.33939364  1
  S  S26  1  0.74426834  0.94533657  0.32521339  1
  S  S27  1  0.27748865  0.06556653  0.69232864  1
  S  S28  1  0.15944512  0.48263824  0.44367077  1
  S  S29  1  0.83876567  0.48548535  0.55579939  1
  S  S30  1  0.44982011  0.50566705  0.83764855  1
  S  S31  1  0.59219412  0.53508545  0.22430306  1
  S  S32  1  0.91465197  0.50060014  0.99339552  1
  S  S33  1  0.08344576  0.50183102  0.00257619  1
  S  S34  1  0.68223330  0.46193030  0.90088251  1
  S  S35  1  0.35372228  0.47167682  0.11330902  1
  S  S36  1  0.60138625  0.95114642  0.65961650  1
  S  S37  1  0.41418372  0.97621622  0.35578322  1
  S  S38  1  0.24886623  0.50239650  0.28842659  1
  S  S39  1  0.77069910  0.49972443  0.68266980  1
  S  S40  1  0.67456444  0.95939905  0.44004528  1
  S  S41  1  0.32555335  0.03038968  0.54834617  1
