# generated using pymatgen
data_Pr2Mn3(SbS3)4
_symmetry_space_group_name_H-M   'P 1'
_cell_length_a   20.02960800
_cell_length_b   3.90410600
_cell_length_c   14.95364829
_cell_angle_alpha   90.00000000
_cell_angle_beta   126.33350609
_cell_angle_gamma   90.00000000
_symmetry_Int_Tables_number   1
_chemical_formula_structural   Pr2Mn3(SbS3)4
_chemical_formula_sum   'Pr4 Mn6 Sb8 S24'
_cell_volume   942.00006694
_cell_formula_units_Z   2
loop_
 _symmetry_equiv_pos_site_id
 _symmetry_equiv_pos_as_xyz
  1  'x, y, z'
loop_
 _atom_site_type_symbol
 _atom_site_label
 _atom_site_symmetry_multiplicity
 _atom_site_fract_x
 _atom_site_fract_y
 _atom_site_fract_z
 _atom_site_occupancy
  Pr  Pr0  1  0.26958927  0.50448867  0.86894543  1
  Pr  Pr1  1  0.73426258  0.51347798  0.13497287  1
  Pr  Pr2  1  0.76441280  0.03045863  0.86789525  1
  Pr  Pr3  1  0.22970487  0.98271713  0.13063531  1
  Mn  Mn4  1  0.30057950  0.46205396  0.60874616  1
  Mn  Mn5  1  0.68512050  0.46821690  0.36464774  1
  Mn  Mn6  1  0.00240874  0.99057030  0.00985359  1
  Mn  Mn7  1  0.79255878  0.02755603  0.61389844  1
  Mn  Mn8  1  0.19509525  0.00409033  0.36643469  1
  Mn  Mn9  1  0.48217598  0.47229888  0.98227874  1
  Sb  Sb10  1  0.89013459  0.98541265  0.44829803  1
  Sb  Sb11  1  0.11111626  0.98088009  0.54700672  1
  Sb  Sb12  1  0.03579303  0.52828366  0.82227027  1
  Sb  Sb13  1  0.96790366  0.49052922  0.19126796  1
  Sb  Sb14  1  0.39550776  0.49929327  0.45150975  1
  Sb  Sb15  1  0.61122021  0.48083648  0.54794211  1
  Sb  Sb16  1  0.53087367  0.97045567  0.80549501  1
  Sb  Sb17  1  0.46575959  0.02248432  0.18680079  1
  S  S18  1  0.94048821  0.02178623  0.80830612  1
  S  S19  1  0.06658029  0.00586511  0.20750206  1
  S  S20  1  0.41838544  0.97463092  0.98025394  1
  S  S21  1  0.58693149  0.02492822  0.01349890  1
  S  S22  1  0.16316275  0.03454299  0.89973737  1
  S  S23  1  0.82620008  0.00171034  0.10492208  1
  S  S24  1  0.08623517  0.49781426  0.63856337  1
  S  S25  1  0.91505327  0.48185364  0.35300981  1
  S  S26  1  0.73427623  0.01395387  0.29444524  1
  S  S27  1  0.25950341  0.01491773  0.70592114  1
  S  S28  1  0.16865443  0.52040153  0.43746828  1
  S  S29  1  0.80948966  0.51592555  0.53895619  1
  S  S30  1  0.43298511  0.47827592  0.80171372  1
  S  S31  1  0.55374553  0.50660165  0.18151298  1
  S  S32  1  0.92398401  0.50978888  0.99054964  1
  S  S33  1  0.09177096  0.49600914  0.02744947  1
  S  S34  1  0.66790318  0.55872502  0.89733808  1
  S  S35  1  0.32847598  0.46306066  0.09638324  1
  S  S36  1  0.58829336  0.99914461  0.64781040  1
  S  S37  1  0.39570478  0.98459921  0.33384158  1
  S  S38  1  0.24671683  0.47595536  0.31677848  1
  S  S39  1  0.76351945  0.51244906  0.69164629  1
  S  S40  1  0.65962104  0.98066524  0.43888300  1
  S  S41  1  0.32932720  0.98114984  0.55165173  1
