# generated using pymatgen
data_Pr2Mn3(SbS3)4
_symmetry_space_group_name_H-M   'P 1'
_cell_length_a   20.02960800
_cell_length_b   3.90410600
_cell_length_c   14.95364829
_cell_angle_alpha   90.00000000
_cell_angle_beta   126.33350609
_cell_angle_gamma   90.00000000
_symmetry_Int_Tables_number   1
_chemical_formula_structural   Pr2Mn3(SbS3)4
_chemical_formula_sum   'Pr4 Mn6 Sb8 S24'
_cell_volume   942.00006694
_cell_formula_units_Z   2
loop_
 _symmetry_equiv_pos_site_id
 _symmetry_equiv_pos_as_xyz
  1  'x, y, z'
loop_
 _atom_site_type_symbol
 _atom_site_label
 _atom_site_symmetry_multiplicity
 _atom_site_fract_x
 _atom_site_fract_y
 _atom_site_fract_z
 _atom_site_occupancy
  Pr  Pr0  1  0.26862308  0.44287561  0.86535507  1
  Pr  Pr1  1  0.73216253  0.55671364  0.13519777  1
  Pr  Pr2  1  0.77273917  0.96282045  0.86638126  1
  Pr  Pr3  1  0.22551588  0.99083595  0.12756765  1
  Mn  Mn4  1  0.29017565  0.57384242  0.60536948  1
  Mn  Mn5  1  0.70827012  0.50884443  0.39550090  1
  Mn  Mn6  1  0.00408623  0.91138038  0.00170828  1
  Mn  Mn7  1  0.79346847  0.03580566  0.60104483  1
  Mn  Mn8  1  0.18759104  0.97887332  0.40328003  1
  Mn  Mn9  1  0.52350711  0.52396915  0.03198231  1
  Sb  Sb10  1  0.89715080  0.00523778  0.45587456  1
  Sb  Sb11  1  0.11388613  0.98828215  0.55755357  1
  Sb  Sb12  1  0.03396277  0.50579740  0.80833165  1
  Sb  Sb13  1  0.96309166  0.48633250  0.19314403  1
  Sb  Sb14  1  0.40084892  0.50309863  0.46078741  1
  Sb  Sb15  1  0.61562530  0.44086491  0.55626404  1
  Sb  Sb16  1  0.52832927  0.97804845  0.81562604  1
  Sb  Sb17  1  0.46830913  0.02753374  0.19347604  1
  S  S18  1  0.95434178  0.95584049  0.82799389  1
  S  S19  1  0.07108388  0.00167126  0.21932873  1
  S  S20  1  0.42219337  0.96899309  0.99985371  1
  S  S21  1  0.59552506  0.04952108  0.03110230  1
  S  S22  1  0.18782775  0.98662692  0.91060046  1
  S  S23  1  0.84103441  0.99558446  0.12039397  1
  S  S24  1  0.10201339  0.48884157  0.66549192  1
  S  S25  1  0.88568239  0.50903179  0.33929771  1
  S  S26  1  0.74420188  0.94565735  0.32480042  1
  S  S27  1  0.27771476  0.06520040  0.69215242  1
  S  S28  1  0.15943493  0.48261239  0.44373574  1
  S  S29  1  0.83875390  0.48397314  0.55559607  1
  S  S30  1  0.44969352  0.50591775  0.83757186  1
  S  S31  1  0.59177595  0.53458262  0.22403859  1
  S  S32  1  0.91486225  0.50122586  0.99358977  1
  S  S33  1  0.08348197  0.50280344  0.00264539  1
  S  S34  1  0.68193483  0.46333605  0.90075271  1
  S  S35  1  0.35347388  0.47235212  0.11356706  1
  S  S36  1  0.60142641  0.95136478  0.65934175  1
  S  S37  1  0.41380848  0.97463352  0.35546253  1
  S  S38  1  0.24892790  0.50291422  0.28835770  1
  S  S39  1  0.77102034  0.50199167  0.68261249  1
  S  S40  1  0.67423461  0.95783693  0.44005851  1
  S  S41  1  0.32564028  0.03072366  0.54846001  1
