# generated using pymatgen
data_Pr2Mn3(SbS3)4
_symmetry_space_group_name_H-M   'P 1'
_cell_length_a   20.02960800
_cell_length_b   3.90410600
_cell_length_c   14.95364829
_cell_angle_alpha   90.00000000
_cell_angle_beta   126.33350609
_cell_angle_gamma   90.00000000
_symmetry_Int_Tables_number   1
_chemical_formula_structural   Pr2Mn3(SbS3)4
_chemical_formula_sum   'Pr4 Mn6 Sb8 S24'
_cell_volume   942.00006694
_cell_formula_units_Z   2
loop_
 _symmetry_equiv_pos_site_id
 _symmetry_equiv_pos_as_xyz
  1  'x, y, z'
loop_
 _atom_site_type_symbol
 _atom_site_label
 _atom_site_symmetry_multiplicity
 _atom_site_fract_x
 _atom_site_fract_y
 _atom_site_fract_z
 _atom_site_occupancy
  Pr  Pr0  1  0.26857270  0.44259366  0.86530407  1
  Pr  Pr1  1  0.73215775  0.55688359  0.13523411  1
  Pr  Pr2  1  0.77280613  0.96318562  0.86660428  1
  Pr  Pr3  1  0.22547379  0.99178811  0.12746278  1
  Mn  Mn4  1  0.29025263  0.57348068  0.60510890  1
  Mn  Mn5  1  0.70844667  0.50858326  0.39571000  1
  Mn  Mn6  1  0.00432850  0.91176838  0.00170369  1
  Mn  Mn7  1  0.79377827  0.03422159  0.60125543  1
  Mn  Mn8  1  0.18722693  0.97890659  0.40269262  1
  Mn  Mn9  1  0.52351458  0.52408543  0.03188198  1
  Sb  Sb10  1  0.89721839  0.00555512  0.45615229  1
  Sb  Sb11  1  0.11370651  0.98768245  0.55738346  1
  Sb  Sb12  1  0.03399486  0.50505175  0.80832269  1
  Sb  Sb13  1  0.96300408  0.48674447  0.19308927  1
  Sb  Sb14  1  0.40097105  0.50310729  0.46101942  1
  Sb  Sb15  1  0.61567274  0.44074764  0.55630150  1
  Sb  Sb16  1  0.52837230  0.97751008  0.81566782  1
  Sb  Sb17  1  0.46820026  0.02788424  0.19340401  1
  S  S18  1  0.95424383  0.95583828  0.82800366  1
  S  S19  1  0.07119785  0.00138463  0.21929639  1
  S  S20  1  0.42253703  0.96891468  0.00006653  1
  S  S21  1  0.59607962  0.04941890  0.03155678  1
  S  S22  1  0.18794501  0.98604976  0.91081361  1
  S  S23  1  0.84095365  0.99527557  0.11995007  1
  S  S24  1  0.10205119  0.48715507  0.66603597  1
  S  S25  1  0.88555935  0.50898597  0.33923569  1
  S  S26  1  0.74406008  0.94590445  0.32431834  1
  S  S27  1  0.27786563  0.06478986  0.69178249  1
  S  S28  1  0.15935928  0.48314305  0.44361932  1
  S  S29  1  0.83867058  0.48240977  0.55534632  1
  S  S30  1  0.44962092  0.50700011  0.83761639  1
  S  S31  1  0.59138108  0.53488277  0.22381296  1
  S  S32  1  0.91499135  0.50243028  0.99374821  1
  S  S33  1  0.08352621  0.50384990  0.00250936  1
  S  S34  1  0.68164169  0.46466338  0.90051057  1
  S  S35  1  0.35324405  0.47264493  0.11395025  1
  S  S36  1  0.60148451  0.95145553  0.65904124  1
  S  S37  1  0.41337155  0.97279560  0.35484029  1
  S  S38  1  0.24895943  0.50296876  0.28852298  1
  S  S39  1  0.77118254  0.50421851  0.68244215  1
  S  S40  1  0.67383640  0.95730408  0.44012626  1
  S  S41  1  0.32582799  0.03114336  0.54866321  1
