# generated using pymatgen
data_Pr2Mn3(SbS3)4
_symmetry_space_group_name_H-M   'P 1'
_cell_length_a   20.02960800
_cell_length_b   3.90410600
_cell_length_c   14.95364829
_cell_angle_alpha   90.00000000
_cell_angle_beta   126.33350609
_cell_angle_gamma   90.00000000
_symmetry_Int_Tables_number   1
_chemical_formula_structural   Pr2Mn3(SbS3)4
_chemical_formula_sum   'Pr4 Mn6 Sb8 S24'
_cell_volume   942.00006694
_cell_formula_units_Z   2
loop_
 _symmetry_equiv_pos_site_id
 _symmetry_equiv_pos_as_xyz
  1  'x, y, z'
loop_
 _atom_site_type_symbol
 _atom_site_label
 _atom_site_symmetry_multiplicity
 _atom_site_fract_x
 _atom_site_fract_y
 _atom_site_fract_z
 _atom_site_occupancy
  Pr  Pr0  1  0.26843518  0.44253762  0.86519898  1
  Pr  Pr1  1  0.73227724  0.55728253  0.13537613  1
  Pr  Pr2  1  0.77289215  0.96361733  0.86678285  1
  Pr  Pr3  1  0.22543822  0.99270226  0.12731211  1
  Mn  Mn4  1  0.29024714  0.57344675  0.60474872  1
  Mn  Mn5  1  0.70857934  0.50800618  0.39601340  1
  Mn  Mn6  1  0.00445926  0.91215055  0.00157154  1
  Mn  Mn7  1  0.79398104  0.03253333  0.60130365  1
  Mn  Mn8  1  0.18684956  0.97901676  0.40211442  1
  Mn  Mn9  1  0.52341927  0.52423580  0.03168187  1
  Sb  Sb10  1  0.89724627  0.00565818  0.45637405  1
  Sb  Sb11  1  0.11355284  0.98710075  0.55725390  1
  Sb  Sb12  1  0.03401028  0.50416747  0.80830622  1
  Sb  Sb13  1  0.96285215  0.48691900  0.19302405  1
  Sb  Sb14  1  0.40101968  0.50272831  0.46114791  1
  Sb  Sb15  1  0.61566225  0.44037207  0.55628453  1
  Sb  Sb16  1  0.52845413  0.97660719  0.81574805  1
  Sb  Sb17  1  0.46811956  0.02820870  0.19340296  1
  S  S18  1  0.95410864  0.95553911  0.82807518  1
  S  S19  1  0.07117673  0.00134018  0.21913734  1
  S  S20  1  0.42284413  0.96876028  0.00015824  1
  S  S21  1  0.59647230  0.05006882  0.03190898  1
  S  S22  1  0.18802665  0.98513570  0.91116841  1
  S  S23  1  0.84093350  0.99561992  0.11977350  1
  S  S24  1  0.10187022  0.48525163  0.66643744  1
  S  S25  1  0.88549863  0.50906385  0.33900320  1
  S  S26  1  0.74380315  0.94619031  0.32366649  1
  S  S27  1  0.27789890  0.06396277  0.69140764  1
  S  S28  1  0.15931956  0.48375969  0.44359437  1
  S  S29  1  0.83862249  0.48132317  0.55513334  1
  S  S30  1  0.44951415  0.50761283  0.83766950  1
  S  S31  1  0.59097208  0.53559222  0.22351151  1
  S  S32  1  0.91522167  0.50412538  0.99403130  1
  S  S33  1  0.08355068  0.50468047  0.00228324  1
  S  S34  1  0.68132769  0.46582203  0.90018799  1
  S  S35  1  0.35302106  0.47310455  0.11426299  1
  S  S36  1  0.60158500  0.95146003  0.65878626  1
  S  S37  1  0.41283388  0.97123267  0.35403781  1
  S  S38  1  0.24907396  0.50267472  0.28883028  1
  S  S39  1  0.77135650  0.50650241  0.68225126  1
  S  S40  1  0.67357755  0.95738179  0.44027447  1
  S  S41  1  0.32607715  0.03181627  0.54885855  1
