# generated using pymatgen
data_Pr2Mn3(SbS3)4
_symmetry_space_group_name_H-M   'P 1'
_cell_length_a   20.02960800
_cell_length_b   3.90410600
_cell_length_c   14.95364829
_cell_angle_alpha   90.00000000
_cell_angle_beta   126.33350609
_cell_angle_gamma   90.00000000
_symmetry_Int_Tables_number   1
_chemical_formula_structural   Pr2Mn3(SbS3)4
_chemical_formula_sum   'Pr4 Mn6 Sb8 S24'
_cell_volume   942.00006694
_cell_formula_units_Z   2
loop_
 _symmetry_equiv_pos_site_id
 _symmetry_equiv_pos_as_xyz
  1  'x, y, z'
loop_
 _atom_site_type_symbol
 _atom_site_label
 _atom_site_symmetry_multiplicity
 _atom_site_fract_x
 _atom_site_fract_y
 _atom_site_fract_z
 _atom_site_occupancy
  Pr  Pr0  1  0.26835875  0.44250140  0.86510923  1
  Pr  Pr1  1  0.73236469  0.55743126  0.13553610  1
  Pr  Pr2  1  0.77296202  0.96401386  0.86689718  1
  Pr  Pr3  1  0.22546367  0.99360868  0.12720775  1
  Mn  Mn4  1  0.29012206  0.57321647  0.60418842  1
  Mn  Mn5  1  0.70865639  0.50739030  0.39631346  1
  Mn  Mn6  1  0.00455815  0.91324050  0.00143980  1
  Mn  Mn7  1  0.79414779  0.03073159  0.60125988  1
  Mn  Mn8  1  0.18641224  0.97951852  0.40148291  1
  Mn  Mn9  1  0.52328162  0.52448170  0.03158938  1
  Sb  Sb10  1  0.89730825  0.00581059  0.45670221  1
  Sb  Sb11  1  0.11347158  0.98666137  0.55716634  1
  Sb  Sb12  1  0.03404312  0.50362668  0.80830757  1
  Sb  Sb13  1  0.96277999  0.48728031  0.19301406  1
  Sb  Sb14  1  0.40096740  0.50199873  0.46122999  1
  Sb  Sb15  1  0.61561786  0.44025975  0.55624534  1
  Sb  Sb16  1  0.52854571  0.97601076  0.81585311  1
  Sb  Sb17  1  0.46804080  0.02856223  0.19335391  1
  S  S18  1  0.95406736  0.95531003  0.82813071  1
  S  S19  1  0.07112251  0.00186055  0.21906028  1
  S  S20  1  0.42312838  0.96897795  0.00027796  1
  S  S21  1  0.59683081  0.05068347  0.03218826  1
  S  S22  1  0.18816263  0.98396512  0.91162337  1
  S  S23  1  0.84100091  0.99617318  0.11953414  1
  S  S24  1  0.10161789  0.48277029  0.66661074  1
  S  S25  1  0.88557665  0.50930899  0.33895575  1
  S  S26  1  0.74343037  0.94762086  0.32292776  1
  S  S27  1  0.27771394  0.06274140  0.69090468  1
  S  S28  1  0.15929568  0.48380816  0.44358990  1
  S  S29  1  0.83849796  0.47978171  0.55481421  1
  S  S30  1  0.44939126  0.50847808  0.83777985  1
  S  S31  1  0.59042761  0.53645118  0.22302812  1
  S  S32  1  0.91556856  0.50525783  0.99443049  1
  S  S33  1  0.08358990  0.50442210  0.00216629  1
  S  S34  1  0.68110115  0.46646239  0.90022465  1
  S  S35  1  0.35287180  0.47329862  0.11450139  1
  S  S36  1  0.60166575  0.95280556  0.65856704  1
  S  S37  1  0.41238282  0.96944684  0.35323932  1
  S  S38  1  0.24906682  0.50245017  0.28916301  1
  S  S39  1  0.77159012  0.50790277  0.68196117  1
  S  S40  1  0.67352307  0.95702473  0.44056531  1
  S  S41  1  0.32631294  0.03241056  0.54900534  1
