# generated using pymatgen
data_Pr2Mn3(SbS3)4
_symmetry_space_group_name_H-M   'P 1'
_cell_length_a   20.02960800
_cell_length_b   3.90410600
_cell_length_c   14.95364829
_cell_angle_alpha   90.00000000
_cell_angle_beta   126.33350609
_cell_angle_gamma   90.00000000
_symmetry_Int_Tables_number   1
_chemical_formula_structural   Pr2Mn3(SbS3)4
_chemical_formula_sum   'Pr4 Mn6 Sb8 S24'
_cell_volume   942.00006694
_cell_formula_units_Z   2
loop_
 _symmetry_equiv_pos_site_id
 _symmetry_equiv_pos_as_xyz
  1  'x, y, z'
loop_
 _atom_site_type_symbol
 _atom_site_label
 _atom_site_symmetry_multiplicity
 _atom_site_fract_x
 _atom_site_fract_y
 _atom_site_fract_z
 _atom_site_occupancy
  Pr  Pr0  1  0.26827561  0.44278564  0.86505697  1
  Pr  Pr1  1  0.73234389  0.55780947  0.13559258  1
  Pr  Pr2  1  0.77302008  0.96460780  0.86706033  1
  Pr  Pr3  1  0.22544892  0.99435525  0.12708946  1
  Mn  Mn4  1  0.28995821  0.57297349  0.60358157  1
  Mn  Mn5  1  0.70870686  0.50653908  0.39657431  1
  Mn  Mn6  1  0.00449802  0.91390311  0.00116436  1
  Mn  Mn7  1  0.79421310  0.02936727  0.60120739  1
  Mn  Mn8  1  0.18604466  0.98004679  0.40098401  1
  Mn  Mn9  1  0.52316191  0.52477382  0.03141287  1
  Sb  Sb10  1  0.89740515  0.00626097  0.45703428  1
  Sb  Sb11  1  0.11347429  0.98613677  0.55713372  1
  Sb  Sb12  1  0.03411766  0.50325404  0.80830162  1
  Sb  Sb13  1  0.96272876  0.48758302  0.19299209  1
  Sb  Sb14  1  0.40083544  0.50096367  0.46124437  1
  Sb  Sb15  1  0.61561899  0.44005405  0.55624086  1
  Sb  Sb16  1  0.52865287  0.97560463  0.81595002  1
  Sb  Sb17  1  0.46812175  0.02877160  0.19340270  1
  S  S18  1  0.95398608  0.95470288  0.82820757  1
  S  S19  1  0.07091050  0.00264612  0.21889599  1
  S  S20  1  0.42337247  0.96964166  0.00032259  1
  S  S21  1  0.59707067  0.05145235  0.03227204  1
  S  S22  1  0.18836704  0.98333577  0.91198999  1
  S  S23  1  0.84098575  0.99638120  0.11922645  1
  S  S24  1  0.10136754  0.48111367  0.66670765  1
  S  S25  1  0.88549882  0.50920140  0.33880101  1
  S  S26  1  0.74307568  0.94852758  0.32232179  1
  S  S27  1  0.27740887  0.06204823  0.69028697  1
  S  S28  1  0.15921301  0.48389467  0.44349204  1
  S  S29  1  0.83838277  0.47802392  0.55447106  1
  S  S30  1  0.44939722  0.50872350  0.83786751  1
  S  S31  1  0.58998905  0.53756510  0.22260294  1
  S  S32  1  0.91603099  0.50606205  0.99499864  1
  S  S33  1  0.08362375  0.50447977  0.00209475  1
  S  S34  1  0.68080548  0.46758530  0.90018013  1
  S  S35  1  0.35279067  0.47351214  0.11466008  1
  S  S36  1  0.60174292  0.95460160  0.65833490  1
  S  S37  1  0.41189970  0.96818453  0.35260418  1
  S  S38  1  0.24904311  0.50210706  0.28933814  1
  S  S39  1  0.77171481  0.50922000  0.68185598  1
  S  S40  1  0.67340669  0.95680453  0.44067649  1
  S  S41  1  0.32661301  0.03331671  0.54923165  1
