# generated using pymatgen
data_Pr2Mn3(SbS3)4
_symmetry_space_group_name_H-M   'P 1'
_cell_length_a   20.02960800
_cell_length_b   3.90410600
_cell_length_c   14.95364829
_cell_angle_alpha   90.00000000
_cell_angle_beta   126.33350609
_cell_angle_gamma   90.00000000
_symmetry_Int_Tables_number   1
_chemical_formula_structural   Pr2Mn3(SbS3)4
_chemical_formula_sum   'Pr4 Mn6 Sb8 S24'
_cell_volume   942.00006694
_cell_formula_units_Z   2
loop_
 _symmetry_equiv_pos_site_id
 _symmetry_equiv_pos_as_xyz
  1  'x, y, z'
loop_
 _atom_site_type_symbol
 _atom_site_label
 _atom_site_symmetry_multiplicity
 _atom_site_fract_x
 _atom_site_fract_y
 _atom_site_fract_z
 _atom_site_occupancy
  Pr  Pr0  1  0.26816599  0.44291704  0.86501611  1
  Pr  Pr1  1  0.73228131  0.55813665  0.13565718  1
  Pr  Pr2  1  0.77311441  0.96525962  0.86725168  1
  Pr  Pr3  1  0.22538087  0.99505165  0.12695239  1
  Mn  Mn4  1  0.28977103  0.57300570  0.60297953  1
  Mn  Mn5  1  0.70879107  0.50515536  0.39683390  1
  Mn  Mn6  1  0.00454472  0.91429871  0.00103353  1
  Mn  Mn7  1  0.79423644  0.02791115  0.60122356  1
  Mn  Mn8  1  0.18576637  0.98014796  0.40058469  1
  Mn  Mn9  1  0.52305703  0.52519092  0.03122223  1
  Sb  Sb10  1  0.89744425  0.00690692  0.45721040  1
  Sb  Sb11  1  0.11346793  0.98577365  0.55703242  1
  Sb  Sb12  1  0.03423471  0.50278052  0.80842312  1
  Sb  Sb13  1  0.96274036  0.48794275  0.19297706  1
  Sb  Sb14  1  0.40066038  0.49991188  0.46123406  1
  Sb  Sb15  1  0.61566391  0.43980333  0.55620791  1
  Sb  Sb16  1  0.52876792  0.97552592  0.81603685  1
  Sb  Sb17  1  0.46820273  0.02922511  0.19347756  1
  S  S18  1  0.95389408  0.95393935  0.82824997  1
  S  S19  1  0.07060049  0.00386028  0.21870700  1
  S  S20  1  0.42349696  0.97024356  0.00021818  1
  S  S21  1  0.59740764  0.05175867  0.03235303  1
  S  S22  1  0.18838486  0.98241189  0.91227253  1
  S  S23  1  0.84104761  0.99675819  0.11903792  1
  S  S24  1  0.10122432  0.47954100  0.66693091  1
  S  S25  1  0.88552637  0.50865392  0.33854998  1
  S  S26  1  0.74268773  0.94931776  0.32171780  1
  S  S27  1  0.27705429  0.06141921  0.68992107  1
  S  S28  1  0.15919071  0.48384549  0.44334843  1
  S  S29  1  0.83810928  0.47635680  0.55385235  1
  S  S30  1  0.44941366  0.50905944  0.83805978  1
  S  S31  1  0.58949861  0.53916050  0.22212090  1
  S  S32  1  0.91623348  0.50628836  0.99533858  1
  S  S33  1  0.08358037  0.50415301  0.00205734  1
  S  S34  1  0.68051453  0.46906515  0.90019455  1
  S  S35  1  0.35269618  0.47359593  0.11485600  1
  S  S36  1  0.60177568  0.95578238  0.65798940  1
  S  S37  1  0.41151568  0.96680615  0.35203452  1
  S  S38  1  0.24895637  0.50230756  0.28933029  1
  S  S39  1  0.77178977  0.51000052  0.68182728  1
  S  S40  1  0.67334775  0.95664063  0.44102147  1
  S  S41  1  0.32690457  0.03396230  0.54949578  1
