# generated using pymatgen
data_Pr2Mn3(SbS3)4
_symmetry_space_group_name_H-M   'P 1'
_cell_length_a   20.02960800
_cell_length_b   3.90410600
_cell_length_c   14.95364829
_cell_angle_alpha   90.00000000
_cell_angle_beta   126.33350609
_cell_angle_gamma   90.00000000
_symmetry_Int_Tables_number   1
_chemical_formula_structural   Pr2Mn3(SbS3)4
_chemical_formula_sum   'Pr4 Mn6 Sb8 S24'
_cell_volume   942.00006694
_cell_formula_units_Z   2
loop_
 _symmetry_equiv_pos_site_id
 _symmetry_equiv_pos_as_xyz
  1  'x, y, z'
loop_
 _atom_site_type_symbol
 _atom_site_label
 _atom_site_symmetry_multiplicity
 _atom_site_fract_x
 _atom_site_fract_y
 _atom_site_fract_z
 _atom_site_occupancy
  Pr  Pr0  1  0.26814138  0.44313678  0.86492991  1
  Pr  Pr1  1  0.73226786  0.55825901  0.13571574  1
  Pr  Pr2  1  0.77317077  0.96587553  0.86744388  1
  Pr  Pr3  1  0.22533054  0.99564332  0.12687229  1
  Mn  Mn4  1  0.28979056  0.57276678  0.60245770  1
  Mn  Mn5  1  0.70880043  0.50326836  0.39707443  1
  Mn  Mn6  1  0.00446861  0.91449531  0.00086992  1
  Mn  Mn7  1  0.79429096  0.02638056  0.60118175  1
  Mn  Mn8  1  0.18544191  0.97979945  0.40007895  1
  Mn  Mn9  1  0.52303550  0.52590461  0.03111940  1
  Sb  Sb10  1  0.89757138  0.00719950  0.45736997  1
  Sb  Sb11  1  0.11340535  0.98521453  0.55686720  1
  Sb  Sb12  1  0.03437014  0.50255968  0.80856832  1
  Sb  Sb13  1  0.96271166  0.48832198  0.19296558  1
  Sb  Sb14  1  0.40049497  0.49916551  0.46115847  1
  Sb  Sb15  1  0.61577926  0.43952657  0.55628570  1
  Sb  Sb16  1  0.52886580  0.97561848  0.81609413  1
  Sb  Sb17  1  0.46835869  0.02970396  0.19356069  1
  S  S18  1  0.95370157  0.95431727  0.82796739  1
  S  S19  1  0.07021110  0.00545959  0.21847578  1
  S  S20  1  0.42371991  0.97110874  0.00009425  1
  S  S21  1  0.59767982  0.05198273  0.03249742  1
  S  S22  1  0.18838835  0.98155891  0.91267462  1
  S  S23  1  0.84115083  0.99693120  0.11887508  1
  S  S24  1  0.10105932  0.47805168  0.66704926  1
  S  S25  1  0.88553052  0.50746405  0.33845263  1
  S  S26  1  0.74235657  0.95054449  0.32112917  1
  S  S27  1  0.27659886  0.06082812  0.68937678  1
  S  S28  1  0.15918514  0.48396878  0.44334528  1
  S  S29  1  0.83774692  0.47500508  0.55307356  1
  S  S30  1  0.44951425  0.50937548  0.83835036  1
  S  S31  1  0.58895647  0.54010212  0.22159573  1
  S  S32  1  0.91640905  0.50583161  0.99565655  1
  S  S33  1  0.08346544  0.50327302  0.00203857  1
  S  S34  1  0.68017411  0.46990330  0.89996571  1
  S  S35  1  0.35257777  0.47385478  0.11506263  1
  S  S36  1  0.60185980  0.95682641  0.65774435  1
  S  S37  1  0.41107529  0.96606247  0.35143909  1
  S  S38  1  0.24895291  0.50264066  0.28963760  1
  S  S39  1  0.77172945  0.51109236  0.68173335  1
  S  S40  1  0.67328003  0.95686387  0.44143637  1
  S  S41  1  0.32703002  0.03441977  0.54966709  1
