# generated using pymatgen
data_Pr2Mn3(SbS3)4
_symmetry_space_group_name_H-M   'P 1'
_cell_length_a   20.02960800
_cell_length_b   3.90410600
_cell_length_c   14.95364829
_cell_angle_alpha   90.00000000
_cell_angle_beta   126.33350609
_cell_angle_gamma   90.00000000
_symmetry_Int_Tables_number   1
_chemical_formula_structural   Pr2Mn3(SbS3)4
_chemical_formula_sum   'Pr4 Mn6 Sb8 S24'
_cell_volume   942.00006694
_cell_formula_units_Z   2
loop_
 _symmetry_equiv_pos_site_id
 _symmetry_equiv_pos_as_xyz
  1  'x, y, z'
loop_
 _atom_site_type_symbol
 _atom_site_label
 _atom_site_symmetry_multiplicity
 _atom_site_fract_x
 _atom_site_fract_y
 _atom_site_fract_z
 _atom_site_occupancy
  Pr  Pr0  1  0.26814387  0.44359731  0.86484344  1
  Pr  Pr1  1  0.73219691  0.55844633  0.13578535  1
  Pr  Pr2  1  0.77316605  0.96632016  0.86754065  1
  Pr  Pr3  1  0.22528135  0.99632525  0.12677850  1
  Mn  Mn4  1  0.28971506  0.57243818  0.60194361  1
  Mn  Mn5  1  0.70893320  0.50144763  0.39737033  1
  Mn  Mn6  1  0.00443640  0.91461795  0.00078201  1
  Mn  Mn7  1  0.79435405  0.02508558  0.60110405  1
  Mn  Mn8  1  0.18518361  0.97892681  0.39966036  1
  Mn  Mn9  1  0.52309182  0.52598789  0.03098461  1
  Sb  Sb10  1  0.89769930  0.00764616  0.45755169  1
  Sb  Sb11  1  0.11341931  0.98479693  0.55674227  1
  Sb  Sb12  1  0.03452053  0.50247975  0.80863648  1
  Sb  Sb13  1  0.96259302  0.48869426  0.19287591  1
  Sb  Sb14  1  0.40040526  0.49850613  0.46104779  1
  Sb  Sb15  1  0.61583458  0.43951061  0.55634340  1
  Sb  Sb16  1  0.52894847  0.97605241  0.81622624  1
  Sb  Sb17  1  0.46854168  0.03018814  0.19368309  1
  S  S18  1  0.95352380  0.95450025  0.82780616  1
  S  S19  1  0.06983648  0.00674464  0.21820785  1
  S  S20  1  0.42388608  0.97115693  0.99988955  1
  S  S21  1  0.59800129  0.05191165  0.03263213  1
  S  S22  1  0.18838833  0.98082131  0.91307607  1
  S  S23  1  0.84111378  0.99677894  0.11869510  1
  S  S24  1  0.10079418  0.47651762  0.66718539  1
  S  S25  1  0.88562609  0.50626319  0.33845915  1
  S  S26  1  0.74203812  0.95090968  0.32084523  1
  S  S27  1  0.27618775  0.06070401  0.68897670  1
  S  S28  1  0.15907474  0.48458993  0.44338372  1
  S  S29  1  0.83738434  0.47316859  0.55230498  1
  S  S30  1  0.44964925  0.50945353  0.83891130  1
  S  S31  1  0.58840594  0.54098185  0.22111548  1
  S  S32  1  0.91672283  0.50533100  0.99591780  1
  S  S33  1  0.08343424  0.50273094  0.00214693  1
  S  S34  1  0.67981872  0.47108419  0.89982651  1
  S  S35  1  0.35243694  0.47482370  0.11526402  1
  S  S36  1  0.60203784  0.95727570  0.65764749  1
  S  S37  1  0.41059644  0.96486588  0.35091108  1
  S  S38  1  0.24893892  0.50289361  0.29013145  1
  S  S39  1  0.77170261  0.51264171  0.68171279  1
  S  S40  1  0.67319022  0.95674974  0.44180754  1
  S  S41  1  0.32702595  0.03533054  0.54970212  1
