# generated using pymatgen
data_Pr2Mn3(SbS3)4
_symmetry_space_group_name_H-M   'P 1'
_cell_length_a   20.02960800
_cell_length_b   3.90410600
_cell_length_c   14.95364829
_cell_angle_alpha   90.00000000
_cell_angle_beta   126.33350609
_cell_angle_gamma   90.00000000
_symmetry_Int_Tables_number   1
_chemical_formula_structural   Pr2Mn3(SbS3)4
_chemical_formula_sum   'Pr4 Mn6 Sb8 S24'
_cell_volume   942.00006694
_cell_formula_units_Z   2
loop_
 _symmetry_equiv_pos_site_id
 _symmetry_equiv_pos_as_xyz
  1  'x, y, z'
loop_
 _atom_site_type_symbol
 _atom_site_label
 _atom_site_symmetry_multiplicity
 _atom_site_fract_x
 _atom_site_fract_y
 _atom_site_fract_z
 _atom_site_occupancy
  Pr  Pr0  1  0.26811596  0.44390637  0.86470381  1
  Pr  Pr1  1  0.73209900  0.55853739  0.13579416  1
  Pr  Pr2  1  0.77321378  0.96660570  0.86767145  1
  Pr  Pr3  1  0.22520243  0.99692701  0.12665251  1
  Mn  Mn4  1  0.28962791  0.57208014  0.60157426  1
  Mn  Mn5  1  0.70897533  0.49939079  0.39758828  1
  Mn  Mn6  1  0.00439652  0.91489360  0.00056127  1
  Mn  Mn7  1  0.79434635  0.02360234  0.60111900  1
  Mn  Mn8  1  0.18497034  0.97857083  0.39925292  1
  Mn  Mn9  1  0.52305815  0.52640892  0.03085287  1
  Sb  Sb10  1  0.89771721  0.00787207  0.45761208  1
  Sb  Sb11  1  0.11342678  0.98444037  0.55654950  1
  Sb  Sb12  1  0.03463592  0.50233723  0.80864460  1
  Sb  Sb13  1  0.96246396  0.48947158  0.19282269  1
  Sb  Sb14  1  0.40023511  0.49805274  0.46082360  1
  Sb  Sb15  1  0.61584450  0.43950501  0.55648826  1
  Sb  Sb16  1  0.52899813  0.97605169  0.81631322  1
  Sb  Sb17  1  0.46875918  0.03087726  0.19383861  1
  S  S18  1  0.95317289  0.95490529  0.82722784  1
  S  S19  1  0.06952036  0.00751705  0.21821191  1
  S  S20  1  0.42404638  0.97163963  0.99979377  1
  S  S21  1  0.59829952  0.05173217  0.03259986  1
  S  S22  1  0.18837710  0.98026332  0.91340142  1
  S  S23  1  0.84121789  0.99693900  0.11871613  1
  S  S24  1  0.10067361  0.47491407  0.66730313  1
  S  S25  1  0.88578222  0.50525735  0.33857097  1
  S  S26  1  0.74177670  0.95042118  0.32087432  1
  S  S27  1  0.27581803  0.06048456  0.68871442  1
  S  S28  1  0.15925246  0.48421182  0.44370330  1
  S  S29  1  0.83704425  0.47186242  0.55157578  1
  S  S30  1  0.44966503  0.50968156  0.83933259  1
  S  S31  1  0.58783017  0.54120969  0.22059063  1
  S  S32  1  0.91709136  0.50535465  0.99622000  1
  S  S33  1  0.08343022  0.50234362  0.00216902  1
  S  S34  1  0.67957611  0.47186075  0.89979180  1
  S  S35  1  0.35242334  0.47596486  0.11559225  1
  S  S36  1  0.60211414  0.95743452  0.65761555  1
  S  S37  1  0.41019066  0.96333223  0.35043303  1
  S  S38  1  0.24899877  0.50386531  0.29065364  1
  S  S39  1  0.77174426  0.51406238  0.68164001  1
  S  S40  1  0.67329161  0.95653286  0.44227244  1
  S  S41  1  0.32708697  0.03597789  0.54969975  1
