# generated using pymatgen
data_Pr2Mn3(SbS3)4
_symmetry_space_group_name_H-M   'P 1'
_cell_length_a   20.02960800
_cell_length_b   3.90410600
_cell_length_c   14.95364829
_cell_angle_alpha   90.00000000
_cell_angle_beta   126.33350609
_cell_angle_gamma   90.00000000
_symmetry_Int_Tables_number   1
_chemical_formula_structural   Pr2Mn3(SbS3)4
_chemical_formula_sum   'Pr4 Mn6 Sb8 S24'
_cell_volume   942.00006694
_cell_formula_units_Z   2
loop_
 _symmetry_equiv_pos_site_id
 _symmetry_equiv_pos_as_xyz
  1  'x, y, z'
loop_
 _atom_site_type_symbol
 _atom_site_label
 _atom_site_symmetry_multiplicity
 _atom_site_fract_x
 _atom_site_fract_y
 _atom_site_fract_z
 _atom_site_occupancy
  Pr  Pr0  1  0.26805680  0.44374558  0.86456387  1
  Pr  Pr1  1  0.73199084  0.55851687  0.13579323  1
  Pr  Pr2  1  0.77317176  0.96700262  0.86774516  1
  Pr  Pr3  1  0.22514508  0.99744441  0.12648566  1
  Mn  Mn4  1  0.28948182  0.57166569  0.60127945  1
  Mn  Mn5  1  0.70901196  0.49761050  0.39778136  1
  Mn  Mn6  1  0.00439204  0.91538362  0.00036199  1
  Mn  Mn7  1  0.79423569  0.02249913  0.60122585  1
  Mn  Mn8  1  0.18471107  0.97862398  0.39876700  1
  Mn  Mn9  1  0.52299769  0.52708913  0.03078025  1
  Sb  Sb10  1  0.89773683  0.00825287  0.45759435  1
  Sb  Sb11  1  0.11337030  0.98409640  0.55634316  1
  Sb  Sb12  1  0.03471517  0.50213199  0.80856575  1
  Sb  Sb13  1  0.96239778  0.48984740  0.19280884  1
  Sb  Sb14  1  0.40004910  0.49750534  0.46046394  1
  Sb  Sb15  1  0.61587659  0.43962011  0.55664172  1
  Sb  Sb16  1  0.52911229  0.97573409  0.81640503  1
  Sb  Sb17  1  0.46896794  0.03143021  0.19409442  1
  S  S18  1  0.95293300  0.95505677  0.82690073  1
  S  S19  1  0.06914939  0.00847341  0.21818442  1
  S  S20  1  0.42409699  0.97137485  0.99947151  1
  S  S21  1  0.59848254  0.05158565  0.03240254  1
  S  S22  1  0.18850101  0.97954735  0.91386518  1
  S  S23  1  0.84129696  0.99764829  0.11883048  1
  S  S24  1  0.10064321  0.47336779  0.66741724  1
  S  S25  1  0.88572110  0.50410904  0.33842414  1
  S  S26  1  0.74131660  0.95026685  0.32085049  1
  S  S27  1  0.27541215  0.05979636  0.68837357  1
  S  S28  1  0.15947364  0.48346196  0.44409395  1
  S  S29  1  0.83677236  0.47057576  0.55090561  1
  S  S30  1  0.44965573  0.50896800  0.83955903  1
  S  S31  1  0.58724823  0.54160755  0.21997218  1
  S  S32  1  0.91750552  0.50544654  0.99664535  1
  S  S33  1  0.08350915  0.50162657  0.00234367  1
  S  S34  1  0.67926980  0.47275069  0.89970719  1
  S  S35  1  0.35257085  0.47736557  0.11623234  1
  S  S36  1  0.60215237  0.95736101  0.65771151  1
  S  S37  1  0.40991522  0.96195907  0.35012756  1
  S  S38  1  0.24909476  0.50516070  0.29095829  1
  S  S39  1  0.77161523  0.51545854  0.68161090  1
  S  S40  1  0.67330626  0.95659508  0.44249326  1
  S  S41  1  0.32712922  0.03678097  0.54962173  1
