# generated using pymatgen
data_Pr2Mn3(SbS3)4
_symmetry_space_group_name_H-M   'P 1'
_cell_length_a   20.02960800
_cell_length_b   3.90410600
_cell_length_c   14.95364829
_cell_angle_alpha   90.00000000
_cell_angle_beta   126.33350609
_cell_angle_gamma   90.00000000
_symmetry_Int_Tables_number   1
_chemical_formula_structural   Pr2Mn3(SbS3)4
_chemical_formula_sum   'Pr4 Mn6 Sb8 S24'
_cell_volume   942.00006694
_cell_formula_units_Z   2
loop_
 _symmetry_equiv_pos_site_id
 _symmetry_equiv_pos_as_xyz
  1  'x, y, z'
loop_
 _atom_site_type_symbol
 _atom_site_label
 _atom_site_symmetry_multiplicity
 _atom_site_fract_x
 _atom_site_fract_y
 _atom_site_fract_z
 _atom_site_occupancy
  Pr  Pr0  1  0.26959606  0.50486189  0.86913049  1
  Pr  Pr1  1  0.73436075  0.51345424  0.13502278  1
  Pr  Pr2  1  0.76440067  0.03079583  0.86796577  1
  Pr  Pr3  1  0.22957439  0.98182169  0.13046162  1
  Mn  Mn4  1  0.30052481  0.46219429  0.60886903  1
  Mn  Mn5  1  0.68518122  0.46835956  0.36479438  1
  Mn  Mn6  1  0.00229159  0.99025342  0.00976934  1
  Mn  Mn7  1  0.79258018  0.02779263  0.61405765  1
  Mn  Mn8  1  0.19536606  0.00496867  0.36681522  1
  Mn  Mn9  1  0.48211895  0.47233040  0.98240721  1
  Sb  Sb10  1  0.89024111  0.98529166  0.44836971  1
  Sb  Sb11  1  0.11120178  0.98095150  0.54706016  1
  Sb  Sb12  1  0.03598653  0.52794504  0.82246375  1
  Sb  Sb13  1  0.96805539  0.48997196  0.19146142  1
  Sb  Sb14  1  0.39568534  0.49914257  0.45172946  1
  Sb  Sb15  1  0.61126187  0.48093878  0.54793336  1
  Sb  Sb16  1  0.53068596  0.97045822  0.80533677  1
  Sb  Sb17  1  0.46574438  0.02297298  0.18676434  1
  S  S18  1  0.94076013  0.02137319  0.80859836  1
  S  S19  1  0.06647971  0.00575940  0.20730239  1
  S  S20  1  0.41819640  0.97524302  0.97990914  1
  S  S21  1  0.58683944  0.02447815  0.01308903  1
  S  S22  1  0.16299598  0.03439731  0.89942940  1
  S  S23  1  0.82616841  0.00061953  0.10470633  1
  S  S24  1  0.08615824  0.49789989  0.63811552  1
  S  S25  1  0.91521311  0.48265412  0.35311607  1
  S  S26  1  0.73415723  0.01388124  0.29425336  1
  S  S27  1  0.25968135  0.01378884  0.70600851  1
  S  S28  1  0.16878649  0.52064239  0.43757503  1
  S  S29  1  0.80943518  0.51589661  0.53887433  1
  S  S30  1  0.43318747  0.47900405  0.80202923  1
  S  S31  1  0.55372914  0.50516873  0.18142901  1
  S  S32  1  0.92397877  0.50943275  0.99042149  1
  S  S33  1  0.09171478  0.49647628  0.02757873  1
  S  S34  1  0.66774214  0.55829428  0.89690609  1
  S  S35  1  0.32862505  0.46262667  0.09683252  1
  S  S36  1  0.58831442  0.99970999  0.64788364  1
  S  S37  1  0.39554822  0.98450008  0.33381515  1
  S  S38  1  0.24687237  0.47604201  0.31694167  1
  S  S39  1  0.76356396  0.51095238  0.69175042  1
  S  S40  1  0.65926759  0.98130629  0.43854781  1
  S  S41  1  0.32937111  0.98171000  0.55171490  1
