# generated using pymatgen
data_Pr2Mn3(SbS3)4
_symmetry_space_group_name_H-M   'P 1'
_cell_length_a   20.02960800
_cell_length_b   3.90410600
_cell_length_c   14.95364829
_cell_angle_alpha   90.00000000
_cell_angle_beta   126.33350609
_cell_angle_gamma   90.00000000
_symmetry_Int_Tables_number   1
_chemical_formula_structural   Pr2Mn3(SbS3)4
_chemical_formula_sum   'Pr4 Mn6 Sb8 S24'
_cell_volume   942.00006694
_cell_formula_units_Z   2
loop_
 _symmetry_equiv_pos_site_id
 _symmetry_equiv_pos_as_xyz
  1  'x, y, z'
loop_
 _atom_site_type_symbol
 _atom_site_label
 _atom_site_symmetry_multiplicity
 _atom_site_fract_x
 _atom_site_fract_y
 _atom_site_fract_z
 _atom_site_occupancy
  Pr  Pr0  1  0.26803963  0.44363380  0.86449737  1
  Pr  Pr1  1  0.73190799  0.55869807  0.13584157  1
  Pr  Pr2  1  0.77326710  0.96728434  0.86789521  1
  Pr  Pr3  1  0.22509510  0.99789564  0.12624561  1
  Mn  Mn4  1  0.28941150  0.57091352  0.60106387  1
  Mn  Mn5  1  0.70902409  0.49572319  0.39801197  1
  Mn  Mn6  1  0.00446759  0.91602998  0.00014493  1
  Mn  Mn7  1  0.79416229  0.02096867  0.60133816  1
  Mn  Mn8  1  0.18455324  0.97896898  0.39835958  1
  Mn  Mn9  1  0.52315483  0.52796251  0.03077430  1
  Sb  Sb10  1  0.89771147  0.00866839  0.45759018  1
  Sb  Sb11  1  0.11335519  0.98383931  0.55627964  1
  Sb  Sb12  1  0.03473015  0.50174538  0.80844014  1
  Sb  Sb13  1  0.96233463  0.49031432  0.19282660  1
  Sb  Sb14  1  0.39990741  0.49678566  0.46017087  1
  Sb  Sb15  1  0.61586908  0.43942102  0.55676388  1
  Sb  Sb16  1  0.52917146  0.97527709  0.81639005  1
  Sb  Sb17  1  0.46921313  0.03188250  0.19433214  1
  S  S18  1  0.95264785  0.95530081  0.82650590  1
  S  S19  1  0.06888027  0.00890196  0.21816866  1
  S  S20  1  0.42415988  0.97086607  0.99927153  1
  S  S21  1  0.59848264  0.05173801  0.03210258  1
  S  S22  1  0.18873548  0.97830420  0.91429646  1
  S  S23  1  0.84126092  0.99852618  0.11884785  1
  S  S24  1  0.10048584  0.47221055  0.66729666  1
  S  S25  1  0.88549144  0.50263846  0.33799362  1
  S  S26  1  0.74088567  0.94996960  0.32073614  1
  S  S27  1  0.27504457  0.05911145  0.68811057  1
  S  S28  1  0.15958150  0.48321007  0.44438381  1
  S  S29  1  0.83643849  0.46877952  0.55027816  1
  S  S30  1  0.44954047  0.50778526  0.83968790  1
  S  S31  1  0.58664582  0.54200347  0.21934496  1
  S  S32  1  0.91777011  0.50567501  0.99682699  1
  S  S33  1  0.08352767  0.50174255  0.00267343  1
  S  S34  1  0.67898332  0.47385085  0.89961030  1
  S  S35  1  0.35260218  0.47777362  0.11665139  1
  S  S36  1  0.60223661  0.95745129  0.65799343  1
  S  S37  1  0.40965573  0.96050916  0.34979379  1
  S  S38  1  0.24919387  0.50633323  0.29127922  1
  S  S39  1  0.77129100  0.51652271  0.68157618  1
  S  S40  1  0.67343698  0.95609609  0.44287438  1
  S  S41  1  0.32716252  0.03766654  0.54964065  1
