# generated using pymatgen
data_Pr2Mn3(SbS3)4
_symmetry_space_group_name_H-M   'P 1'
_cell_length_a   20.02960800
_cell_length_b   3.90410600
_cell_length_c   14.95364829
_cell_angle_alpha   90.00000000
_cell_angle_beta   126.33350609
_cell_angle_gamma   90.00000000
_symmetry_Int_Tables_number   1
_chemical_formula_structural   Pr2Mn3(SbS3)4
_chemical_formula_sum   'Pr4 Mn6 Sb8 S24'
_cell_volume   942.00006694
_cell_formula_units_Z   2
loop_
 _symmetry_equiv_pos_site_id
 _symmetry_equiv_pos_as_xyz
  1  'x, y, z'
loop_
 _atom_site_type_symbol
 _atom_site_label
 _atom_site_symmetry_multiplicity
 _atom_site_fract_x
 _atom_site_fract_y
 _atom_site_fract_z
 _atom_site_occupancy
  Pr  Pr0  1  0.26797100  0.44353587  0.86434349  1
  Pr  Pr1  1  0.73184091  0.55891773  0.13592322  1
  Pr  Pr2  1  0.77338721  0.96768305  0.86795820  1
  Pr  Pr3  1  0.22507358  0.99844675  0.12608480  1
  Mn  Mn4  1  0.28942321  0.57046094  0.60096418  1
  Mn  Mn5  1  0.70904804  0.49361876  0.39820310  1
  Mn  Mn6  1  0.00455839  0.91635770  0.00002204  1
  Mn  Mn7  1  0.79402298  0.01997227  0.60144243  1
  Mn  Mn8  1  0.18437985  0.97896093  0.39799898  1
  Mn  Mn9  1  0.52319585  0.52902000  0.03056854  1
  Sb  Sb10  1  0.89766627  0.00899403  0.45759582  1
  Sb  Sb11  1  0.11336666  0.98350121  0.55630362  1
  Sb  Sb12  1  0.03477703  0.50115065  0.80838489  1
  Sb  Sb13  1  0.96225722  0.49046805  0.19282733  1
  Sb  Sb14  1  0.39979402  0.49620440  0.45988946  1
  Sb  Sb15  1  0.61586841  0.43932864  0.55683499  1
  Sb  Sb16  1  0.52922735  0.97508041  0.81636154  1
  Sb  Sb17  1  0.46944078  0.03223306  0.19459156  1
  S  S18  1  0.95249730  0.95534660  0.82616319  1
  S  S19  1  0.06853792  0.00885805  0.21813082  1
  S  S20  1  0.42428618  0.97021801  0.99929141  1
  S  S21  1  0.59828181  0.05158202  0.03169569  1
  S  S22  1  0.18893671  0.97772235  0.91466109  1
  S  S23  1  0.84132233  0.99984289  0.11906549  1
  S  S24  1  0.10035695  0.47138434  0.66714392  1
  S  S25  1  0.88536328  0.50137811  0.33740253  1
  S  S26  1  0.74049857  0.94990000  0.32059209  1
  S  S27  1  0.27460605  0.05791377  0.68759375  1
  S  S28  1  0.15962813  0.48272777  0.44467835  1
  S  S29  1  0.83599143  0.46741315  0.54954752  1
  S  S30  1  0.44941220  0.50637792  0.83977910  1
  S  S31  1  0.58600093  0.54281493  0.21876679  1
  S  S32  1  0.91804017  0.50620834  0.99705507  1
  S  S33  1  0.08355274  0.50187788  0.00304376  1
  S  S34  1  0.67876107  0.47549625  0.89959378  1
  S  S35  1  0.35264552  0.47813964  0.11701686  1
  S  S36  1  0.60218863  0.95716408  0.65802799  1
  S  S37  1  0.40937944  0.95946511  0.34936356  1
  S  S38  1  0.24920074  0.50822330  0.29144223  1
  S  S39  1  0.77096499  0.51763609  0.68162475  1
  S  S40  1  0.67359306  0.95542598  0.44318195  1
  S  S41  1  0.32705478  0.03885203  0.54948572  1
