# generated using pymatgen
data_Pr2Mn3(SbS3)4
_symmetry_space_group_name_H-M   'P 1'
_cell_length_a   20.02960800
_cell_length_b   3.90410600
_cell_length_c   14.95364829
_cell_angle_alpha   90.00000000
_cell_angle_beta   126.33350609
_cell_angle_gamma   90.00000000
_symmetry_Int_Tables_number   1
_chemical_formula_structural   Pr2Mn3(SbS3)4
_chemical_formula_sum   'Pr4 Mn6 Sb8 S24'
_cell_volume   942.00006694
_cell_formula_units_Z   2
loop_
 _symmetry_equiv_pos_site_id
 _symmetry_equiv_pos_as_xyz
  1  'x, y, z'
loop_
 _atom_site_type_symbol
 _atom_site_label
 _atom_site_symmetry_multiplicity
 _atom_site_fract_x
 _atom_site_fract_y
 _atom_site_fract_z
 _atom_site_occupancy
  Pr  Pr0  1  0.26799953  0.44330713  0.86426201  1
  Pr  Pr1  1  0.73177430  0.55877565  0.13600002  1
  Pr  Pr2  1  0.77349510  0.96808181  0.86800132  1
  Pr  Pr3  1  0.22504583  0.99908204  0.12589466  1
  Mn  Mn4  1  0.28946724  0.57040007  0.60073421  1
  Mn  Mn5  1  0.70913610  0.49125709  0.39833834  1
  Mn  Mn6  1  0.00461285  0.91697216  0.99995481  1
  Mn  Mn7  1  0.79390728  0.01937132  0.60151600  1
  Mn  Mn8  1  0.18422326  0.97933325  0.39766777  1
  Mn  Mn9  1  0.52326816  0.52988105  0.03038293  1
  Sb  Sb10  1  0.89759849  0.00938828  0.45758349  1
  Sb  Sb11  1  0.11333798  0.98300295  0.55616265  1
  Sb  Sb12  1  0.03488270  0.50103109  0.80843775  1
  Sb  Sb13  1  0.96227615  0.49053302  0.19294874  1
  Sb  Sb14  1  0.39968614  0.49555790  0.45969622  1
  Sb  Sb15  1  0.61588205  0.43892919  0.55700616  1
  Sb  Sb16  1  0.52917800  0.97457901  0.81629675  1
  Sb  Sb17  1  0.46960819  0.03256827  0.19475135  1
  S  S18  1  0.95259306  0.95571771  0.82614417  1
  S  S19  1  0.06822922  0.00858449  0.21809496  1
  S  S20  1  0.42434960  0.96983026  0.99922312  1
  S  S21  1  0.59824165  0.05222031  0.03147651  1
  S  S22  1  0.18899241  0.97776581  0.91484635  1
  S  S23  1  0.84137505  0.00110233  0.11925552  1
  S  S24  1  0.10028923  0.47086493  0.66712767  1
  S  S25  1  0.88520249  0.50091057  0.33673827  1
  S  S26  1  0.74002247  0.94982568  0.32038025  1
  S  S27  1  0.27439952  0.05666208  0.68748065  1
  S  S28  1  0.15959276  0.48203846  0.44501743  1
  S  S29  1  0.83553706  0.46647699  0.54867321  1
  S  S30  1  0.44929590  0.50500855  0.83985118  1
  S  S31  1  0.58542579  0.54342206  0.21818597  1
  S  S32  1  0.91840741  0.50644971  0.99728325  1
  S  S33  1  0.08344821  0.50146182  0.00329990  1
  S  S34  1  0.67858663  0.47632092  0.89946843  1
  S  S35  1  0.35276899  0.47804705  0.11736707  1
  S  S36  1  0.60216097  0.95647333  0.65811978  1
  S  S37  1  0.40915805  0.95839573  0.34880915  1
  S  S38  1  0.24927147  0.50917189  0.29176951  1
  S  S39  1  0.77074182  0.51876042  0.68178704  1
  S  S40  1  0.67352315  0.95507499  0.44337591  1
  S  S41  1  0.32678651  0.03992779  0.54911401  1
