# generated using pymatgen
data_Pr2Mn3(SbS3)4
_symmetry_space_group_name_H-M   'P 1'
_cell_length_a   20.02960800
_cell_length_b   3.90410600
_cell_length_c   14.95364829
_cell_angle_alpha   90.00000000
_cell_angle_beta   126.33350609
_cell_angle_gamma   90.00000000
_symmetry_Int_Tables_number   1
_chemical_formula_structural   Pr2Mn3(SbS3)4
_chemical_formula_sum   'Pr4 Mn6 Sb8 S24'
_cell_volume   942.00006694
_cell_formula_units_Z   2
loop_
 _symmetry_equiv_pos_site_id
 _symmetry_equiv_pos_as_xyz
  1  'x, y, z'
loop_
 _atom_site_type_symbol
 _atom_site_label
 _atom_site_symmetry_multiplicity
 _atom_site_fract_x
 _atom_site_fract_y
 _atom_site_fract_z
 _atom_site_occupancy
  Pr  Pr0  1  0.26803021  0.44336063  0.86420030  1
  Pr  Pr1  1  0.73175809  0.55833537  0.13613243  1
  Pr  Pr2  1  0.77352679  0.96884806  0.86800065  1
  Pr  Pr3  1  0.22505902  0.99967426  0.12577007  1
  Mn  Mn4  1  0.28942440  0.57034328  0.60060557  1
  Mn  Mn5  1  0.70910351  0.48911820  0.39832762  1
  Mn  Mn6  1  0.00473447  0.91746989  0.99995651  1
  Mn  Mn7  1  0.79395199  0.01864699  0.60176350  1
  Mn  Mn8  1  0.18409218  0.97962157  0.39729969  1
  Mn  Mn9  1  0.52345735  0.53066894  0.03016882  1
  Sb  Sb10  1  0.89747232  0.00925457  0.45751510  1
  Sb  Sb11  1  0.11338366  0.98224236  0.55610121  1
  Sb  Sb12  1  0.03498114  0.50079695  0.80849015  1
  Sb  Sb13  1  0.96236564  0.49063580  0.19305915  1
  Sb  Sb14  1  0.39959750  0.49494882  0.45952962  1
  Sb  Sb15  1  0.61596141  0.43851568  0.55724487  1
  Sb  Sb16  1  0.52905528  0.97421266  0.81612553  1
  Sb  Sb17  1  0.46973219  0.03329929  0.19489144  1
  S  S18  1  0.95275301  0.95592691  0.82615991  1
  S  S19  1  0.06794273  0.00764065  0.21802970  1
  S  S20  1  0.42448039  0.96924416  0.99910173  1
  S  S21  1  0.59816606  0.05254317  0.03124997  1
  S  S22  1  0.18904607  0.97735416  0.91490589  1
  S  S23  1  0.84145103  0.00265456  0.11933766  1
  S  S24  1  0.10031271  0.46982914  0.66712974  1
  S  S25  1  0.88498693  0.50032339  0.33616447  1
  S  S26  1  0.73945056  0.95017847  0.32003294  1
  S  S27  1  0.27417804  0.05608706  0.68740748  1
  S  S28  1  0.15960641  0.48083905  0.44540995  1
  S  S29  1  0.83513027  0.46579551  0.54804153  1
  S  S30  1  0.44907872  0.50371030  0.83984831  1
  S  S31  1  0.58494545  0.54381792  0.21759258  1
  S  S32  1  0.91880608  0.50595830  0.99760146  1
  S  S33  1  0.08330499  0.50132674  0.00354108  1
  S  S34  1  0.67849948  0.47722294  0.89939851  1
  S  S35  1  0.35300395  0.47775940  0.11773202  1
  S  S36  1  0.60204345  0.95554494  0.65817357  1
  S  S37  1  0.40892603  0.95759702  0.34823758  1
  S  S38  1  0.24941064  0.50964821  0.29214483  1
  S  S39  1  0.77035910  0.52000005  0.68172316  1
  S  S40  1  0.67359962  0.95432029  0.44375841  1
  S  S41  1  0.32649565  0.04161225  0.54863827  1
