# generated using pymatgen
data_Pr2Mn3(SbS3)4
_symmetry_space_group_name_H-M   'P 1'
_cell_length_a   20.02960800
_cell_length_b   3.90410600
_cell_length_c   14.95364829
_cell_angle_alpha   90.00000000
_cell_angle_beta   126.33350609
_cell_angle_gamma   90.00000000
_symmetry_Int_Tables_number   1
_chemical_formula_structural   Pr2Mn3(SbS3)4
_chemical_formula_sum   'Pr4 Mn6 Sb8 S24'
_cell_volume   942.00006694
_cell_formula_units_Z   2
loop_
 _symmetry_equiv_pos_site_id
 _symmetry_equiv_pos_as_xyz
  1  'x, y, z'
loop_
 _atom_site_type_symbol
 _atom_site_label
 _atom_site_symmetry_multiplicity
 _atom_site_fract_x
 _atom_site_fract_y
 _atom_site_fract_z
 _atom_site_occupancy
  Pr  Pr0  1  0.26803161  0.44318486  0.86413679  1
  Pr  Pr1  1  0.73169497  0.55764709  0.13621039  1
  Pr  Pr2  1  0.77360780  0.96956175  0.86809444  1
  Pr  Pr3  1  0.22506158  0.00006298  0.12567488  1
  Mn  Mn4  1  0.28933841  0.56990930  0.60042543  1
  Mn  Mn5  1  0.70908385  0.48651144  0.39824923  1
  Mn  Mn6  1  0.00497870  0.91796416  0.00005938  1
  Mn  Mn7  1  0.79406825  0.01784764  0.60207799  1
  Mn  Mn8  1  0.18391561  0.98019950  0.39690519  1
  Mn  Mn9  1  0.52365859  0.53174289  0.03010259  1
  Sb  Sb10  1  0.89733868  0.00889367  0.45743881  1
  Sb  Sb11  1  0.11347828  0.98138257  0.55609904  1
  Sb  Sb12  1  0.03503019  0.50032830  0.80850690  1
  Sb  Sb13  1  0.96244813  0.49083818  0.19309490  1
  Sb  Sb14  1  0.39949967  0.49455607  0.45937580  1
  Sb  Sb15  1  0.61609898  0.43817585  0.55761212  1
  Sb  Sb16  1  0.52894444  0.97360987  0.81603810  1
  Sb  Sb17  1  0.46986211  0.03384405  0.19509408  1
  S  S18  1  0.95289672  0.95576349  0.82609831  1
  S  S19  1  0.06777894  0.00725481  0.21816086  1
  S  S20  1  0.42460933  0.96919395  0.99899831  1
  S  S21  1  0.59795452  0.05211281  0.03088540  1
  S  S22  1  0.18924188  0.97626369  0.91494928  1
  S  S23  1  0.84139083  0.00385906  0.11909087  1
  S  S24  1  0.10026826  0.46923102  0.66703813  1
  S  S25  1  0.88476356  0.49981003  0.33561379  1
  S  S26  1  0.73890132  0.95013926  0.31966175  1
  S  S27  1  0.27397291  0.05549901  0.68736984  1
  S  S28  1  0.15976136  0.47961740  0.44589598  1
  S  S29  1  0.83485729  0.46431185  0.54767485  1
  S  S30  1  0.44896064  0.50305571  0.83997798  1
  S  S31  1  0.58435771  0.54428331  0.21696515  1
  S  S32  1  0.91944822  0.50542632  0.99779120  1
  S  S33  1  0.08317236  0.50102102  0.00378278  1
  S  S34  1  0.67842826  0.47766424  0.89934434  1
  S  S35  1  0.35336104  0.47750077  0.11814677  1
  S  S36  1  0.60178383  0.95495200  0.65802982  1
  S  S37  1  0.40856293  0.95677354  0.34765328  1
  S  S38  1  0.24957901  0.50959585  0.29234200  1
  S  S39  1  0.76982807  0.52208186  0.68157086  1
  S  S40  1  0.67366403  0.95406819  0.44419015  1
  S  S41  1  0.32633086  0.04299696  0.54832538  1
