# generated using pymatgen
data_Pr2Mn3(SbS3)4
_symmetry_space_group_name_H-M   'P 1'
_cell_length_a   20.02960800
_cell_length_b   3.90410600
_cell_length_c   14.95364829
_cell_angle_alpha   90.00000000
_cell_angle_beta   126.33350609
_cell_angle_gamma   90.00000000
_symmetry_Int_Tables_number   1
_chemical_formula_structural   Pr2Mn3(SbS3)4
_chemical_formula_sum   'Pr4 Mn6 Sb8 S24'
_cell_volume   942.00006694
_cell_formula_units_Z   2
loop_
 _symmetry_equiv_pos_site_id
 _symmetry_equiv_pos_as_xyz
  1  'x, y, z'
loop_
 _atom_site_type_symbol
 _atom_site_label
 _atom_site_symmetry_multiplicity
 _atom_site_fract_x
 _atom_site_fract_y
 _atom_site_fract_z
 _atom_site_occupancy
  Pr  Pr0  1  0.26802473  0.44337764  0.86407797  1
  Pr  Pr1  1  0.73168234  0.55697131  0.13633828  1
  Pr  Pr2  1  0.77361467  0.97018724  0.86815058  1
  Pr  Pr3  1  0.22509139  0.00028171  0.12554760  1
  Mn  Mn4  1  0.28925023  0.56864418  0.60029168  1
  Mn  Mn5  1  0.70904932  0.48438164  0.39816944  1
  Mn  Mn6  1  0.00525698  0.91835676  0.00039510  1
  Mn  Mn7  1  0.79419627  0.01710516  0.60240220  1
  Mn  Mn8  1  0.18383440  0.98108234  0.39672837  1
  Mn  Mn9  1  0.52382850  0.53283166  0.02990490  1
  Sb  Sb10  1  0.89720290  0.00838410  0.45744615  1
  Sb  Sb11  1  0.11351947  0.98035951  0.55605503  1
  Sb  Sb12  1  0.03513336  0.49973158  0.80858516  1
  Sb  Sb13  1  0.96259085  0.49114808  0.19316303  1
  Sb  Sb14  1  0.39937814  0.49448077  0.45928742  1
  Sb  Sb15  1  0.61612850  0.43773990  0.55788115  1
  Sb  Sb16  1  0.52881852  0.97304321  0.81600201  1
  Sb  Sb17  1  0.46995651  0.03417136  0.19529517  1
  S  S18  1  0.95284779  0.95538216  0.82590906  1
  S  S19  1  0.06749567  0.00738315  0.21822063  1
  S  S20  1  0.42458481  0.96918911  0.99861398  1
  S  S21  1  0.59777458  0.05231566  0.03071320  1
  S  S22  1  0.18931434  0.97608811  0.91487230  1
  S  S23  1  0.84156523  0.00458089  0.11898121  1
  S  S24  1  0.10009834  0.46845738  0.66676894  1
  S  S25  1  0.88465833  0.49860105  0.33542187  1
  S  S26  1  0.73854809  0.94979137  0.31942760  1
  S  S27  1  0.27375935  0.05501966  0.68731429  1
  S  S28  1  0.15988792  0.47853106  0.44637748  1
  S  S29  1  0.83454394  0.46303638  0.54735859  1
  S  S30  1  0.44882951  0.50227212  0.84009467  1
  S  S31  1  0.58375027  0.54435480  0.21633198  1
  S  S32  1  0.91995456  0.50465770  0.99774013  1
  S  S33  1  0.08326387  0.50096395  0.00405842  1
  S  S34  1  0.67847574  0.47804745  0.89932668  1
  S  S35  1  0.35361726  0.47793858  0.11858029  1
  S  S36  1  0.60164514  0.95516852  0.65800466  1
  S  S37  1  0.40827573  0.95671156  0.34714046  1
  S  S38  1  0.24981338  0.50952314  0.29266605  1
  S  S39  1  0.76927959  0.52362852  0.68154922  1
  S  S40  1  0.67375866  0.95392492  0.44457582  1
  S  S41  1  0.32604078  0.04410019  0.54789817  1
