# generated using pymatgen
data_Pr2Mn3(SbS3)4
_symmetry_space_group_name_H-M   'P 1'
_cell_length_a   20.02960800
_cell_length_b   3.90410600
_cell_length_c   14.95364829
_cell_angle_alpha   90.00000000
_cell_angle_beta   126.33350609
_cell_angle_gamma   90.00000000
_symmetry_Int_Tables_number   1
_chemical_formula_structural   Pr2Mn3(SbS3)4
_chemical_formula_sum   'Pr4 Mn6 Sb8 S24'
_cell_volume   942.00006694
_cell_formula_units_Z   2
loop_
 _symmetry_equiv_pos_site_id
 _symmetry_equiv_pos_as_xyz
  1  'x, y, z'
loop_
 _atom_site_type_symbol
 _atom_site_label
 _atom_site_symmetry_multiplicity
 _atom_site_fract_x
 _atom_site_fract_y
 _atom_site_fract_z
 _atom_site_occupancy
  Pr  Pr0  1  0.26796503  0.44354007  0.86399374  1
  Pr  Pr1  1  0.73160126  0.55619667  0.13643420  1
  Pr  Pr2  1  0.77359885  0.97066697  0.86821808  1
  Pr  Pr3  1  0.22508908  0.00084434  0.12542163  1
  Mn  Mn4  1  0.28924743  0.56742602  0.60017371  1
  Mn  Mn5  1  0.70898843  0.48266394  0.39807785  1
  Mn  Mn6  1  0.00538693  0.91851174  0.00056630  1
  Mn  Mn7  1  0.79450811  0.01633826  0.60283899  1
  Mn  Mn8  1  0.18368855  0.98194699  0.39650914  1
  Mn  Mn9  1  0.52401213  0.53362719  0.02979659  1
  Sb  Sb10  1  0.89703032  0.00821744  0.45739591  1
  Sb  Sb11  1  0.11359124  0.97945671  0.55607196  1
  Sb  Sb12  1  0.03520577  0.49920667  0.80860408  1
  Sb  Sb13  1  0.96271684  0.49152352  0.19319520  1
  Sb  Sb14  1  0.39923359  0.49453364  0.45915296  1
  Sb  Sb15  1  0.61606853  0.43746694  0.55807543  1
  Sb  Sb16  1  0.52868325  0.97207191  0.81596409  1
  Sb  Sb17  1  0.47002967  0.03455832  0.19547447  1
  S  S18  1  0.95270441  0.95513005  0.82569933  1
  S  S19  1  0.06746156  0.00780624  0.21821074  1
  S  S20  1  0.42479930  0.96933666  0.99843466  1
  S  S21  1  0.59735773  0.05193707  0.03035773  1
  S  S22  1  0.18938430  0.97657770  0.91464794  1
  S  S23  1  0.84178470  0.00509194  0.11903768  1
  S  S24  1  0.10011579  0.46770543  0.66674747  1
  S  S25  1  0.88450701  0.49775614  0.33532459  1
  S  S26  1  0.73821992  0.94939281  0.31915997  1
  S  S27  1  0.27363932  0.05414591  0.68732322  1
  S  S28  1  0.16004573  0.47768535  0.44681803  1
  S  S29  1  0.83415986  0.46154874  0.54705929  1
  S  S30  1  0.44856281  0.50246569  0.84013319  1
  S  S31  1  0.58307077  0.54490086  0.21570668  1
  S  S32  1  0.92029112  0.50381528  0.99770574  1
  S  S33  1  0.08343777  0.50108102  0.00431356  1
  S  S34  1  0.67854559  0.47806735  0.89931257  1
  S  S35  1  0.35375971  0.47815929  0.11899788  1
  S  S36  1  0.60164998  0.95561565  0.65813203  1
  S  S37  1  0.40804386  0.95643992  0.34685373  1
  S  S38  1  0.25013071  0.50965238  0.29305731  1
  S  S39  1  0.76885053  0.52519948  0.68147780  1
  S  S40  1  0.67381706  0.95325833  0.44494996  1
  S  S41  1  0.32568093  0.04546591  0.54752019  1
