# generated using pymatgen
data_Pr2Mn3(SbS3)4
_symmetry_space_group_name_H-M   'P 1'
_cell_length_a   20.02960800
_cell_length_b   3.90410600
_cell_length_c   14.95364829
_cell_angle_alpha   90.00000000
_cell_angle_beta   126.33350609
_cell_angle_gamma   90.00000000
_symmetry_Int_Tables_number   1
_chemical_formula_structural   Pr2Mn3(SbS3)4
_chemical_formula_sum   'Pr4 Mn6 Sb8 S24'
_cell_volume   942.00006694
_cell_formula_units_Z   2
loop_
 _symmetry_equiv_pos_site_id
 _symmetry_equiv_pos_as_xyz
  1  'x, y, z'
loop_
 _atom_site_type_symbol
 _atom_site_label
 _atom_site_symmetry_multiplicity
 _atom_site_fract_x
 _atom_site_fract_y
 _atom_site_fract_z
 _atom_site_occupancy
  Pr  Pr0  1  0.26790768  0.44369734  0.86395537  1
  Pr  Pr1  1  0.73161001  0.55546397  0.13654917  1
  Pr  Pr2  1  0.77358108  0.97112248  0.86831334  1
  Pr  Pr3  1  0.22503726  0.00142334  0.12528207  1
  Mn  Mn4  1  0.28923497  0.56627585  0.59997529  1
  Mn  Mn5  1  0.70891322  0.48144560  0.39795862  1
  Mn  Mn6  1  0.00539822  0.91814224  0.00065908  1
  Mn  Mn7  1  0.79466104  0.01505848  0.60304131  1
  Mn  Mn8  1  0.18362767  0.98245327  0.39627225  1
  Mn  Mn9  1  0.52428189  0.53434193  0.02961572  1
  Sb  Sb10  1  0.89693801  0.00835140  0.45731125  1
  Sb  Sb11  1  0.11373751  0.97885710  0.55616610  1
  Sb  Sb12  1  0.03530504  0.49898082  0.80866374  1
  Sb  Sb13  1  0.96283030  0.49154223  0.19325963  1
  Sb  Sb14  1  0.39911521  0.49439859  0.45891424  1
  Sb  Sb15  1  0.61593630  0.43733652  0.55811412  1
  Sb  Sb16  1  0.52859104  0.97102333  0.81591289  1
  Sb  Sb17  1  0.47012752  0.03504604  0.19572007  1
  S  S18  1  0.95255475  0.95461633  0.82551363  1
  S  S19  1  0.06738790  0.00864011  0.21816997  1
  S  S20  1  0.42486694  0.96933594  0.99829953  1
  S  S21  1  0.59696696  0.05163245  0.02993516  1
  S  S22  1  0.18964238  0.97671143  0.91471168  1
  S  S23  1  0.84208306  0.00563669  0.11916417  1
  S  S24  1  0.10014231  0.46756051  0.66688709  1
  S  S25  1  0.88431188  0.49671795  0.33536581  1
  S  S26  1  0.73798968  0.94933296  0.31890786  1
  S  S27  1  0.27350431  0.05345182  0.68724944  1
  S  S28  1  0.16025231  0.47678986  0.44721554  1
  S  S29  1  0.83404142  0.46090492  0.54696203  1
  S  S30  1  0.44822678  0.50299524  0.83996904  1
  S  S31  1  0.58242754  0.54554772  0.21532665  1
  S  S32  1  0.92055160  0.50334699  0.99767075  1
  S  S33  1  0.08372159  0.50137477  0.00475038  1
  S  S34  1  0.67874929  0.47850095  0.89934213  1
  S  S35  1  0.35396459  0.47823607  0.11954075  1
  S  S36  1  0.60160272  0.95598075  0.65821042  1
  S  S37  1  0.40799168  0.95572829  0.34674549  1
  S  S38  1  0.25040845  0.51049067  0.29342608  1
  S  S39  1  0.76845291  0.52687207  0.68131769  1
  S  S40  1  0.67396833  0.95312892  0.44536831  1
  S  S41  1  0.32535050  0.04654332  0.54720473  1
