# generated using pymatgen
data_Pr2Mn3(SbS3)4
_symmetry_space_group_name_H-M   'P 1'
_cell_length_a   20.02960800
_cell_length_b   3.90410600
_cell_length_c   14.95364829
_cell_angle_alpha   90.00000000
_cell_angle_beta   126.33350609
_cell_angle_gamma   90.00000000
_symmetry_Int_Tables_number   1
_chemical_formula_structural   Pr2Mn3(SbS3)4
_chemical_formula_sum   'Pr4 Mn6 Sb8 S24'
_cell_volume   942.00006694
_cell_formula_units_Z   2
loop_
 _symmetry_equiv_pos_site_id
 _symmetry_equiv_pos_as_xyz
  1  'x, y, z'
loop_
 _atom_site_type_symbol
 _atom_site_label
 _atom_site_symmetry_multiplicity
 _atom_site_fract_x
 _atom_site_fract_y
 _atom_site_fract_z
 _atom_site_occupancy
  Pr  Pr0  1  0.26786188  0.44388099  0.86391233  1
  Pr  Pr1  1  0.73164962  0.55516580  0.13669697  1
  Pr  Pr2  1  0.77353505  0.97157299  0.86835676  1
  Pr  Pr3  1  0.22501211  0.00186484  0.12514952  1
  Mn  Mn4  1  0.28921468  0.56522012  0.59973533  1
  Mn  Mn5  1  0.70878653  0.48043814  0.39781089  1
  Mn  Mn6  1  0.00530870  0.91794799  0.00065348  1
  Mn  Mn7  1  0.79477133  0.01389607  0.60313620  1
  Mn  Mn8  1  0.18366540  0.98230921  0.39632197  1
  Mn  Mn9  1  0.52446194  0.53504453  0.02942322  1
  Sb  Sb10  1  0.89679016  0.00838335  0.45721747  1
  Sb  Sb11  1  0.11391186  0.97831530  0.55630655  1
  Sb  Sb12  1  0.03535540  0.49867749  0.80874019  1
  Sb  Sb13  1  0.96293291  0.49187306  0.19333944  1
  Sb  Sb14  1  0.39897438  0.49448287  0.45868678  1
  Sb  Sb15  1  0.61585179  0.43711769  0.55822752  1
  Sb  Sb16  1  0.52847625  0.97002584  0.81591612  1
  Sb  Sb17  1  0.47017042  0.03526647  0.19581668  1
  S  S18  1  0.95230967  0.95392568  0.82548470  1
  S  S19  1  0.06737488  0.00917061  0.21821193  1
  S  S20  1  0.42492353  0.96919157  0.99810449  1
  S  S21  1  0.59670996  0.05129039  0.02948054  1
  S  S22  1  0.18973125  0.97674415  0.91459922  1
  S  S23  1  0.84230584  0.00559725  0.11916924  1
  S  S24  1  0.10021882  0.46711167  0.66718943  1
  S  S25  1  0.88408691  0.49626730  0.33536973  1
  S  S26  1  0.73776875  0.94909278  0.31864225  1
  S  S27  1  0.27342939  0.05352373  0.68733154  1
  S  S28  1  0.16046311  0.47572430  0.44771932  1
  S  S29  1  0.83403427  0.46038761  0.54680177  1
  S  S30  1  0.44805489  0.50258375  0.83979127  1
  S  S31  1  0.58176441  0.54632966  0.21495810  1
  S  S32  1  0.92075380  0.50248130  0.99756361  1
  S  S33  1  0.08391883  0.50137875  0.00520189  1
  S  S34  1  0.67889688  0.47902616  0.89919910  1
  S  S35  1  0.35416305  0.47850404  0.11996432  1
  S  S36  1  0.60161007  0.95643370  0.65841805  1
  S  S37  1  0.40775314  0.95548796  0.34668672  1
  S  S38  1  0.25051299  0.51162398  0.29353861  1
  S  S39  1  0.76812654  0.52806115  0.68116815  1
  S  S40  1  0.67417874  0.95240974  0.44599537  1
  S  S41  1  0.32503030  0.04718789  0.54663270  1
