# generated using pymatgen
data_Pr2Mn3(SbS3)4
_symmetry_space_group_name_H-M   'P 1'
_cell_length_a   20.02960800
_cell_length_b   3.90410600
_cell_length_c   14.95364829
_cell_angle_alpha   90.00000000
_cell_angle_beta   126.33350609
_cell_angle_gamma   90.00000000
_symmetry_Int_Tables_number   1
_chemical_formula_structural   Pr2Mn3(SbS3)4
_chemical_formula_sum   'Pr4 Mn6 Sb8 S24'
_cell_volume   942.00006694
_cell_formula_units_Z   2
loop_
 _symmetry_equiv_pos_site_id
 _symmetry_equiv_pos_as_xyz
  1  'x, y, z'
loop_
 _atom_site_type_symbol
 _atom_site_label
 _atom_site_symmetry_multiplicity
 _atom_site_fract_x
 _atom_site_fract_y
 _atom_site_fract_z
 _atom_site_occupancy
  Pr  Pr0  1  0.26769358  0.44430367  0.86368118  1
  Pr  Pr1  1  0.73161925  0.55466643  0.13674241  1
  Pr  Pr2  1  0.77353458  0.97200845  0.86847494  1
  Pr  Pr3  1  0.22500921  0.00229060  0.12494520  1
  Mn  Mn4  1  0.28920696  0.56456885  0.59953167  1
  Mn  Mn5  1  0.70873868  0.47989576  0.39772738  1
  Mn  Mn6  1  0.00537943  0.91786582  0.00070461  1
  Mn  Mn7  1  0.79487684  0.01281638  0.60321191  1
  Mn  Mn8  1  0.18370595  0.98267380  0.39648093  1
  Mn  Mn9  1  0.52455687  0.53566001  0.02925666  1
  Sb  Sb10  1  0.89660004  0.00858703  0.45707148  1
  Sb  Sb11  1  0.11411260  0.97792496  0.55653407  1
  Sb  Sb12  1  0.03537094  0.49844647  0.80876654  1
  Sb  Sb13  1  0.96293684  0.49225083  0.19333942  1
  Sb  Sb14  1  0.39884182  0.49474579  0.45847661  1
  Sb  Sb15  1  0.61577077  0.43699124  0.55834701  1
  Sb  Sb16  1  0.52835381  0.96889505  0.81586148  1
  Sb  Sb17  1  0.47018260  0.03561845  0.19591059  1
  S  S18  1  0.95201629  0.95324200  0.82534083  1
  S  S19  1  0.06735210  0.01000669  0.21840053  1
  S  S20  1  0.42503461  0.96892215  0.99815318  1
  S  S21  1  0.59632721  0.05143109  0.02897264  1
  S  S22  1  0.18970492  0.97685448  0.91433477  1
  S  S23  1  0.84246595  0.00557532  0.11912226  1
  S  S24  1  0.10028350  0.46695349  0.66767980  1
  S  S25  1  0.88394728  0.49614346  0.33534322  1
  S  S26  1  0.73747346  0.94826525  0.31825147  1
  S  S27  1  0.27338310  0.05370101  0.68741070  1
  S  S28  1  0.16076252  0.47451145  0.44812692  1
  S  S29  1  0.83410016  0.46037841  0.54686549  1
  S  S30  1  0.44779004  0.50199574  0.83951995  1
  S  S31  1  0.58128301  0.54751286  0.21448451  1
  S  S32  1  0.92094001  0.50178209  0.99747122  1
  S  S33  1  0.08430998  0.50145142  0.00566272  1
  S  S34  1  0.67898070  0.47885133  0.89901914  1
  S  S35  1  0.35442985  0.47876767  0.12033188  1
  S  S36  1  0.60153741  0.95709746  0.65847752  1
  S  S37  1  0.40768772  0.95517233  0.34683756  1
  S  S38  1  0.25065058  0.51247916  0.29371914  1
  S  S39  1  0.76770807  0.52904793  0.68090135  1
  S  S40  1  0.67432305  0.95184713  0.44657550  1
  S  S41  1  0.32463497  0.04800276  0.54605840  1
