# generated using pymatgen
data_Pr2Mn3(SbS3)4
_symmetry_space_group_name_H-M   'P 1'
_cell_length_a   20.02960800
_cell_length_b   3.90410600
_cell_length_c   14.95364829
_cell_angle_alpha   90.00000000
_cell_angle_beta   126.33350609
_cell_angle_gamma   90.00000000
_symmetry_Int_Tables_number   1
_chemical_formula_structural   Pr2Mn3(SbS3)4
_chemical_formula_sum   'Pr4 Mn6 Sb8 S24'
_cell_volume   942.00006694
_cell_formula_units_Z   2
loop_
 _symmetry_equiv_pos_site_id
 _symmetry_equiv_pos_as_xyz
  1  'x, y, z'
loop_
 _atom_site_type_symbol
 _atom_site_label
 _atom_site_symmetry_multiplicity
 _atom_site_fract_x
 _atom_site_fract_y
 _atom_site_fract_z
 _atom_site_occupancy
  Pr  Pr0  1  0.26963514  0.50534896  0.86936434  1
  Pr  Pr1  1  0.73444976  0.51352154  0.13510750  1
  Pr  Pr2  1  0.76435927  0.03103531  0.86799028  1
  Pr  Pr3  1  0.22949054  0.98098707  0.13030293  1
  Mn  Mn4  1  0.30046687  0.46259658  0.60891008  1
  Mn  Mn5  1  0.68526054  0.46865218  0.36484563  1
  Mn  Mn6  1  0.00209531  0.98983634  0.00956629  1
  Mn  Mn7  1  0.79251006  0.02793792  0.61410951  1
  Mn  Mn8  1  0.19572046  0.00614620  0.36721545  1
  Mn  Mn9  1  0.48207374  0.47227241  0.98241158  1
  Sb  Sb10  1  0.89028821  0.98506438  0.44840975  1
  Sb  Sb11  1  0.11134494  0.98101801  0.54715918  1
  Sb  Sb12  1  0.03624331  0.52741891  0.82271278  1
  Sb  Sb13  1  0.96819992  0.48954006  0.19157155  1
  Sb  Sb14  1  0.39587064  0.49890404  0.45195861  1
  Sb  Sb15  1  0.61135261  0.48114337  0.54803331  1
  Sb  Sb16  1  0.53049823  0.97050197  0.80518286  1
  Sb  Sb17  1  0.46574473  0.02329262  0.18679087  1
  S  S18  1  0.94104494  0.02073907  0.80894747  1
  S  S19  1  0.06635914  0.00527238  0.20713866  1
  S  S20  1  0.41798734  0.97589946  0.97960402  1
  S  S21  1  0.58678377  0.02405600  0.01267515  1
  S  S22  1  0.16278439  0.03449054  0.89912642  1
  S  S23  1  0.82627485  0.99923295  0.10458561  1
  S  S24  1  0.08612494  0.49814053  0.63776515  1
  S  S25  1  0.91526825  0.48358108  0.35311171  1
  S  S26  1  0.73411020  0.01359207  0.29414252  1
  S  S27  1  0.25995192  0.01281278  0.70619107  1
  S  S28  1  0.16897664  0.52071319  0.43767032  1
  S  S29  1  0.80929331  0.51549925  0.53871035  1
  S  S30  1  0.43337281  0.47956743  0.80222829  1
  S  S31  1  0.55383356  0.50424330  0.18142446  1
  S  S32  1  0.92397444  0.50881168  0.99022668  1
  S  S33  1  0.09159587  0.49682572  0.02762109  1
  S  S34  1  0.66765109  0.55801801  0.89663004  1
  S  S35  1  0.32880609  0.46240657  0.09731950  1
  S  S36  1  0.58838913  0.00014515  0.64784582  1
  S  S37  1  0.39535605  0.98457852  0.33380967  1
  S  S38  1  0.24702999  0.47577926  0.31707197  1
  S  S39  1  0.76364973  0.50994089  0.69173192  1
  S  S40  1  0.65895924  0.98185749  0.43824547  1
  S  S41  1  0.32945198  0.98236391  0.55187093  1
