# generated using pymatgen
data_Pr2Mn3(SbS3)4
_symmetry_space_group_name_H-M   'P 1'
_cell_length_a   20.02960800
_cell_length_b   3.90410600
_cell_length_c   14.95364829
_cell_angle_alpha   90.00000000
_cell_angle_beta   126.33350609
_cell_angle_gamma   90.00000000
_symmetry_Int_Tables_number   1
_chemical_formula_structural   Pr2Mn3(SbS3)4
_chemical_formula_sum   'Pr4 Mn6 Sb8 S24'
_cell_volume   942.00006694
_cell_formula_units_Z   2
loop_
 _symmetry_equiv_pos_site_id
 _symmetry_equiv_pos_as_xyz
  1  'x, y, z'
loop_
 _atom_site_type_symbol
 _atom_site_label
 _atom_site_symmetry_multiplicity
 _atom_site_fract_x
 _atom_site_fract_y
 _atom_site_fract_z
 _atom_site_occupancy
  Pr  Pr0  1  0.26753062  0.44460633  0.86344326  1
  Pr  Pr1  1  0.73162602  0.55419388  0.13678967  1
  Pr  Pr2  1  0.77353306  0.97260080  0.86860409  1
  Pr  Pr3  1  0.22495907  0.00273873  0.12473780  1
  Mn  Mn4  1  0.28920262  0.56393165  0.59938039  1
  Mn  Mn5  1  0.70868416  0.47941071  0.39771396  1
  Mn  Mn6  1  0.00540896  0.91779680  0.00065934  1
  Mn  Mn7  1  0.79504268  0.01159066  0.60332505  1
  Mn  Mn8  1  0.18369472  0.98234561  0.39656702  1
  Mn  Mn9  1  0.52460007  0.53609231  0.02898275  1
  Sb  Sb10  1  0.89649467  0.00855007  0.45702273  1
  Sb  Sb11  1  0.11432918  0.97784612  0.55673996  1
  Sb  Sb12  1  0.03537688  0.49796711  0.80883008  1
  Sb  Sb13  1  0.96290069  0.49259766  0.19329312  1
  Sb  Sb14  1  0.39866215  0.49488185  0.45816375  1
  Sb  Sb15  1  0.61561310  0.43691126  0.55839003  1
  Sb  Sb16  1  0.52830595  0.96804043  0.81594468  1
  Sb  Sb17  1  0.47025059  0.03570543  0.19602909  1
  S  S18  1  0.95177809  0.95309642  0.82513833  1
  S  S19  1  0.06735713  0.01086576  0.21854357  1
  S  S20  1  0.42500287  0.96857862  0.99828562  1
  S  S21  1  0.59613856  0.05188736  0.02866711  1
  S  S22  1  0.18969145  0.97664239  0.91387694  1
  S  S23  1  0.84248930  0.00565086  0.11900819  1
  S  S24  1  0.10039062  0.46702435  0.66815807  1
  S  S25  1  0.88393422  0.49631501  0.33544829  1
  S  S26  1  0.73709041  0.94714826  0.31759910  1
  S  S27  1  0.27332796  0.05409512  0.68731510  1
  S  S28  1  0.16103266  0.47360580  0.44856160  1
  S  S29  1  0.83405136  0.46033357  0.54691951  1
  S  S30  1  0.44737720  0.50163627  0.83920272  1
  S  S31  1  0.58090147  0.54847987  0.21435996  1
  S  S32  1  0.92118029  0.50093427  0.99751189  1
  S  S33  1  0.08460600  0.50171171  0.00606524  1
  S  S34  1  0.67902398  0.47868969  0.89888704  1
  S  S35  1  0.35458058  0.47886230  0.12052275  1
  S  S36  1  0.60138574  0.95811856  0.65864075  1
  S  S37  1  0.40775461  0.95477972  0.34709439  1
  S  S38  1  0.25077225  0.51365015  0.29384421  1
  S  S39  1  0.76730589  0.52940382  0.68062088  1
  S  S40  1  0.67425485  0.95066229  0.44693242  1
  S  S41  1  0.32424229  0.04877768  0.54560163  1
