# generated using pymatgen
data_Pr2Mn3(SbS3)4
_symmetry_space_group_name_H-M   'P 1'
_cell_length_a   20.02960800
_cell_length_b   3.90410600
_cell_length_c   14.95364829
_cell_angle_alpha   90.00000000
_cell_angle_beta   126.33350609
_cell_angle_gamma   90.00000000
_symmetry_Int_Tables_number   1
_chemical_formula_structural   Pr2Mn3(SbS3)4
_chemical_formula_sum   'Pr4 Mn6 Sb8 S24'
_cell_volume   942.00006694
_cell_formula_units_Z   2
loop_
 _symmetry_equiv_pos_site_id
 _symmetry_equiv_pos_as_xyz
  1  'x, y, z'
loop_
 _atom_site_type_symbol
 _atom_site_label
 _atom_site_symmetry_multiplicity
 _atom_site_fract_x
 _atom_site_fract_y
 _atom_site_fract_z
 _atom_site_occupancy
  Pr  Pr0  1  0.26736113  0.44519949  0.86320785  1
  Pr  Pr1  1  0.73163870  0.55359499  0.13682872  1
  Pr  Pr2  1  0.77351905  0.97322976  0.86869132  1
  Pr  Pr3  1  0.22487843  0.00339954  0.12448139  1
  Mn  Mn4  1  0.28933209  0.56303381  0.59920655  1
  Mn  Mn5  1  0.70878200  0.47877912  0.39787403  1
  Mn  Mn6  1  0.00537264  0.91809617  0.00048470  1
  Mn  Mn7  1  0.79524317  0.01039632  0.60366155  1
  Mn  Mn8  1  0.18377005  0.98203021  0.39669265  1
  Mn  Mn9  1  0.52465260  0.53680770  0.02866736  1
  Sb  Sb10  1  0.89638646  0.00845931  0.45704515  1
  Sb  Sb11  1  0.11452705  0.97796710  0.55682380  1
  Sb  Sb12  1  0.03543207  0.49741299  0.80893400  1
  Sb  Sb13  1  0.96288627  0.49293939  0.19336087  1
  Sb  Sb14  1  0.39849655  0.49493228  0.45779710  1
  Sb  Sb15  1  0.61549061  0.43694249  0.55838503  1
  Sb  Sb16  1  0.52827968  0.96712162  0.81613537  1
  Sb  Sb17  1  0.47028243  0.03591236  0.19610028  1
  S  S18  1  0.95168332  0.95247821  0.82491692  1
  S  S19  1  0.06758260  0.01137070  0.21878437  1
  S  S20  1  0.42499672  0.96839937  0.99845203  1
  S  S21  1  0.59582240  0.05227700  0.02832159  1
  S  S22  1  0.18977544  0.97651255  0.91352596  1
  S  S23  1  0.84257874  0.00525525  0.11886142  1
  S  S24  1  0.10037964  0.46700328  0.66843375  1
  S  S25  1  0.88397142  0.49696643  0.33553551  1
  S  S26  1  0.73676746  0.94625820  0.31692559  1
  S  S27  1  0.27329645  0.05530794  0.68745264  1
  S  S28  1  0.16119476  0.47181094  0.44885301  1
  S  S29  1  0.83390112  0.45984834  0.54682189  1
  S  S30  1  0.44696244  0.50067134  0.83884403  1
  S  S31  1  0.58052366  0.54949236  0.21395358  1
  S  S32  1  0.92117467  0.49999694  0.99718070  1
  S  S33  1  0.08492301  0.50223627  0.00653133  1
  S  S34  1  0.67916039  0.47777680  0.89905038  1
  S  S35  1  0.35467143  0.47932160  0.12075846  1
  S  S36  1  0.60143791  0.95885573  0.65901997  1
  S  S37  1  0.40797311  0.95419429  0.34762092  1
  S  S38  1  0.25090968  0.51491453  0.29396305  1
  S  S39  1  0.76689983  0.52894009  0.68024953  1
  S  S40  1  0.67439278  0.94892328  0.44750286  1
  S  S41  1  0.32377578  0.04960292  0.54511006  1
