# generated using pymatgen
data_Pr2Mn3(SbS3)4
_symmetry_space_group_name_H-M   'P 1'
_cell_length_a   20.02960800
_cell_length_b   3.90410600
_cell_length_c   14.95364829
_cell_angle_alpha   90.00000000
_cell_angle_beta   126.33350609
_cell_angle_gamma   90.00000000
_symmetry_Int_Tables_number   1
_chemical_formula_structural   Pr2Mn3(SbS3)4
_chemical_formula_sum   'Pr4 Mn6 Sb8 S24'
_cell_volume   942.00006694
_cell_formula_units_Z   2
loop_
 _symmetry_equiv_pos_site_id
 _symmetry_equiv_pos_as_xyz
  1  'x, y, z'
loop_
 _atom_site_type_symbol
 _atom_site_label
 _atom_site_symmetry_multiplicity
 _atom_site_fract_x
 _atom_site_fract_y
 _atom_site_fract_z
 _atom_site_occupancy
  Pr  Pr0  1  0.26724407  0.44563238  0.86310403  1
  Pr  Pr1  1  0.73157888  0.55303500  0.13680417  1
  Pr  Pr2  1  0.77347996  0.97390417  0.86880290  1
  Pr  Pr3  1  0.22488580  0.00430383  0.12433532  1
  Mn  Mn4  1  0.28947942  0.56259170  0.59890257  1
  Mn  Mn5  1  0.70882799  0.47801467  0.39781296  1
  Mn  Mn6  1  0.00530919  0.91847923  0.00004076  1
  Mn  Mn7  1  0.79536283  0.00944042  0.60394353  1
  Mn  Mn8  1  0.18392440  0.98121554  0.39690304  1
  Mn  Mn9  1  0.52467536  0.53756925  0.02842136  1
  Sb  Sb10  1  0.89642226  0.00857413  0.45715612  1
  Sb  Sb11  1  0.11474143  0.97791349  0.55688397  1
  Sb  Sb12  1  0.03551340  0.49695747  0.80900164  1
  Sb  Sb13  1  0.96293638  0.49338491  0.19340939  1
  Sb  Sb14  1  0.39830354  0.49508293  0.45740429  1
  Sb  Sb15  1  0.61539309  0.43681347  0.55842149  1
  Sb  Sb16  1  0.52815602  0.96677210  0.81623824  1
  Sb  Sb17  1  0.47033074  0.03628563  0.19615915  1
  S  S18  1  0.95134397  0.95219844  0.82448722  1
  S  S19  1  0.06802479  0.01159256  0.21922777  1
  S  S20  1  0.42490805  0.96773644  0.99853769  1
  S  S21  1  0.59551853  0.05213483  0.02795524  1
  S  S22  1  0.18974529  0.97662382  0.91301345  1
  S  S23  1  0.84269429  0.00490596  0.11884298  1
  S  S24  1  0.10048225  0.46720181  0.66884990  1
  S  S25  1  0.88410687  0.49792755  0.33573557  1
  S  S26  1  0.73645207  0.94600139  0.31633580  1
  S  S27  1  0.27309537  0.05706729  0.68756325  1
  S  S28  1  0.16112086  0.47016093  0.44873333  1
  S  S29  1  0.83374205  0.45918167  0.54683156  1
  S  S30  1  0.44643890  0.49957580  0.83832775  1
  S  S31  1  0.58026894  0.54988298  0.21388407  1
  S  S32  1  0.92116139  0.49902591  0.99695294  1
  S  S33  1  0.08506335  0.50296905  0.00677021  1
  S  S34  1  0.67918919  0.47731183  0.89913236  1
  S  S35  1  0.35478013  0.47988984  0.12110258  1
  S  S36  1  0.60147839  0.95929759  0.65948787  1
  S  S37  1  0.40800232  0.95354921  0.34792238  1
  S  S38  1  0.25103872  0.51664847  0.29400286  1
  S  S39  1  0.76651929  0.52802133  0.67992917  1
  S  S40  1  0.67444272  0.94692608  0.44810239  1
  S  S41  1  0.32333038  0.05047763  0.54464878  1
