# generated using pymatgen
data_Pr2Mn3(SbS3)4
_symmetry_space_group_name_H-M   'P 1'
_cell_length_a   20.02960800
_cell_length_b   3.90410600
_cell_length_c   14.95364829
_cell_angle_alpha   90.00000000
_cell_angle_beta   126.33350609
_cell_angle_gamma   90.00000000
_symmetry_Int_Tables_number   1
_chemical_formula_structural   Pr2Mn3(SbS3)4
_chemical_formula_sum   'Pr4 Mn6 Sb8 S24'
_cell_volume   942.00006694
_cell_formula_units_Z   2
loop_
 _symmetry_equiv_pos_site_id
 _symmetry_equiv_pos_as_xyz
  1  'x, y, z'
loop_
 _atom_site_type_symbol
 _atom_site_label
 _atom_site_symmetry_multiplicity
 _atom_site_fract_x
 _atom_site_fract_y
 _atom_site_fract_z
 _atom_site_occupancy
  Pr  Pr0  1  0.26713855  0.44563479  0.86301949  1
  Pr  Pr1  1  0.73152718  0.55238000  0.13677120  1
  Pr  Pr2  1  0.77347634  0.97418997  0.86899330  1
  Pr  Pr3  1  0.22491256  0.00508663  0.12423738  1
  Mn  Mn4  1  0.28953740  0.56233117  0.59857643  1
  Mn  Mn5  1  0.70886398  0.47766165  0.39771710  1
  Mn  Mn6  1  0.00531532  0.91877486  0.99964655  1
  Mn  Mn7  1  0.79540104  0.00829941  0.60424280  1
  Mn  Mn8  1  0.18410982  0.98045171  0.39703489  1
  Mn  Mn9  1  0.52469967  0.53814024  0.02813291  1
  Sb  Sb10  1  0.89649850  0.00910945  0.45720369  1
  Sb  Sb11  1  0.11495968  0.97777059  0.55695512  1
  Sb  Sb12  1  0.03561380  0.49649795  0.80907824  1
  Sb  Sb13  1  0.96301714  0.49403017  0.19352490  1
  Sb  Sb14  1  0.39812903  0.49510698  0.45709411  1
  Sb  Sb15  1  0.61528647  0.43698177  0.55841473  1
  Sb  Sb16  1  0.52809168  0.96641901  0.81631503  1
  Sb  Sb17  1  0.47026189  0.03652240  0.19608757  1
  S  S18  1  0.95110140  0.95190898  0.82429655  1
  S  S19  1  0.06839829  0.01149518  0.21967166  1
  S  S20  1  0.42474038  0.96688818  0.99863431  1
  S  S21  1  0.59532036  0.05196037  0.02767591  1
  S  S22  1  0.18982685  0.97599080  0.91274079  1
  S  S23  1  0.84277462  0.00519495  0.11872964  1
  S  S24  1  0.10058652  0.46765390  0.66911257  1
  S  S25  1  0.88411580  0.49873778  0.33575190  1
  S  S26  1  0.73617645  0.94588803  0.31571109  1
  S  S27  1  0.27289540  0.05901302  0.68765211  1
  S  S28  1  0.16099437  0.46879090  0.44846955  1
  S  S29  1  0.83371207  0.45836809  0.54709570  1
  S  S30  1  0.44595611  0.49904890  0.83792104  1
  S  S31  1  0.58007325  0.55041895  0.21393230  1
  S  S32  1  0.92118908  0.49734081  0.99680407  1
  S  S33  1  0.08541546  0.50396281  0.00710463  1
  S  S34  1  0.67912037  0.47693341  0.89919316  1
  S  S35  1  0.35467848  0.48051238  0.12100340  1
  S  S36  1  0.60141779  0.95948357  0.65993986  1
  S  S37  1  0.40826653  0.95244334  0.34833954  1
  S  S38  1  0.25127342  0.51841371  0.29412746  1
  S  S39  1  0.76610493  0.52745485  0.67952108  1
  S  S40  1  0.67453019  0.94477883  0.44861282  1
  S  S41  1  0.32307180  0.05144827  0.54430539  1
