# generated using pymatgen
data_Pr2Mn3(SbS3)4
_symmetry_space_group_name_H-M   'P 1'
_cell_length_a   20.02960800
_cell_length_b   3.90410600
_cell_length_c   14.95364829
_cell_angle_alpha   90.00000000
_cell_angle_beta   126.33350609
_cell_angle_gamma   90.00000000
_symmetry_Int_Tables_number   1
_chemical_formula_structural   Pr2Mn3(SbS3)4
_chemical_formula_sum   'Pr4 Mn6 Sb8 S24'
_cell_volume   942.00006694
_cell_formula_units_Z   2
loop_
 _symmetry_equiv_pos_site_id
 _symmetry_equiv_pos_as_xyz
  1  'x, y, z'
loop_
 _atom_site_type_symbol
 _atom_site_label
 _atom_site_symmetry_multiplicity
 _atom_site_fract_x
 _atom_site_fract_y
 _atom_site_fract_z
 _atom_site_occupancy
  Pr  Pr0  1  0.26708196  0.44572641  0.86296904  1
  Pr  Pr1  1  0.73145410  0.55206698  0.13671238  1
  Pr  Pr2  1  0.77342978  0.97468510  0.86926105  1
  Pr  Pr3  1  0.22494624  0.00608371  0.12418964  1
  Mn  Mn4  1  0.28959048  0.56212042  0.59831759  1
  Mn  Mn5  1  0.70897482  0.47746016  0.39773461  1
  Mn  Mn6  1  0.00535414  0.91905078  0.99921660  1
  Mn  Mn7  1  0.79548958  0.00776526  0.60472564  1
  Mn  Mn8  1  0.18423152  0.98029550  0.39706112  1
  Mn  Mn9  1  0.52473882  0.53876757  0.02792592  1
  Sb  Sb10  1  0.89660697  0.00943448  0.45728305  1
  Sb  Sb11  1  0.11515012  0.97798713  0.55699266  1
  Sb  Sb12  1  0.03567420  0.49567598  0.80922086  1
  Sb  Sb13  1  0.96316879  0.49455043  0.19356915  1
  Sb  Sb14  1  0.39790080  0.49540968  0.45674422  1
  Sb  Sb15  1  0.61522085  0.43699598  0.55846508  1
  Sb  Sb16  1  0.52800165  0.96626097  0.81631426  1
  Sb  Sb17  1  0.47016924  0.03680106  0.19594529  1
  S  S18  1  0.95079601  0.95212387  0.82412552  1
  S  S19  1  0.06855258  0.01161746  0.21982850  1
  S  S20  1  0.42465020  0.96654165  0.99891285  1
  S  S21  1  0.59513123  0.05117283  0.02755789  1
  S  S22  1  0.18986323  0.97485082  0.91262348  1
  S  S23  1  0.84273419  0.00499372  0.11845898  1
  S  S24  1  0.10050003  0.46802553  0.66924681  1
  S  S25  1  0.88419085  0.49887294  0.33578376  1
  S  S26  1  0.73576982  0.94579205  0.31500548  1
  S  S27  1  0.27261965  0.06091781  0.68769476  1
  S  S28  1  0.16096264  0.46851845  0.44829232  1
  S  S29  1  0.83369081  0.45730317  0.54740328  1
  S  S30  1  0.44551967  0.49823643  0.83746613  1
  S  S31  1  0.57985894  0.55135266  0.21407145  1
  S  S32  1  0.92122789  0.49662447  0.99682276  1
  S  S33  1  0.08562781  0.50504849  0.00737674  1
  S  S34  1  0.67916358  0.47646225  0.89915636  1
  S  S35  1  0.35481838  0.48101456  0.12113636  1
  S  S36  1  0.60144833  0.95981293  0.66034525  1
  S  S37  1  0.40853046  0.95189442  0.34883224  1
  S  S38  1  0.25145676  0.51994223  0.29433829  1
  S  S39  1  0.76573532  0.52694934  0.67917189  1
  S  S40  1  0.67471069  0.94223693  0.44921986  1
  S  S41  1  0.32299116  0.05188943  0.54410604  1
