# generated using pymatgen
data_Pr2Mn3(SbS3)4
_symmetry_space_group_name_H-M   'P 1'
_cell_length_a   20.02960800
_cell_length_b   3.90410600
_cell_length_c   14.95364829
_cell_angle_alpha   90.00000000
_cell_angle_beta   126.33350609
_cell_angle_gamma   90.00000000
_symmetry_Int_Tables_number   1
_chemical_formula_structural   Pr2Mn3(SbS3)4
_chemical_formula_sum   'Pr4 Mn6 Sb8 S24'
_cell_volume   942.00006694
_cell_formula_units_Z   2
loop_
 _symmetry_equiv_pos_site_id
 _symmetry_equiv_pos_as_xyz
  1  'x, y, z'
loop_
 _atom_site_type_symbol
 _atom_site_label
 _atom_site_symmetry_multiplicity
 _atom_site_fract_x
 _atom_site_fract_y
 _atom_site_fract_z
 _atom_site_occupancy
  Pr  Pr0  1  0.26702232  0.44566626  0.86293430  1
  Pr  Pr1  1  0.73140389  0.55206355  0.13665002  1
  Pr  Pr2  1  0.77337129  0.97527976  0.86946085  1
  Pr  Pr3  1  0.22492779  0.00707325  0.12411233  1
  Mn  Mn4  1  0.28968782  0.56154762  0.59804172  1
  Mn  Mn5  1  0.70903916  0.47713251  0.39775503  1
  Mn  Mn6  1  0.00535148  0.91927153  0.99899741  1
  Mn  Mn7  1  0.79559504  0.00735034  0.60514342  1
  Mn  Mn8  1  0.18434161  0.98002594  0.39701720  1
  Mn  Mn9  1  0.52471993  0.53976448  0.02774279  1
  Sb  Sb10  1  0.89673454  0.00982925  0.45737962  1
  Sb  Sb11  1  0.11534003  0.97836403  0.55710372  1
  Sb  Sb12  1  0.03572515  0.49516974  0.80936978  1
  Sb  Sb13  1  0.96332807  0.49505927  0.19370778  1
  Sb  Sb14  1  0.39767681  0.49588492  0.45638541  1
  Sb  Sb15  1  0.61520108  0.43718784  0.55853059  1
  Sb  Sb16  1  0.52797528  0.96642717  0.81637012  1
  Sb  Sb17  1  0.47012452  0.03686582  0.19586231  1
  S  S18  1  0.95058447  0.95265316  0.82417152  1
  S  S19  1  0.06871593  0.01197432  0.22005493  1
  S  S20  1  0.42458392  0.96602243  0.99914068  1
  S  S21  1  0.59513102  0.05068847  0.02752270  1
  S  S22  1  0.18992626  0.97385064  0.91257176  1
  S  S23  1  0.84272857  0.00442218  0.11813150  1
  S  S24  1  0.10033184  0.46743924  0.66919526  1
  S  S25  1  0.88438991  0.49942113  0.33587776  1
  S  S26  1  0.73541182  0.94536448  0.31433292  1
  S  S27  1  0.27244532  0.06236891  0.68771695  1
  S  S28  1  0.16119431  0.46781542  0.44831667  1
  S  S29  1  0.83376158  0.45621835  0.54768827  1
  S  S30  1  0.44519715  0.49692906  0.83718536  1
  S  S31  1  0.57958768  0.55251966  0.21410419  1
  S  S32  1  0.92145540  0.49574979  0.99703912  1
  S  S33  1  0.08585247  0.50538448  0.00762140  1
  S  S34  1  0.67937204  0.47594854  0.89909569  1
  S  S35  1  0.35487738  0.48134723  0.12118384  1
  S  S36  1  0.60157060  0.96035731  0.66082118  1
  S  S37  1  0.40880954  0.95181692  0.34913768  1
  S  S38  1  0.25141438  0.52210789  0.29413858  1
  S  S39  1  0.76542574  0.52689772  0.67881028  1
  S  S40  1  0.67482321  0.94023134  0.44977326  1
  S  S41  1  0.32302729  0.05224604  0.54411419  1
