# generated using pymatgen
data_Pr2Mn3(SbS3)4
_symmetry_space_group_name_H-M   'P 1'
_cell_length_a   20.02960800
_cell_length_b   3.90410600
_cell_length_c   14.95364829
_cell_angle_alpha   90.00000000
_cell_angle_beta   126.33350609
_cell_angle_gamma   90.00000000
_symmetry_Int_Tables_number   1
_chemical_formula_structural   Pr2Mn3(SbS3)4
_chemical_formula_sum   'Pr4 Mn6 Sb8 S24'
_cell_volume   942.00006694
_cell_formula_units_Z   2
loop_
 _symmetry_equiv_pos_site_id
 _symmetry_equiv_pos_as_xyz
  1  'x, y, z'
loop_
 _atom_site_type_symbol
 _atom_site_label
 _atom_site_symmetry_multiplicity
 _atom_site_fract_x
 _atom_site_fract_y
 _atom_site_fract_z
 _atom_site_occupancy
  Pr  Pr0  1  0.26694500  0.44595766  0.86292125  1
  Pr  Pr1  1  0.73134646  0.55217216  0.13656157  1
  Pr  Pr2  1  0.77330161  0.97550648  0.86964547  1
  Pr  Pr3  1  0.22484357  0.00813593  0.12400161  1
  Mn  Mn4  1  0.28987147  0.56089405  0.59779942  1
  Mn  Mn5  1  0.70915897  0.47719159  0.39778227  1
  Mn  Mn6  1  0.00535297  0.91950970  0.99895679  1
  Mn  Mn7  1  0.79569081  0.00657940  0.60546554  1
  Mn  Mn8  1  0.18449169  0.98032576  0.39708485  1
  Mn  Mn9  1  0.52468535  0.54122224  0.02749816  1
  Sb  Sb10  1  0.89684815  0.01027166  0.45753744  1
  Sb  Sb11  1  0.11550894  0.97874263  0.55719238  1
  Sb  Sb12  1  0.03560872  0.49457595  0.80936713  1
  Sb  Sb13  1  0.96359474  0.49547736  0.19383340  1
  Sb  Sb14  1  0.39743028  0.49659723  0.45606179  1
  Sb  Sb15  1  0.61524801  0.43737378  0.55865693  1
  Sb  Sb16  1  0.52791374  0.96677560  0.81640673  1
  Sb  Sb17  1  0.47004340  0.03658211  0.19587114  1
  S  S18  1  0.95054145  0.95221965  0.82441549  1
  S  S19  1  0.06886842  0.01258752  0.22036433  1
  S  S20  1  0.42454805  0.96636332  0.99945461  1
  S  S21  1  0.59527012  0.05017894  0.02763306  1
  S  S22  1  0.18990124  0.97207199  0.91263612  1
  S  S23  1  0.84273820  0.00452685  0.11784718  1
  S  S24  1  0.10005847  0.46739895  0.66907808  1
  S  S25  1  0.88453588  0.50042503  0.33590127  1
  S  S26  1  0.73509185  0.94488899  0.31371596  1
  S  S27  1  0.27228738  0.06345456  0.68762046  1
  S  S28  1  0.16130100  0.46821907  0.44796739  1
  S  S29  1  0.83386510  0.45535809  0.54809133  1
  S  S30  1  0.44499737  0.49632543  0.83714171  1
  S  S31  1  0.57931681  0.55394606  0.21429638  1
  S  S32  1  0.92166570  0.49424295  0.99726803  1
  S  S33  1  0.08612057  0.50512891  0.00783479  1
  S  S34  1  0.67953221  0.47537066  0.89888046  1
  S  S35  1  0.35482608  0.48215772  0.12119641  1
  S  S36  1  0.60174905  0.96135382  0.66129055  1
  S  S37  1  0.40903322  0.95190636  0.34955950  1
  S  S38  1  0.25147028  0.52364017  0.29390512  1
  S  S39  1  0.76524593  0.52689789  0.67848325  1
  S  S40  1  0.67497556  0.93813070  0.45037104  1
  S  S41  1  0.32295139  0.05225652  0.54411369  1
