# generated using pymatgen
data_Pr2Mn3(SbS3)4
_symmetry_space_group_name_H-M   'P 1'
_cell_length_a   20.02960800
_cell_length_b   3.90410600
_cell_length_c   14.95364829
_cell_angle_alpha   90.00000000
_cell_angle_beta   126.33350609
_cell_angle_gamma   90.00000000
_symmetry_Int_Tables_number   1
_chemical_formula_structural   Pr2Mn3(SbS3)4
_chemical_formula_sum   'Pr4 Mn6 Sb8 S24'
_cell_volume   942.00006694
_cell_formula_units_Z   2
loop_
 _symmetry_equiv_pos_site_id
 _symmetry_equiv_pos_as_xyz
  1  'x, y, z'
loop_
 _atom_site_type_symbol
 _atom_site_label
 _atom_site_symmetry_multiplicity
 _atom_site_fract_x
 _atom_site_fract_y
 _atom_site_fract_z
 _atom_site_occupancy
  Pr  Pr0  1  0.26688283  0.44592352  0.86294526  1
  Pr  Pr1  1  0.73132141  0.55225993  0.13647560  1
  Pr  Pr2  1  0.77322209  0.97560904  0.86985729  1
  Pr  Pr3  1  0.22475573  0.00959465  0.12388364  1
  Mn  Mn4  1  0.28998791  0.56045699  0.59738914  1
  Mn  Mn5  1  0.70933135  0.47700960  0.39791543  1
  Mn  Mn6  1  0.00532569  0.91988109  0.99889440  1
  Mn  Mn7  1  0.79578223  0.00604241  0.60569776  1
  Mn  Mn8  1  0.18460618  0.98095990  0.39709922  1
  Mn  Mn9  1  0.52470654  0.54223452  0.02724493  1
  Sb  Sb10  1  0.89688002  0.01084736  0.45765024  1
  Sb  Sb11  1  0.11570600  0.97918108  0.55729132  1
  Sb  Sb12  1  0.03554919  0.49424044  0.80936167  1
  Sb  Sb13  1  0.96375694  0.49569811  0.19385548  1
  Sb  Sb14  1  0.39710695  0.49715325  0.45573354  1
  Sb  Sb15  1  0.61520172  0.43744161  0.55865923  1
  Sb  Sb16  1  0.52786646  0.96695515  0.81649415  1
  Sb  Sb17  1  0.46994469  0.03624277  0.19588118  1
  S  S18  1  0.95047534  0.95233923  0.82455656  1
  S  S19  1  0.06883915  0.01368907  0.22047536  1
  S  S20  1  0.42434846  0.96695046  0.99970489  1
  S  S21  1  0.59544860  0.05015776  0.02772739  1
  S  S22  1  0.18986374  0.96970387  0.91266366  1
  S  S23  1  0.84274662  0.00551788  0.11751347  1
  S  S24  1  0.09966820  0.46769407  0.66881018  1
  S  S25  1  0.88478175  0.50175022  0.33598265  1
  S  S26  1  0.73485875  0.94459594  0.31323580  1
  S  S27  1  0.27214341  0.06464418  0.68744995  1
  S  S28  1  0.16142753  0.46885252  0.44768049  1
  S  S29  1  0.83422882  0.45395530  0.54871333  1
  S  S30  1  0.44491001  0.49580270  0.83729820  1
  S  S31  1  0.57903037  0.55557366  0.21450723  1
  S  S32  1  0.92203341  0.49254444  0.99772850  1
  S  S33  1  0.08630143  0.50433370  0.00816444  1
  S  S34  1  0.67949770  0.47479897  0.89866172  1
  S  S35  1  0.35474370  0.48307000  0.12106978  1
  S  S36  1  0.60188834  0.96246660  0.66136205  1
  S  S37  1  0.40923616  0.95244581  0.35001750  1
  S  S38  1  0.25147951  0.52551506  0.29356815  1
  S  S39  1  0.76520276  0.52656836  0.67812014  1
  S  S40  1  0.67496022  0.93662036  0.45086906  1
  S  S41  1  0.32293114  0.05250377  0.54416955  1
