# generated using pymatgen
data_Pr2Mn3(SbS3)4
_symmetry_space_group_name_H-M   'P 1'
_cell_length_a   20.02960800
_cell_length_b   3.90410600
_cell_length_c   14.95364829
_cell_angle_alpha   90.00000000
_cell_angle_beta   126.33350609
_cell_angle_gamma   90.00000000
_symmetry_Int_Tables_number   1
_chemical_formula_structural   Pr2Mn3(SbS3)4
_chemical_formula_sum   'Pr4 Mn6 Sb8 S24'
_cell_volume   942.00006694
_cell_formula_units_Z   2
loop_
 _symmetry_equiv_pos_site_id
 _symmetry_equiv_pos_as_xyz
  1  'x, y, z'
loop_
 _atom_site_type_symbol
 _atom_site_label
 _atom_site_symmetry_multiplicity
 _atom_site_fract_x
 _atom_site_fract_y
 _atom_site_fract_z
 _atom_site_occupancy
  Pr  Pr0  1  0.26683406  0.44550427  0.86304559  1
  Pr  Pr1  1  0.73124767  0.55252827  0.13641458  1
  Pr  Pr2  1  0.77315603  0.97563651  0.87007834  1
  Pr  Pr3  1  0.22473807  0.01052291  0.12389271  1
  Mn  Mn4  1  0.29009487  0.55947397  0.59704126  1
  Mn  Mn5  1  0.70949928  0.47649563  0.39795324  1
  Mn  Mn6  1  0.00521424  0.92008958  0.99874447  1
  Mn  Mn7  1  0.79586404  0.00590151  0.60596039  1
  Mn  Mn8  1  0.18478150  0.98201988  0.39729002  1
  Mn  Mn9  1  0.52478317  0.54346025  0.02689050  1
  Sb  Sb10  1  0.89701645  0.01140873  0.45777877  1
  Sb  Sb11  1  0.11601437  0.97950756  0.55747234  1
  Sb  Sb12  1  0.03550712  0.49438072  0.80942142  1
  Sb  Sb13  1  0.96388707  0.49580590  0.19384182  1
  Sb  Sb14  1  0.39675847  0.49726778  0.45534683  1
  Sb  Sb15  1  0.61515029  0.43721148  0.55866537  1
  Sb  Sb16  1  0.52791891  0.96711900  0.81657568  1
  Sb  Sb17  1  0.46974044  0.03586750  0.19587201  1
  S  S18  1  0.95052198  0.95308540  0.82476859  1
  S  S19  1  0.06891355  0.01496189  0.22057357  1
  S  S20  1  0.42418887  0.96777533  0.00014033  1
  S  S21  1  0.59562526  0.05019945  0.02779211  1
  S  S22  1  0.18978194  0.96749252  0.91260559  1
  S  S23  1  0.84266031  0.00639014  0.11725127  1
  S  S24  1  0.09931336  0.46829855  0.66874410  1
  S  S25  1  0.88502567  0.50378005  0.33608948  1
  S  S26  1  0.73464342  0.94466933  0.31277787  1
  S  S27  1  0.27197784  0.06589315  0.68733165  1
  S  S28  1  0.16150826  0.46903158  0.44740408  1
  S  S29  1  0.83444380  0.45239919  0.54903115  1
  S  S30  1  0.44483524  0.49544206  0.83751108  1
  S  S31  1  0.57881923  0.55727066  0.21464687  1
  S  S32  1  0.92248566  0.49112647  0.99836000  1
  S  S33  1  0.08632872  0.50458612  0.00814081  1
  S  S34  1  0.67942386  0.47355514  0.89838842  1
  S  S35  1  0.35468603  0.48386513  0.12097114  1
  S  S36  1  0.60210749  0.96402791  0.66151786  1
  S  S37  1  0.40937377  0.95306383  0.35045086  1
  S  S38  1  0.25155974  0.52679105  0.29332865  1
  S  S39  1  0.76524844  0.52673686  0.67800961  1
  S  S40  1  0.67501036  0.93509073  0.45136135  1
  S  S41  1  0.32298388  0.05218067  0.54424970  1
