# generated using pymatgen
data_Pr2Mn3(SbS3)4
_symmetry_space_group_name_H-M   'P 1'
_cell_length_a   20.02960800
_cell_length_b   3.90410600
_cell_length_c   14.95364829
_cell_angle_alpha   90.00000000
_cell_angle_beta   126.33350609
_cell_angle_gamma   90.00000000
_symmetry_Int_Tables_number   1
_chemical_formula_structural   Pr2Mn3(SbS3)4
_chemical_formula_sum   'Pr4 Mn6 Sb8 S24'
_cell_volume   942.00006694
_cell_formula_units_Z   2
loop_
 _symmetry_equiv_pos_site_id
 _symmetry_equiv_pos_as_xyz
  1  'x, y, z'
loop_
 _atom_site_type_symbol
 _atom_site_label
 _atom_site_symmetry_multiplicity
 _atom_site_fract_x
 _atom_site_fract_y
 _atom_site_fract_z
 _atom_site_occupancy
  Pr  Pr0  1  0.26668861  0.44527234  0.86307905  1
  Pr  Pr1  1  0.73122199  0.55252591  0.13640581  1
  Pr  Pr2  1  0.77305935  0.97554380  0.87033807  1
  Pr  Pr3  1  0.22480836  0.01139909  0.12399614  1
  Mn  Mn4  1  0.29017127  0.55882889  0.59659540  1
  Mn  Mn5  1  0.70954368  0.47580041  0.39784937  1
  Mn  Mn6  1  0.00503402  0.92055581  0.99864631  1
  Mn  Mn7  1  0.79593462  0.00590777  0.60620394  1
  Mn  Mn8  1  0.18489074  0.98290041  0.39744582  1
  Mn  Mn9  1  0.52486205  0.54450736  0.02655667  1
  Sb  Sb10  1  0.89713233  0.01217318  0.45778312  1
  Sb  Sb11  1  0.11625132  0.97945702  0.55751660  1
  Sb  Sb12  1  0.03548811  0.49444194  0.80944207  1
  Sb  Sb13  1  0.96402626  0.49599843  0.19380405  1
  Sb  Sb14  1  0.39646481  0.49737124  0.45498798  1
  Sb  Sb15  1  0.61513708  0.43696844  0.55860750  1
  Sb  Sb16  1  0.52806409  0.96720760  0.81669019  1
  Sb  Sb17  1  0.46948852  0.03583577  0.19584244  1
  S  S18  1  0.95071838  0.95364392  0.82515046  1
  S  S19  1  0.06899644  0.01589594  0.22050197  1
  S  S20  1  0.42410824  0.96938884  0.00055113  1
  S  S21  1  0.59571582  0.04965017  0.02774970  1
  S  S22  1  0.18970056  0.96547428  0.91251263  1
  S  S23  1  0.84262714  0.00683668  0.11718513  1
  S  S24  1  0.09894541  0.46801415  0.66859419  1
  S  S25  1  0.88515385  0.50499206  0.33608871  1
  S  S26  1  0.73442693  0.94443574  0.31243664  1
  S  S27  1  0.27195812  0.06701978  0.68744468  1
  S  S28  1  0.16180431  0.46904808  0.44741924  1
  S  S29  1  0.83471717  0.45041533  0.54952315  1
  S  S30  1  0.44482625  0.49583690  0.83766546  1
  S  S31  1  0.57855848  0.55892718  0.21459395  1
  S  S32  1  0.92291414  0.48970832  0.99900901  1
  S  S33  1  0.08649623  0.50485245  0.00818557  1
  S  S34  1  0.67918246  0.47196435  0.89792164  1
  S  S35  1  0.35464144  0.48476527  0.12088412  1
  S  S36  1  0.60233900  0.96576620  0.66177799  1
  S  S37  1  0.40953568  0.95355197  0.35083423  1
  S  S38  1  0.25160609  0.52816232  0.29317286  1
  S  S39  1  0.76519513  0.52647277  0.67797985  1
  S  S40  1  0.67523438  0.93449194  0.45195746  1
  S  S41  1  0.32298190  0.05223847  0.54419741  1
