# generated using pymatgen
data_Pr2Mn3(SbS3)4
_symmetry_space_group_name_H-M   'P 1'
_cell_length_a   20.02960800
_cell_length_b   3.90410600
_cell_length_c   14.95364829
_cell_angle_alpha   90.00000000
_cell_angle_beta   126.33350609
_cell_angle_gamma   90.00000000
_symmetry_Int_Tables_number   1
_chemical_formula_structural   Pr2Mn3(SbS3)4
_chemical_formula_sum   'Pr4 Mn6 Sb8 S24'
_cell_volume   942.00006694
_cell_formula_units_Z   2
loop_
 _symmetry_equiv_pos_site_id
 _symmetry_equiv_pos_as_xyz
  1  'x, y, z'
loop_
 _atom_site_type_symbol
 _atom_site_label
 _atom_site_symmetry_multiplicity
 _atom_site_fract_x
 _atom_site_fract_y
 _atom_site_fract_z
 _atom_site_occupancy
  Pr  Pr0  1  0.26967148  0.50580714  0.86954207  1
  Pr  Pr1  1  0.73452823  0.51361598  0.13520156  1
  Pr  Pr2  1  0.76434133  0.03113904  0.86803175  1
  Pr  Pr3  1  0.22941191  0.97996994  0.13011836  1
  Mn  Mn4  1  0.30039489  0.46300173  0.60898562  1
  Mn  Mn5  1  0.68529824  0.46906805  0.36482242  1
  Mn  Mn6  1  0.00190380  0.98923359  0.00938994  1
  Mn  Mn7  1  0.79244251  0.02826951  0.61424032  1
  Mn  Mn8  1  0.19598151  0.00714201  0.36761996  1
  Mn  Mn9  1  0.48198800  0.47187817  0.98225296  1
  Sb  Sb10  1  0.89029375  0.98465122  0.44836339  1
  Sb  Sb11  1  0.11153366  0.98104400  0.54729497  1
  Sb  Sb12  1  0.03650820  0.52718812  0.82301469  1
  Sb  Sb13  1  0.96833829  0.48905972  0.19174952  1
  Sb  Sb14  1  0.39607116  0.49874324  0.45220074  1
  Sb  Sb15  1  0.61144777  0.48152165  0.54804618  1
  Sb  Sb16  1  0.53030746  0.97037935  0.80502672  1
  Sb  Sb17  1  0.46573693  0.02380502  0.18672586  1
  S  S18  1  0.94129673  0.02032638  0.80936249  1
  S  S19  1  0.06621439  0.00445654  0.20682824  1
  S  S20  1  0.41773652  0.97638503  0.97932310  1
  S  S21  1  0.58672811  0.02359647  0.01227731  1
  S  S22  1  0.16273464  0.03417360  0.89903124  1
  S  S23  1  0.82642312  0.99769936  0.10448369  1
  S  S24  1  0.08596337  0.49837742  0.63735136  1
  S  S25  1  0.91531916  0.48404290  0.35311904  1
  S  S26  1  0.73418535  0.01316433  0.29399626  1
  S  S27  1  0.26007542  0.01220329  0.70616935  1
  S  S28  1  0.16909888  0.52105208  0.43768412  1
  S  S29  1  0.80910201  0.51524753  0.53854382  1
  S  S30  1  0.43349092  0.48028439  0.80241044  1
  S  S31  1  0.55397050  0.50308157  0.18143972  1
  S  S32  1  0.92380393  0.50834883  0.98993283  1
  S  S33  1  0.09131464  0.49698065  0.02736657  1
  S  S34  1  0.66761536  0.55753003  0.89652885  1
  S  S35  1  0.32890673  0.46220322  0.09767944  1
  S  S36  1  0.58852417  0.00023196  0.64788622  1
  S  S37  1  0.39515835  0.98484740  0.33382958  1
  S  S38  1  0.24706963  0.47583641  0.31704181  1
  S  S39  1  0.76373314  0.50926262  0.69174990  1
  S  S40  1  0.65873069  0.98278715  0.43806303  1
  S  S41  1  0.32950714  0.98326935  0.55185012  1
