# generated using pymatgen
data_Pr2Mn3(SbS3)4
_symmetry_space_group_name_H-M   'P 1'
_cell_length_a   20.02960800
_cell_length_b   3.90410600
_cell_length_c   14.95364829
_cell_angle_alpha   90.00000000
_cell_angle_beta   126.33350609
_cell_angle_gamma   90.00000000
_symmetry_Int_Tables_number   1
_chemical_formula_structural   Pr2Mn3(SbS3)4
_chemical_formula_sum   'Pr4 Mn6 Sb8 S24'
_cell_volume   942.00006694
_cell_formula_units_Z   2
loop_
 _symmetry_equiv_pos_site_id
 _symmetry_equiv_pos_as_xyz
  1  'x, y, z'
loop_
 _atom_site_type_symbol
 _atom_site_label
 _atom_site_symmetry_multiplicity
 _atom_site_fract_x
 _atom_site_fract_y
 _atom_site_fract_z
 _atom_site_occupancy
  Pr  Pr0  1  0.26659680  0.44472282  0.86313719  1
  Pr  Pr1  1  0.73123260  0.55279063  0.13640719  1
  Pr  Pr2  1  0.77298624  0.97537239  0.87056943  1
  Pr  Pr3  1  0.22490015  0.01230812  0.12416000  1
  Mn  Mn4  1  0.29019231  0.55839681  0.59615745  1
  Mn  Mn5  1  0.70955922  0.47511054  0.39776242  1
  Mn  Mn6  1  0.00482181  0.92072651  0.99838377  1
  Mn  Mn7  1  0.79599440  0.00553288  0.60630151  1
  Mn  Mn8  1  0.18497697  0.98376063  0.39765612  1
  Mn  Mn9  1  0.52506255  0.54572635  0.02651788  1
  Sb  Sb10  1  0.89720178  0.01299698  0.45776240  1
  Sb  Sb11  1  0.11648738  0.97958707  0.55759455  1
  Sb  Sb12  1  0.03548438  0.49445812  0.80938662  1
  Sb  Sb13  1  0.96418490  0.49573093  0.19383419  1
  Sb  Sb14  1  0.39616586  0.49768918  0.45465141  1
  Sb  Sb15  1  0.61521108  0.43670937  0.55864494  1
  Sb  Sb16  1  0.52823868  0.96720272  0.81687505  1
  Sb  Sb17  1  0.46925422  0.03553006  0.19581488  1
  S  S18  1  0.95075842  0.95416784  0.82533052  1
  S  S19  1  0.06902144  0.01659791  0.22019798  1
  S  S20  1  0.42404744  0.97080094  0.00085500  1
  S  S21  1  0.59580294  0.04893594  0.02773592  1
  S  S22  1  0.18982685  0.96337137  0.91246630  1
  S  S23  1  0.84269261  0.00752298  0.11710695  1
  S  S24  1  0.09872200  0.46796698  0.66864695  1
  S  S25  1  0.88532784  0.50574813  0.33604147  1
  S  S26  1  0.73432857  0.94468345  0.31205292  1
  S  S27  1  0.27195657  0.06832182  0.68772896  1
  S  S28  1  0.16211938  0.46927530  0.44754594  1
  S  S29  1  0.83498405  0.44876641  0.55019731  1
  S  S30  1  0.44478025  0.49621932  0.83771745  1
  S  S31  1  0.57839349  0.55981894  0.21469383  1
  S  S32  1  0.92321290  0.48783561  0.99939979  1
  S  S33  1  0.08676429  0.50561384  0.00842957  1
  S  S34  1  0.67910640  0.47008434  0.89762165  1
  S  S35  1  0.35463118  0.48486565  0.12092285  1
  S  S36  1  0.60257355  0.96729710  0.66216581  1
  S  S37  1  0.40981178  0.95419200  0.35138050  1
  S  S38  1  0.25162225  0.52926534  0.29300426  1
  S  S39  1  0.76510351  0.52648541  0.67777613  1
  S  S40  1  0.67547779  0.93325040  0.45266792  1
  S  S41  1  0.32306453  0.05212015  0.54410714  1
