# generated using pymatgen
data_Pr2Mn3(SbS3)4
_symmetry_space_group_name_H-M   'P 1'
_cell_length_a   20.02960800
_cell_length_b   3.90410600
_cell_length_c   14.95364829
_cell_angle_alpha   90.00000000
_cell_angle_beta   126.33350609
_cell_angle_gamma   90.00000000
_symmetry_Int_Tables_number   1
_chemical_formula_structural   Pr2Mn3(SbS3)4
_chemical_formula_sum   'Pr4 Mn6 Sb8 S24'
_cell_volume   942.00006694
_cell_formula_units_Z   2
loop_
 _symmetry_equiv_pos_site_id
 _symmetry_equiv_pos_as_xyz
  1  'x, y, z'
loop_
 _atom_site_type_symbol
 _atom_site_label
 _atom_site_symmetry_multiplicity
 _atom_site_fract_x
 _atom_site_fract_y
 _atom_site_fract_z
 _atom_site_occupancy
  Pr  Pr0  1  0.26654687  0.44420673  0.86314270  1
  Pr  Pr1  1  0.73121842  0.55327744  0.13636454  1
  Pr  Pr2  1  0.77303621  0.97525128  0.87087942  1
  Pr  Pr3  1  0.22490078  0.01319437  0.12423113  1
  Mn  Mn4  1  0.29014236  0.55838870  0.59555704  1
  Mn  Mn5  1  0.70961077  0.47489564  0.39784221  1
  Mn  Mn6  1  0.00459985  0.92088493  0.99820596  1
  Mn  Mn7  1  0.79599576  0.00462859  0.60630462  1
  Mn  Mn8  1  0.18512945  0.98453995  0.39793852  1
  Mn  Mn9  1  0.52536707  0.54657361  0.02661798  1
  Sb  Sb10  1  0.89725595  0.01382076  0.45768207  1
  Sb  Sb11  1  0.11672623  0.97968326  0.55767911  1
  Sb  Sb12  1  0.03547565  0.49410982  0.80940848  1
  Sb  Sb13  1  0.96437670  0.49545504  0.19389980  1
  Sb  Sb14  1  0.39585451  0.49777148  0.45439902  1
  Sb  Sb15  1  0.61525868  0.43642557  0.55860389  1
  Sb  Sb16  1  0.52834868  0.96716969  0.81698635  1
  Sb  Sb17  1  0.46900846  0.03551436  0.19578197  1
  S  S18  1  0.95084063  0.95432234  0.82542780  1
  S  S19  1  0.06910568  0.01722038  0.21991987  1
  S  S20  1  0.42406539  0.97171127  0.00113657  1
  S  S21  1  0.59587823  0.04808127  0.02784498  1
  S  S22  1  0.19000300  0.96127087  0.91239814  1
  S  S23  1  0.84264438  0.00797712  0.11702854  1
  S  S24  1  0.09845182  0.46758760  0.66865867  1
  S  S25  1  0.88549575  0.50632482  0.33597341  1
  S  S26  1  0.73436514  0.94463381  0.31183304  1
  S  S27  1  0.27205068  0.06938625  0.68810863  1
  S  S28  1  0.16253523  0.46954552  0.44777579  1
  S  S29  1  0.83523112  0.44727375  0.55071131  1
  S  S30  1  0.44473256  0.49644151  0.83770775  1
  S  S31  1  0.57820975  0.56057630  0.21488211  1
  S  S32  1  0.92354836  0.48608635  0.99981015  1
  S  S33  1  0.08699499  0.50655337  0.00847048  1
  S  S34  1  0.67904809  0.46794099  0.89735300  1
  S  S35  1  0.35454720  0.48440473  0.12086135  1
  S  S36  1  0.60288125  0.96851562  0.66254412  1
  S  S37  1  0.41011260  0.95519000  0.35195374  1
  S  S38  1  0.25159046  0.53074328  0.29275099  1
  S  S39  1  0.76515712  0.52647788  0.67770006  1
  S  S40  1  0.67558100  0.93211825  0.45324580  1
  S  S41  1  0.32322882  0.05208315  0.54400522  1
