# generated using pymatgen
data_Pr2Mn3(SbS3)4
_symmetry_space_group_name_H-M   'P 1'
_cell_length_a   20.02960800
_cell_length_b   3.90410600
_cell_length_c   14.95364829
_cell_angle_alpha   90.00000000
_cell_angle_beta   126.33350609
_cell_angle_gamma   90.00000000
_symmetry_Int_Tables_number   1
_chemical_formula_structural   Pr2Mn3(SbS3)4
_chemical_formula_sum   'Pr4 Mn6 Sb8 S24'
_cell_volume   942.00006694
_cell_formula_units_Z   2
loop_
 _symmetry_equiv_pos_site_id
 _symmetry_equiv_pos_as_xyz
  1  'x, y, z'
loop_
 _atom_site_type_symbol
 _atom_site_label
 _atom_site_symmetry_multiplicity
 _atom_site_fract_x
 _atom_site_fract_y
 _atom_site_fract_z
 _atom_site_occupancy
  Pr  Pr0  1  0.26646251  0.44430592  0.86308128  1
  Pr  Pr1  1  0.73118390  0.55375383  0.13635910  1
  Pr  Pr2  1  0.77314842  0.97521373  0.87116074  1
  Pr  Pr3  1  0.22491970  0.01439865  0.12429972  1
  Mn  Mn4  1  0.29010921  0.55860764  0.59507329  1
  Mn  Mn5  1  0.70969011  0.47450706  0.39794427  1
  Mn  Mn6  1  0.00428451  0.92114465  0.99800732  1
  Mn  Mn7  1  0.79613069  0.00405387  0.60648361  1
  Mn  Mn8  1  0.18511372  0.98512405  0.39808045  1
  Mn  Mn9  1  0.52575439  0.54701597  0.02683457  1
  Sb  Sb10  1  0.89734466  0.01461992  0.45770297  1
  Sb  Sb11  1  0.11696570  0.97964750  0.55775452  1
  Sb  Sb12  1  0.03547817  0.49409246  0.80941359  1
  Sb  Sb13  1  0.96457221  0.49531094  0.19398959  1
  Sb  Sb14  1  0.39557317  0.49771950  0.45424361  1
  Sb  Sb15  1  0.61534859  0.43631161  0.55863254  1
  Sb  Sb16  1  0.52850175  0.96737181  0.81716264  1
  Sb  Sb17  1  0.46882505  0.03567202  0.19575396  1
  S  S18  1  0.95104332  0.95474814  0.82565156  1
  S  S19  1  0.06916631  0.01728902  0.21952000  1
  S  S20  1  0.42419162  0.97176830  0.00164116  1
  S  S21  1  0.59587679  0.04699275  0.02797735  1
  S  S22  1  0.19014513  0.95972089  0.91240183  1
  S  S23  1  0.84251284  0.00852960  0.11678389  1
  S  S24  1  0.09823026  0.46836009  0.66856900  1
  S  S25  1  0.88555262  0.50722439  0.33602525  1
  S  S26  1  0.73444384  0.94473594  0.31169791  1
  S  S27  1  0.27204105  0.06932757  0.68844807  1
  S  S28  1  0.16270109  0.46925047  0.44772171  1
  S  S29  1  0.83541840  0.44648952  0.55086433  1
  S  S30  1  0.44465587  0.49569632  0.83761001  1
  S  S31  1  0.57790211  0.56108382  0.21480859  1
  S  S32  1  0.92383284  0.48440582  0.00017058  1
  S  S33  1  0.08722175  0.50681980  0.00850902  1
  S  S34  1  0.67911975  0.46575267  0.89723717  1
  S  S35  1  0.35451295  0.48358636  0.12082702  1
  S  S36  1  0.60334908  0.96920630  0.66300092  1
  S  S37  1  0.41029807  0.95627929  0.35247272  1
  S  S38  1  0.25139325  0.53201708  0.29241630  1
  S  S39  1  0.76513161  0.52637442  0.67755078  1
  S  S40  1  0.67572123  0.93099963  0.45372026  1
  S  S41  1  0.32347703  0.05242451  0.54403034  1
