# generated using pymatgen
data_Pr2Mn3(SbS3)4
_symmetry_space_group_name_H-M   'P 1'
_cell_length_a   20.02960800
_cell_length_b   3.90410600
_cell_length_c   14.95364829
_cell_angle_alpha   90.00000000
_cell_angle_beta   126.33350609
_cell_angle_gamma   90.00000000
_symmetry_Int_Tables_number   1
_chemical_formula_structural   Pr2Mn3(SbS3)4
_chemical_formula_sum   'Pr4 Mn6 Sb8 S24'
_cell_volume   942.00006694
_cell_formula_units_Z   2
loop_
 _symmetry_equiv_pos_site_id
 _symmetry_equiv_pos_as_xyz
  1  'x, y, z'
loop_
 _atom_site_type_symbol
 _atom_site_label
 _atom_site_symmetry_multiplicity
 _atom_site_fract_x
 _atom_site_fract_y
 _atom_site_fract_z
 _atom_site_occupancy
  Pr  Pr0  1  0.26627917  0.44446409  0.86291307  1
  Pr  Pr1  1  0.73112797  0.55389716  0.13630069  1
  Pr  Pr2  1  0.77319717  0.97506952  0.87127870  1
  Pr  Pr3  1  0.22488827  0.01515860  0.12426921  1
  Mn  Mn4  1  0.29012025  0.55842293  0.59461252  1
  Mn  Mn5  1  0.70963253  0.47423518  0.39787615  1
  Mn  Mn6  1  0.00404107  0.92164024  0.99782416  1
  Mn  Mn7  1  0.79626952  0.00346187  0.60670569  1
  Mn  Mn8  1  0.18503898  0.98536793  0.39819924  1
  Mn  Mn9  1  0.52604636  0.54749127  0.02695127  1
  Sb  Sb10  1  0.89738054  0.01515019  0.45765440  1
  Sb  Sb11  1  0.11714816  0.97992728  0.55779020  1
  Sb  Sb12  1  0.03545204  0.49405594  0.80941996  1
  Sb  Sb13  1  0.96479771  0.49528601  0.19406066  1
  Sb  Sb14  1  0.39537310  0.49775834  0.45410356  1
  Sb  Sb15  1  0.61542663  0.43617766  0.55862403  1
  Sb  Sb16  1  0.52865553  0.96752953  0.81724862  1
  Sb  Sb17  1  0.46863405  0.03567799  0.19570774  1
  S  S18  1  0.95115307  0.95504729  0.82563080  1
  S  S19  1  0.06919785  0.01724134  0.21919511  1
  S  S20  1  0.42427049  0.97177544  0.00206106  1
  S  S21  1  0.59599087  0.04590544  0.02812548  1
  S  S22  1  0.19035251  0.95779959  0.91241190  1
  S  S23  1  0.84227198  0.00892966  0.11656715  1
  S  S24  1  0.09799988  0.46937530  0.66838970  1
  S  S25  1  0.88559264  0.50822843  0.33603787  1
  S  S26  1  0.73435628  0.94463339  0.31141110  1
  S  S27  1  0.27206259  0.06929662  0.68874901  1
  S  S28  1  0.16275565  0.46935749  0.44757508  1
  S  S29  1  0.83550981  0.44563968  0.55090866  1
  S  S30  1  0.44460644  0.49554160  0.83740354  1
  S  S31  1  0.57763824  0.56205907  0.21492150  1
  S  S32  1  0.92415529  0.48328580  0.00053041  1
  S  S33  1  0.08742001  0.50717009  0.00856198  1
  S  S34  1  0.67923130  0.46366758  0.89712536  1
  S  S35  1  0.35448422  0.48252378  0.12055781  1
  S  S36  1  0.60376803  0.97007036  0.66353534  1
  S  S37  1  0.41047327  0.95758860  0.35305327  1
  S  S38  1  0.25105238  0.53200195  0.29201753  1
  S  S39  1  0.76505777  0.52622865  0.67741709  1
  S  S40  1  0.67591889  0.92998491  0.45431533  1
  S  S41  1  0.32366532  0.05306536  0.54409207  1
