# generated using pymatgen
data_Pr2Mn3(SbS3)4
_symmetry_space_group_name_H-M   'P 1'
_cell_length_a   20.02960800
_cell_length_b   3.90410600
_cell_length_c   14.95364829
_cell_angle_alpha   90.00000000
_cell_angle_beta   126.33350609
_cell_angle_gamma   90.00000000
_symmetry_Int_Tables_number   1
_chemical_formula_structural   Pr2Mn3(SbS3)4
_chemical_formula_sum   'Pr4 Mn6 Sb8 S24'
_cell_volume   942.00006694
_cell_formula_units_Z   2
loop_
 _symmetry_equiv_pos_site_id
 _symmetry_equiv_pos_as_xyz
  1  'x, y, z'
loop_
 _atom_site_type_symbol
 _atom_site_label
 _atom_site_symmetry_multiplicity
 _atom_site_fract_x
 _atom_site_fract_y
 _atom_site_fract_z
 _atom_site_occupancy
  Pr  Pr0  1  0.26608419  0.44507498  0.86271294  1
  Pr  Pr1  1  0.73102692  0.55403054  0.13623719  1
  Pr  Pr2  1  0.77321982  0.97493641  0.87137772  1
  Pr  Pr3  1  0.22480961  0.01608684  0.12420324  1
  Mn  Mn4  1  0.28996325  0.55851444  0.59405212  1
  Mn  Mn5  1  0.70956018  0.47414501  0.39793650  1
  Mn  Mn6  1  0.00378093  0.92238077  0.99774561  1
  Mn  Mn7  1  0.79652518  0.00321068  0.60698831  1
  Mn  Mn8  1  0.18497192  0.98541846  0.39833416  1
  Mn  Mn9  1  0.52635384  0.54836777  0.02709055  1
  Sb  Sb10  1  0.89735022  0.01564915  0.45753591  1
  Sb  Sb11  1  0.11733927  0.98037682  0.55779913  1
  Sb  Sb12  1  0.03546192  0.49394175  0.80947029  1
  Sb  Sb13  1  0.96497248  0.49501747  0.19411662  1
  Sb  Sb14  1  0.39525618  0.49786902  0.45401879  1
  Sb  Sb15  1  0.61552563  0.43590525  0.55867024  1
  Sb  Sb16  1  0.52884849  0.96775064  0.81732857  1
  Sb  Sb17  1  0.46855981  0.03569943  0.19574517  1
  S  S18  1  0.95130084  0.95503095  0.82546042  1
  S  S19  1  0.06931678  0.01668505  0.21893746  1
  S  S20  1  0.42429729  0.97138895  0.00228587  1
  S  S21  1  0.59610246  0.04406140  0.02828005  1
  S  S22  1  0.19052765  0.95608192  0.91246651  1
  S  S23  1  0.84204663  0.00974215  0.11628474  1
  S  S24  1  0.09765222  0.46983600  0.66811939  1
  S  S25  1  0.88566962  0.50816438  0.33605974  1
  S  S26  1  0.73418412  0.94463844  0.31095679  1
  S  S27  1  0.27216092  0.06947701  0.68882879  1
  S  S28  1  0.16279411  0.46966402  0.44741980  1
  S  S29  1  0.83571469  0.44472999  0.55109199  1
  S  S30  1  0.44440580  0.49538508  0.83703739  1
  S  S31  1  0.57753310  0.56231778  0.21501945  1
  S  S32  1  0.92443955  0.48194024  0.00086005  1
  S  S33  1  0.08750789  0.50722428  0.00848833  1
  S  S34  1  0.67934791  0.46140510  0.89719904  1
  S  S35  1  0.35450487  0.48204548  0.12022781  1
  S  S36  1  0.60431798  0.97032103  0.66397477  1
  S  S37  1  0.41067251  0.95899559  0.35357017  1
  S  S38  1  0.25070115  0.53257530  0.29168224  1
  S  S39  1  0.76511291  0.52571842  0.67731700  1
  S  S40  1  0.67619337  0.92926926  0.45482049  1
  S  S41  1  0.32380733  0.05377282  0.54396753  1
