# generated using pymatgen
data_Pr2Mn3(SbS3)4
_symmetry_space_group_name_H-M   'P 1'
_cell_length_a   20.02960800
_cell_length_b   3.90410600
_cell_length_c   14.95364829
_cell_angle_alpha   90.00000000
_cell_angle_beta   126.33350609
_cell_angle_gamma   90.00000000
_symmetry_Int_Tables_number   1
_chemical_formula_structural   Pr2Mn3(SbS3)4
_chemical_formula_sum   'Pr4 Mn6 Sb8 S24'
_cell_volume   942.00006694
_cell_formula_units_Z   2
loop_
 _symmetry_equiv_pos_site_id
 _symmetry_equiv_pos_as_xyz
  1  'x, y, z'
loop_
 _atom_site_type_symbol
 _atom_site_label
 _atom_site_symmetry_multiplicity
 _atom_site_fract_x
 _atom_site_fract_y
 _atom_site_fract_z
 _atom_site_occupancy
  Pr  Pr0  1  0.26595476  0.44541450  0.86253313  1
  Pr  Pr1  1  0.73087734  0.55403020  0.13600605  1
  Pr  Pr2  1  0.77331403  0.97477717  0.87148042  1
  Pr  Pr3  1  0.22479549  0.01695706  0.12411031  1
  Mn  Mn4  1  0.28977557  0.55925818  0.59347770  1
  Mn  Mn5  1  0.70953144  0.47416126  0.39797095  1
  Mn  Mn6  1  0.00346007  0.92238836  0.99764495  1
  Mn  Mn7  1  0.79675912  0.00302750  0.60724393  1
  Mn  Mn8  1  0.18489869  0.98557528  0.39847637  1
  Mn  Mn9  1  0.52661013  0.54898554  0.02726887  1
  Sb  Sb10  1  0.89732109  0.01614523  0.45752720  1
  Sb  Sb11  1  0.11750498  0.98119028  0.55783342  1
  Sb  Sb12  1  0.03543505  0.49392012  0.80948831  1
  Sb  Sb13  1  0.96517988  0.49472148  0.19425942  1
  Sb  Sb14  1  0.39518802  0.49792870  0.45398061  1
  Sb  Sb15  1  0.61561937  0.43562774  0.55876912  1
  Sb  Sb16  1  0.52909561  0.96794352  0.81753039  1
  Sb  Sb17  1  0.46849237  0.03567805  0.19574183  1
  S  S18  1  0.95132821  0.95510279  0.82505919  1
  S  S19  1  0.06928829  0.01599077  0.21867210  1
  S  S20  1  0.42416949  0.97176947  0.00245135  1
  S  S21  1  0.59646338  0.04252291  0.02855400  1
  S  S22  1  0.19057578  0.95511806  0.91237105  1
  S  S23  1  0.84179904  0.01028166  0.11599154  1
  S  S24  1  0.09744515  0.47009540  0.66792401  1
  S  S25  1  0.88580655  0.50813611  0.33623860  1
  S  S26  1  0.73398431  0.94392481  0.31048637  1
  S  S27  1  0.27239820  0.06940771  0.68903095  1
  S  S28  1  0.16265636  0.46948488  0.44707306  1
  S  S29  1  0.83586051  0.44429884  0.55125736  1
  S  S30  1  0.44426428  0.49475361  0.83673030  1
  S  S31  1  0.57734526  0.56234661  0.21501625  1
  S  S32  1  0.92456996  0.48100858  0.00109670  1
  S  S33  1  0.08751707  0.50773841  0.00836261  1
  S  S34  1  0.67940347  0.45977248  0.89716762  1
  S  S35  1  0.35441899  0.48143861  0.11978884  1
  S  S36  1  0.60493264  0.97055297  0.66446125  1
  S  S37  1  0.41088252  0.95985768  0.35382087  1
  S  S38  1  0.25041404  0.53324730  0.29136884  1
  S  S39  1  0.76510581  0.52581559  0.67727084  1
  S  S40  1  0.67631286  0.92768843  0.45511874  1
  S  S41  1  0.32401287  0.05483963  0.54394237  1
