# generated using pymatgen
data_Pr2Mn3(SbS3)4
_symmetry_space_group_name_H-M   'P 1'
_cell_length_a   20.02960800
_cell_length_b   3.90410600
_cell_length_c   14.95364829
_cell_angle_alpha   90.00000000
_cell_angle_beta   126.33350609
_cell_angle_gamma   90.00000000
_symmetry_Int_Tables_number   1
_chemical_formula_structural   Pr2Mn3(SbS3)4
_chemical_formula_sum   'Pr4 Mn6 Sb8 S24'
_cell_volume   942.00006694
_cell_formula_units_Z   2
loop_
 _symmetry_equiv_pos_site_id
 _symmetry_equiv_pos_as_xyz
  1  'x, y, z'
loop_
 _atom_site_type_symbol
 _atom_site_label
 _atom_site_symmetry_multiplicity
 _atom_site_fract_x
 _atom_site_fract_y
 _atom_site_fract_z
 _atom_site_occupancy
  Pr  Pr0  1  0.26583475  0.44574883  0.86240827  1
  Pr  Pr1  1  0.73076114  0.55385150  0.13589045  1
  Pr  Pr2  1  0.77338768  0.97440508  0.87156093  1
  Pr  Pr3  1  0.22476493  0.01766048  0.12407169  1
  Mn  Mn4  1  0.28950701  0.55959177  0.59298232  1
  Mn  Mn5  1  0.70948358  0.47438225  0.39801253  1
  Mn  Mn6  1  0.00306240  0.92266171  0.99759767  1
  Mn  Mn7  1  0.79688564  0.00270917  0.60735723  1
  Mn  Mn8  1  0.18489740  0.98576454  0.39861458  1
  Mn  Mn9  1  0.52691438  0.54884787  0.02745938  1
  Sb  Sb10  1  0.89730620  0.01651429  0.45736718  1
  Sb  Sb11  1  0.11761738  0.98196806  0.55777402  1
  Sb  Sb12  1  0.03540605  0.49364417  0.80953472  1
  Sb  Sb13  1  0.96543279  0.49467797  0.19446872  1
  Sb  Sb14  1  0.39523469  0.49836985  0.45406980  1
  Sb  Sb15  1  0.61574631  0.43541609  0.55882176  1
  Sb  Sb16  1  0.52924961  0.96817973  0.81764849  1
  Sb  Sb17  1  0.46848134  0.03582705  0.19576850  1
  S  S18  1  0.95129645  0.95520551  0.82449828  1
  S  S19  1  0.06927820  0.01548447  0.21861691  1
  S  S20  1  0.42399868  0.97197961  0.00272666  1
  S  S21  1  0.59690388  0.04090779  0.02882627  1
  S  S22  1  0.19077838  0.95400806  0.91246238  1
  S  S23  1  0.84155173  0.01135472  0.11579172  1
  S  S24  1  0.09724268  0.47043243  0.66781037  1
  S  S25  1  0.88583885  0.50764244  0.33641227  1
  S  S26  1  0.73377110  0.94269971  0.30999202  1
  S  S27  1  0.27258319  0.06831868  0.68918645  1
  S  S28  1  0.16246200  0.46967179  0.44661004  1
  S  S29  1  0.83601768  0.44420815  0.55157679  1
  S  S30  1  0.44427342  0.49419097  0.83654304  1
  S  S31  1  0.57724170  0.56185057  0.21501191  1
  S  S32  1  0.92480447  0.48054377  0.00135055  1
  S  S33  1  0.08757107  0.50855105  0.00845312  1
  S  S34  1  0.67955999  0.45833705  0.89733421  1
  S  S35  1  0.35439578  0.48039706  0.11918714  1
  S  S36  1  0.60551838  0.97083162  0.66491037  1
  S  S37  1  0.41097191  0.96101799  0.35401229  1
  S  S38  1  0.25026661  0.53375408  0.29134437  1
  S  S39  1  0.76496770  0.52586951  0.67710430  1
  S  S40  1  0.67636300  0.92625635  0.45546836  1
  S  S41  1  0.32432930  0.05559156  0.54372951  1
