# generated using pymatgen
data_Pr2Mn3(SbS3)4
_symmetry_space_group_name_H-M   'P 1'
_cell_length_a   20.02960800
_cell_length_b   3.90410600
_cell_length_c   14.95364829
_cell_angle_alpha   90.00000000
_cell_angle_beta   126.33350609
_cell_angle_gamma   90.00000000
_symmetry_Int_Tables_number   1
_chemical_formula_structural   Pr2Mn3(SbS3)4
_chemical_formula_sum   'Pr4 Mn6 Sb8 S24'
_cell_volume   942.00006694
_cell_formula_units_Z   2
loop_
 _symmetry_equiv_pos_site_id
 _symmetry_equiv_pos_as_xyz
  1  'x, y, z'
loop_
 _atom_site_type_symbol
 _atom_site_label
 _atom_site_symmetry_multiplicity
 _atom_site_fract_x
 _atom_site_fract_y
 _atom_site_fract_z
 _atom_site_occupancy
  Pr  Pr0  1  0.26580728  0.44616861  0.86239409  1
  Pr  Pr1  1  0.73063241  0.55368258  0.13578662  1
  Pr  Pr2  1  0.77343023  0.97399013  0.87165071  1
  Pr  Pr3  1  0.22479959  0.01860025  0.12395784  1
  Mn  Mn4  1  0.28913084  0.55965824  0.59240159  1
  Mn  Mn5  1  0.70943808  0.47464668  0.39813451  1
  Mn  Mn6  1  0.00276981  0.92310070  0.99756592  1
  Mn  Mn7  1  0.79700637  0.00251199  0.60739163  1
  Mn  Mn8  1  0.18478255  0.98585687  0.39859345  1
  Mn  Mn9  1  0.52732531  0.54853113  0.02769144  1
  Sb  Sb10  1  0.89734455  0.01631252  0.45727719  1
  Sb  Sb11  1  0.11767081  0.98247741  0.55771453  1
  Sb  Sb12  1  0.03538287  0.49368042  0.80951088  1
  Sb  Sb13  1  0.96563027  0.49451998  0.19464601  1
  Sb  Sb14  1  0.39527469  0.49874944  0.45419532  1
  Sb  Sb15  1  0.61582333  0.43522296  0.55889140  1
  Sb  Sb16  1  0.52932344  0.96856198  0.81770424  1
  Sb  Sb17  1  0.46851016  0.03598818  0.19581030  1
  S  S18  1  0.95131130  0.95630147  0.82396862  1
  S  S19  1  0.06936880  0.01518432  0.21865440  1
  S  S20  1  0.42391615  0.97244464  0.00312835  1
  S  S21  1  0.59753814  0.03947584  0.02919886  1
  S  S22  1  0.19098149  0.95375675  0.91261502  1
  S  S23  1  0.84131453  0.01286308  0.11549308  1
  S  S24  1  0.09710343  0.47044292  0.66766690  1
  S  S25  1  0.88591429  0.50767258  0.33643513  1
  S  S26  1  0.73344645  0.94138553  0.30942046  1
  S  S27  1  0.27265555  0.06734925  0.68937916  1
  S  S28  1  0.16239083  0.46949360  0.44628642  1
  S  S29  1  0.83636118  0.44390474  0.55211871  1
  S  S30  1  0.44439214  0.49278785  0.83651951  1
  S  S31  1  0.57724291  0.56039017  0.21509582  1
  S  S32  1  0.92516064  0.47967841  0.00161787  1
  S  S33  1  0.08776360  0.50926252  0.00869088  1
  S  S34  1  0.67970914  0.45733544  0.89732668  1
  S  S35  1  0.35453188  0.47915537  0.11871892  1
  S  S36  1  0.60597544  0.97031252  0.66544297  1
  S  S37  1  0.41118478  0.96173785  0.35428746  1
  S  S38  1  0.25005870  0.53367705  0.29132192  1
  S  S39  1  0.76484907  0.52644144  0.67683749  1
  S  S40  1  0.67632128  0.92508699  0.45566391  1
  S  S41  1  0.32460148  0.05611626  0.54341594  1
