# generated using pymatgen
data_Pr2Mn3(SbS3)4
_symmetry_space_group_name_H-M   'P 1'
_cell_length_a   20.02960800
_cell_length_b   3.90410600
_cell_length_c   14.95364829
_cell_angle_alpha   90.00000000
_cell_angle_beta   126.33350609
_cell_angle_gamma   90.00000000
_symmetry_Int_Tables_number   1
_chemical_formula_structural   Pr2Mn3(SbS3)4
_chemical_formula_sum   'Pr4 Mn6 Sb8 S24'
_cell_volume   942.00006694
_cell_formula_units_Z   2
loop_
 _symmetry_equiv_pos_site_id
 _symmetry_equiv_pos_as_xyz
  1  'x, y, z'
loop_
 _atom_site_type_symbol
 _atom_site_label
 _atom_site_symmetry_multiplicity
 _atom_site_fract_x
 _atom_site_fract_y
 _atom_site_fract_z
 _atom_site_occupancy
  Pr  Pr0  1  0.26576653  0.44654588  0.86237972  1
  Pr  Pr1  1  0.73046047  0.55389320  0.13562176  1
  Pr  Pr2  1  0.77340837  0.97356318  0.87166701  1
  Pr  Pr3  1  0.22479135  0.01934843  0.12373414  1
  Mn  Mn4  1  0.28884637  0.55961835  0.59194364  1
  Mn  Mn5  1  0.70937218  0.47499342  0.39831411  1
  Mn  Mn6  1  0.00238822  0.92372346  0.99736715  1
  Mn  Mn7  1  0.79706225  0.00267475  0.60741502  1
  Mn  Mn8  1  0.18461032  0.98578219  0.39855601  1
  Mn  Mn9  1  0.52777825  0.54782881  0.02800528  1
  Sb  Sb10  1  0.89737136  0.01651147  0.45720934  1
  Sb  Sb11  1  0.11769095  0.98330680  0.55765517  1
  Sb  Sb12  1  0.03530888  0.49343760  0.80944873  1
  Sb  Sb13  1  0.96577855  0.49466943  0.19481390  1
  Sb  Sb14  1  0.39531548  0.49923909  0.45432468  1
  Sb  Sb15  1  0.61584563  0.43517757  0.55882507  1
  Sb  Sb16  1  0.52942251  0.96906757  0.81781060  1
  Sb  Sb17  1  0.46854496  0.03621442  0.19580255  1
  S  S18  1  0.95132099  0.95764395  0.82345604  1
  S  S19  1  0.06944189  0.01482997  0.21883174  1
  S  S20  1  0.42394408  0.97235208  0.00365354  1
  S  S21  1  0.59813506  0.03767778  0.02952542  1
  S  S22  1  0.19126244  0.95306573  0.91284002  1
  S  S23  1  0.84119952  0.01453978  0.11530225  1
  S  S24  1  0.09717245  0.46986709  0.66775698  1
  S  S25  1  0.88617095  0.50737925  0.33649975  1
  S  S26  1  0.73311628  0.93987421  0.30889836  1
  S  S27  1  0.27265831  0.06696134  0.68954456  1
  S  S28  1  0.16230284  0.46900104  0.44604400  1
  S  S29  1  0.83652581  0.44346257  0.55262251  1
  S  S30  1  0.44455369  0.49167716  0.83632708  1
  S  S31  1  0.57742571  0.55934084  0.21534807  1
  S  S32  1  0.92557942  0.47942683  0.00185777  1
  S  S33  1  0.08804005  0.50979196  0.00906924  1
  S  S34  1  0.67981578  0.45706551  0.89737455  1
  S  S35  1  0.35461121  0.47832737  0.11815891  1
  S  S36  1  0.60634884  0.97003650  0.66588376  1
  S  S37  1  0.41120238  0.96322070  0.35446808  1
  S  S38  1  0.24970523  0.53382580  0.29134134  1
  S  S39  1  0.76474349  0.52744222  0.67670890  1
  S  S40  1  0.67641342  0.92417069  0.45597036  1
  S  S41  1  0.32480606  0.05621872  0.54306254  1
