# generated using pymatgen
data_Pr2Mn3(SbS3)4
_symmetry_space_group_name_H-M   'P 1'
_cell_length_a   20.02960800
_cell_length_b   3.90410600
_cell_length_c   14.95364829
_cell_angle_alpha   90.00000000
_cell_angle_beta   126.33350609
_cell_angle_gamma   90.00000000
_symmetry_Int_Tables_number   1
_chemical_formula_structural   Pr2Mn3(SbS3)4
_chemical_formula_sum   'Pr4 Mn6 Sb8 S24'
_cell_volume   942.00006694
_cell_formula_units_Z   2
loop_
 _symmetry_equiv_pos_site_id
 _symmetry_equiv_pos_as_xyz
  1  'x, y, z'
loop_
 _atom_site_type_symbol
 _atom_site_label
 _atom_site_symmetry_multiplicity
 _atom_site_fract_x
 _atom_site_fract_y
 _atom_site_fract_z
 _atom_site_occupancy
  Pr  Pr0  1  0.26574135  0.44672333  0.86244687  1
  Pr  Pr1  1  0.73023720  0.55424868  0.13543214  1
  Pr  Pr2  1  0.77339989  0.97343215  0.87169981  1
  Pr  Pr3  1  0.22472224  0.01976624  0.12353325  1
  Mn  Mn4  1  0.28849032  0.56014548  0.59133826  1
  Mn  Mn5  1  0.70930953  0.47521765  0.39836767  1
  Mn  Mn6  1  0.00208402  0.92443870  0.99720367  1
  Mn  Mn7  1  0.79719275  0.00275530  0.60737928  1
  Mn  Mn8  1  0.18455751  0.98620583  0.39860943  1
  Mn  Mn9  1  0.52817596  0.54727742  0.02818200  1
  Sb  Sb10  1  0.89732644  0.01691597  0.45708569  1
  Sb  Sb11  1  0.11780999  0.98448172  0.55772562  1
  Sb  Sb12  1  0.03521379  0.49322909  0.80942259  1
  Sb  Sb13  1  0.96593779  0.49499162  0.19497905  1
  Sb  Sb14  1  0.39535022  0.50008652  0.45439242  1
  Sb  Sb15  1  0.61581822  0.43517099  0.55871301  1
  Sb  Sb16  1  0.52956529  0.96931915  0.81790247  1
  Sb  Sb17  1  0.46857150  0.03653590  0.19579734  1
  S  S18  1  0.95114815  0.95916322  0.82289729  1
  S  S19  1  0.06963009  0.01481686  0.21910416  1
  S  S20  1  0.42380024  0.97246723  0.00409999  1
  S  S21  1  0.59854438  0.03609954  0.02964407  1
  S  S22  1  0.19144093  0.95245087  0.91291013  1
  S  S23  1  0.84108354  0.01645290  0.11520969  1
  S  S24  1  0.09712562  0.46951288  0.66783891  1
  S  S25  1  0.88652744  0.50783438  0.33648658  1
  S  S26  1  0.73305226  0.93921340  0.30867865  1
  S  S27  1  0.27275824  0.06684813  0.68975581  1
  S  S28  1  0.16201961  0.46862801  0.44575660  1
  S  S29  1  0.83668572  0.44296514  0.55305866  1
  S  S30  1  0.44467794  0.49076760  0.83613260  1
  S  S31  1  0.57771260  0.55905187  0.21558816  1
  S  S32  1  0.92603225  0.47974557  0.00197740  1
  S  S33  1  0.08840616  0.51048708  0.00949161  1
  S  S34  1  0.68003685  0.45699626  0.89732169  1
  S  S35  1  0.35463382  0.47768133  0.11779603  1
  S  S36  1  0.60667757  0.96961114  0.66627467  1
  S  S37  1  0.41102778  0.96458461  0.35433270  1
  S  S38  1  0.24934835  0.53311678  0.29124313  1
  S  S39  1  0.76457012  0.52750793  0.67645235  1
  S  S40  1  0.67636110  0.92331112  0.45605777  1
  S  S41  1  0.32485908  0.05604229  0.54254253  1
