# generated using pymatgen
data_Pr2Mn3(SbS3)4
_symmetry_space_group_name_H-M   'P 1'
_cell_length_a   20.02960800
_cell_length_b   3.90410600
_cell_length_c   14.95364829
_cell_angle_alpha   90.00000000
_cell_angle_beta   126.33350609
_cell_angle_gamma   90.00000000
_symmetry_Int_Tables_number   1
_chemical_formula_structural   Pr2Mn3(SbS3)4
_chemical_formula_sum   'Pr4 Mn6 Sb8 S24'
_cell_volume   942.00006694
_cell_formula_units_Z   2
loop_
 _symmetry_equiv_pos_site_id
 _symmetry_equiv_pos_as_xyz
  1  'x, y, z'
loop_
 _atom_site_type_symbol
 _atom_site_label
 _atom_site_symmetry_multiplicity
 _atom_site_fract_x
 _atom_site_fract_y
 _atom_site_fract_z
 _atom_site_occupancy
  Pr  Pr0  1  0.26148711  0.49484280  0.86601668  1
  Pr  Pr1  1  0.74036873  0.50288433  0.13728717  1
  Pr  Pr2  1  0.76067123  0.00758048  0.86152476  1
  Pr  Pr3  1  0.24005981  0.99084915  0.13879801  1
  Mn  Mn4  1  0.29932215  0.50620172  0.62035824  1
  Mn  Mn5  1  0.69782664  0.49845186  0.38054599  1
  Mn  Mn6  1  0.00145134  0.00334064  0.00055170  1
  Mn  Mn7  1  0.80283211  0.99388980  0.61856222  1
  Mn  Mn8  1  0.19899417  0.98641854  0.37875562  1
  Mn  Mn9  1  0.50090779  0.48542110  0.00002068  1
  Sb  Sb10  1  0.89495707  0.00971421  0.45443196  1
  Sb  Sb11  1  0.10705983  0.98967727  0.55037344  1
  Sb  Sb12  1  0.03800878  0.48902794  0.81478633  1
  Sb  Sb13  1  0.96236538  0.50256066  0.18814015  1
  Sb  Sb14  1  0.39421975  0.48942357  0.45544100  1
  Sb  Sb15  1  0.60633353  0.49901602  0.54859827  1
  Sb  Sb16  1  0.53758760  0.00010512  0.81368221  1
  Sb  Sb17  1  0.46283813  0.99938492  0.18373595  1
  S  S18  1  0.93847099  0.98795488  0.79812144  1
  S  S19  1  0.05800754  0.99564162  0.19255202  1
  S  S20  1  0.40302815  0.98003593  0.97963320  1
  S  S21  1  0.59676110  0.99499090  0.01737633  1
  S  S22  1  0.16946432  0.98519017  0.90203296  1
  S  S23  1  0.82775546  0.00340767  0.10467839  1
  S  S24  1  0.08774351  0.49134070  0.64659079  1
  S  S25  1  0.91113403  0.48099038  0.35263702  1
  S  S26  1  0.74401615  0.97260984  0.29566986  1
  S  S27  1  0.25606394  0.00822315  0.69993674  1
  S  S28  1  0.15971635  0.49287736  0.44721043  1
  S  S29  1  0.83299644  0.49106324  0.54750125  1
  S  S30  1  0.43706914  0.50296746  0.79812744  1
  S  S31  1  0.56115489  0.49267538  0.19775087  1
  S  S32  1  0.90197618  0.47819718  0.97829142  1
  S  S33  1  0.09232741  0.48523391  0.01785796  1
  S  S34  1  0.66513484  0.51107334  0.89535064  1
  S  S35  1  0.33361163  0.50684978  0.10519839  1
  S  S36  1  0.59151507  0.01619409  0.64965041  1
  S  S37  1  0.41325572  0.98636344  0.35782567  1
  S  S38  1  0.24227501  0.47572151  0.29423307  1
  S  S39  1  0.76440870  0.50202156  0.70542700  1
  S  S40  1  0.66230540  0.00454132  0.45956465  1
  S  S41  1  0.33701250  0.99048107  0.54220627  1
