# generated using pymatgen
data_Pr2Mn3(SbS3)4
_symmetry_space_group_name_H-M   'P 1'
_cell_length_a   20.02960800
_cell_length_b   3.90410600
_cell_length_c   14.95364829
_cell_angle_alpha   90.00000000
_cell_angle_beta   126.33350609
_cell_angle_gamma   90.00000000
_symmetry_Int_Tables_number   1
_chemical_formula_structural   Pr2Mn3(SbS3)4
_chemical_formula_sum   'Pr4 Mn6 Sb8 S24'
_cell_volume   942.00006694
_cell_formula_units_Z   2
loop_
 _symmetry_equiv_pos_site_id
 _symmetry_equiv_pos_as_xyz
  1  'x, y, z'
loop_
 _atom_site_type_symbol
 _atom_site_label
 _atom_site_symmetry_multiplicity
 _atom_site_fract_x
 _atom_site_fract_y
 _atom_site_fract_z
 _atom_site_occupancy
  Pr  Pr0  1  0.26967938  0.50609155  0.86967331  1
  Pr  Pr1  1  0.73461602  0.51359136  0.13525111  1
  Pr  Pr2  1  0.76432976  0.03125309  0.86813896  1
  Pr  Pr3  1  0.22937615  0.97920428  0.13001893  1
  Mn  Mn4  1  0.30027704  0.46341944  0.60892063  1
  Mn  Mn5  1  0.68543278  0.46944663  0.36488740  1
  Mn  Mn6  1  0.00175361  0.98848190  0.00920944  1
  Mn  Mn7  1  0.79234324  0.02859580  0.61431969  1
  Mn  Mn8  1  0.19625901  0.00770428  0.36808138  1
  Mn  Mn9  1  0.48191019  0.47187372  0.98222714  1
  Sb  Sb10  1  0.89028651  0.98429486  0.44827008  1
  Sb  Sb11  1  0.11165424  0.98103759  0.54732857  1
  Sb  Sb12  1  0.03677087  0.52711266  0.82334772  1
  Sb  Sb13  1  0.96840694  0.48867077  0.19180368  1
  Sb  Sb14  1  0.39627968  0.49839551  0.45245745  1
  Sb  Sb15  1  0.61157786  0.48188304  0.54800330  1
  Sb  Sb16  1  0.53012019  0.97031600  0.80485662  1
  Sb  Sb17  1  0.46571924  0.02424753  0.18663780  1
  S  S18  1  0.94146272  0.02021772  0.80974275  1
  S  S19  1  0.06625328  0.00346122  0.20660477  1
  S  S20  1  0.41754084  0.97697076  0.97910168  1
  S  S21  1  0.58659190  0.02297189  0.01171509  1
  S  S22  1  0.16271125  0.03356507  0.89888777  1
  S  S23  1  0.82660301  0.99604372  0.10428689  1
  S  S24  1  0.08579526  0.49896149  0.63686166  1
  S  S25  1  0.91536428  0.48475818  0.35298816  1
  S  S26  1  0.73423467  0.01243872  0.29390268  1
  S  S27  1  0.26013141  0.01188577  0.70604883  1
  S  S28  1  0.16925521  0.52148556  0.43774590  1
  S  S29  1  0.80916398  0.51485291  0.53851736  1
  S  S30  1  0.43366555  0.48026416  0.80259067  1
  S  S31  1  0.55407797  0.50247857  0.18148495  1
  S  S32  1  0.92356133  0.50793516  0.98949351  1
  S  S33  1  0.09099100  0.49746629  0.02713161  1
  S  S34  1  0.66758008  0.55728809  0.89644199  1
  S  S35  1  0.32901859  0.46167950  0.09810417  1
  S  S36  1  0.58864699  0.99995152  0.64782754  1
  S  S37  1  0.39491096  0.98503793  0.33394458  1
  S  S38  1  0.24715505  0.47605458  0.31699373  1
  S  S39  1  0.76381482  0.50853609  0.69169733  1
  S  S40  1  0.65865632  0.98334669  0.43811547  1
  S  S41  1  0.32958667  0.98413874  0.55175667  1
