# generated using pymatgen
data_Pr2Mn3(SbS3)4
_symmetry_space_group_name_H-M   'P 1'
_cell_length_a   20.02960800
_cell_length_b   3.90410600
_cell_length_c   14.95364829
_cell_angle_alpha   90.00000000
_cell_angle_beta   126.33350609
_cell_angle_gamma   90.00000000
_symmetry_Int_Tables_number   1
_chemical_formula_structural   Pr2Mn3(SbS3)4
_chemical_formula_sum   'Pr4 Mn6 Sb8 S24'
_cell_volume   942.00006694
_cell_formula_units_Z   2
loop_
 _symmetry_equiv_pos_site_id
 _symmetry_equiv_pos_as_xyz
  1  'x, y, z'
loop_
 _atom_site_type_symbol
 _atom_site_label
 _atom_site_symmetry_multiplicity
 _atom_site_fract_x
 _atom_site_fract_y
 _atom_site_fract_z
 _atom_site_occupancy
  Pr  Pr0  1  0.26568284  0.44690930  0.86250125  1
  Pr  Pr1  1  0.73008138  0.55448699  0.13534510  1
  Pr  Pr2  1  0.77345746  0.97331687  0.87174684  1
  Pr  Pr3  1  0.22470314  0.02037887  0.12341167  1
  Mn  Mn4  1  0.28835315  0.56062264  0.59087742  1
  Mn  Mn5  1  0.70928859  0.47515173  0.39830917  1
  Mn  Mn6  1  0.00177574  0.92546296  0.99712525  1
  Mn  Mn7  1  0.79725492  0.00270072  0.60729846  1
  Mn  Mn8  1  0.18446272  0.98698369  0.39851210  1
  Mn  Mn9  1  0.52846252  0.54635674  0.02838926  1
  Sb  Sb10  1  0.89723131  0.01741066  0.45693892  1
  Sb  Sb11  1  0.11791170  0.98562534  0.55786483  1
  Sb  Sb12  1  0.03513467  0.49341893  0.80940682  1
  Sb  Sb13  1  0.96617328  0.49491570  0.19524232  1
  Sb  Sb14  1  0.39536494  0.50104134  0.45441737  1
  Sb  Sb15  1  0.61588840  0.43470578  0.55862628  1
  Sb  Sb16  1  0.52970539  0.96958007  0.81803821  1
  Sb  Sb17  1  0.46869867  0.03679507  0.19588865  1
  S  S18  1  0.95099498  0.96088645  0.82242449  1
  S  S19  1  0.06972997  0.01505005  0.21923412  1
  S  S20  1  0.42363948  0.97304204  0.00440781  1
  S  S21  1  0.59895626  0.03426434  0.02968012  1
  S  S22  1  0.19155278  0.95182268  0.91314331  1
  S  S23  1  0.84103248  0.01777580  0.11504541  1
  S  S24  1  0.09702460  0.46918182  0.66794640  1
  S  S25  1  0.88698440  0.50837441  0.33671568  1
  S  S26  1  0.73304661  0.93843158  0.30860359  1
  S  S27  1  0.27268631  0.06677484  0.68986571  1
  S  S28  1  0.16189224  0.46742936  0.44576717  1
  S  S29  1  0.83685505  0.44291003  0.55334230  1
  S  S30  1  0.44505258  0.48991977  0.83618972  1
  S  S31  1  0.57810792  0.55856519  0.21568050  1
  S  S32  1  0.92646158  0.48010284  0.00185908  1
  S  S33  1  0.08867450  0.51072512  0.00985288  1
  S  S34  1  0.68037356  0.45738251  0.89740887  1
  S  S35  1  0.35467564  0.47753215  0.11758169  1
  S  S36  1  0.60699863  0.96941138  0.66638745  1
  S  S37  1  0.41063314  0.96554235  0.35416458  1
  S  S38  1  0.24902480  0.53228270  0.29106741  1
  S  S39  1  0.76436222  0.52709846  0.67613307  1
  S  S40  1  0.67627119  0.92281410  0.45611054  1
  S  S41  1  0.32495587  0.05597218  0.54217004  1
