# generated using pymatgen
data_Pr2Mn3(SbS3)4
_symmetry_space_group_name_H-M   'P 1'
_cell_length_a   20.02960800
_cell_length_b   3.90410600
_cell_length_c   14.95364829
_cell_angle_alpha   90.00000000
_cell_angle_beta   126.33350609
_cell_angle_gamma   90.00000000
_symmetry_Int_Tables_number   1
_chemical_formula_structural   Pr2Mn3(SbS3)4
_chemical_formula_sum   'Pr4 Mn6 Sb8 S24'
_cell_volume   942.00006694
_cell_formula_units_Z   2
loop_
 _symmetry_equiv_pos_site_id
 _symmetry_equiv_pos_as_xyz
  1  'x, y, z'
loop_
 _atom_site_type_symbol
 _atom_site_label
 _atom_site_symmetry_multiplicity
 _atom_site_fract_x
 _atom_site_fract_y
 _atom_site_fract_z
 _atom_site_occupancy
  Pr  Pr0  1  0.26560735  0.44696703  0.86256914  1
  Pr  Pr1  1  0.72997033  0.55489618  0.13528864  1
  Pr  Pr2  1  0.77354032  0.97327779  0.87177197  1
  Pr  Pr3  1  0.22456544  0.02131331  0.12320856  1
  Mn  Mn4  1  0.28815338  0.56090264  0.59057805  1
  Mn  Mn5  1  0.70925833  0.47474724  0.39827451  1
  Mn  Mn6  1  0.00157316  0.92662285  0.99707770  1
  Mn  Mn7  1  0.79729133  0.00274791  0.60728548  1
  Mn  Mn8  1  0.18440719  0.98777499  0.39851090  1
  Mn  Mn9  1  0.52870868  0.54552721  0.02853628  1
  Sb  Sb10  1  0.89715574  0.01779834  0.45682823  1
  Sb  Sb11  1  0.11803114  0.98625445  0.55802158  1
  Sb  Sb12  1  0.03502171  0.49353096  0.80936482  1
  Sb  Sb13  1  0.96633006  0.49493952  0.19546486  1
  Sb  Sb14  1  0.39541369  0.50189198  0.45439282  1
  Sb  Sb15  1  0.61596238  0.43430104  0.55853934  1
  Sb  Sb16  1  0.52996383  0.97000002  0.81836005  1
  Sb  Sb17  1  0.46875364  0.03719078  0.19589530  1
  S  S18  1  0.95065161  0.96232470  0.82193369  1
  S  S19  1  0.06984212  0.01578965  0.21940813  1
  S  S20  1  0.42324138  0.97451123  0.00438535  1
  S  S21  1  0.59922593  0.03302561  0.02968946  1
  S  S22  1  0.19164505  0.95162610  0.91335532  1
  S  S23  1  0.84078024  0.01877567  0.11474799  1
  S  S24  1  0.09689754  0.46884458  0.66812995  1
  S  S25  1  0.88737268  0.50868005  0.33691777  1
  S  S26  1  0.73305506  0.93804834  0.30865796  1
  S  S27  1  0.27259598  0.06576508  0.68991924  1
  S  S28  1  0.16181390  0.46652076  0.44572261  1
  S  S29  1  0.83722851  0.44246785  0.55365559  1
  S  S30  1  0.44541446  0.48958271  0.83619909  1
  S  S31  1  0.57833506  0.55824090  0.21560080  1
  S  S32  1  0.92686845  0.48034144  0.00172735  1
  S  S33  1  0.08889196  0.51155651  0.01027523  1
  S  S34  1  0.68064898  0.45725720  0.89747451  1
  S  S35  1  0.35470717  0.47659592  0.11738655  1
  S  S36  1  0.60724976  0.96916499  0.66645941  1
  S  S37  1  0.41020827  0.96699692  0.35387911  1
  S  S38  1  0.24881302  0.53144283  0.29077085  1
  S  S39  1  0.76418279  0.52660255  0.67589855  1
  S  S40  1  0.67634534  0.92215770  0.45617411  1
  S  S41  1  0.32518706  0.05579699  0.54189731  1
