# generated using pymatgen
data_Pr2Mn3(SbS3)4
_symmetry_space_group_name_H-M   'P 1'
_cell_length_a   20.02960800
_cell_length_b   3.90410600
_cell_length_c   14.95364829
_cell_angle_alpha   90.00000000
_cell_angle_beta   126.33350609
_cell_angle_gamma   90.00000000
_symmetry_Int_Tables_number   1
_chemical_formula_structural   Pr2Mn3(SbS3)4
_chemical_formula_sum   'Pr4 Mn6 Sb8 S24'
_cell_volume   942.00006694
_cell_formula_units_Z   2
loop_
 _symmetry_equiv_pos_site_id
 _symmetry_equiv_pos_as_xyz
  1  'x, y, z'
loop_
 _atom_site_type_symbol
 _atom_site_label
 _atom_site_symmetry_multiplicity
 _atom_site_fract_x
 _atom_site_fract_y
 _atom_site_fract_z
 _atom_site_occupancy
  Pr  Pr0  1  0.26557324  0.44725689  0.86267195  1
  Pr  Pr1  1  0.72983440  0.55575028  0.13516376  1
  Pr  Pr2  1  0.77360297  0.97303420  0.87170941  1
  Pr  Pr3  1  0.22445564  0.02217668  0.12298844  1
  Mn  Mn4  1  0.28793512  0.56134003  0.59016086  1
  Mn  Mn5  1  0.70905326  0.47418432  0.39811517  1
  Mn  Mn6  1  0.00142986  0.92750325  0.99710523  1
  Mn  Mn7  1  0.79735612  0.00265947  0.60729597  1
  Mn  Mn8  1  0.18432150  0.98833296  0.39838210  1
  Mn  Mn9  1  0.52882266  0.54479390  0.02861728  1
  Sb  Sb10  1  0.89715574  0.01799739  0.45671620  1
  Sb  Sb11  1  0.11823008  0.98710432  0.55821475  1
  Sb  Sb12  1  0.03495454  0.49354281  0.80935181  1
  Sb  Sb13  1  0.96648848  0.49531305  0.19562720  1
  Sb  Sb14  1  0.39544663  0.50238941  0.45437192  1
  Sb  Sb15  1  0.61601729  0.43403946  0.55836606  1
  Sb  Sb16  1  0.53016242  0.97032324  0.81862282  1
  Sb  Sb17  1  0.46878135  0.03757098  0.19574956  1
  S  S18  1  0.95010043  0.96403897  0.82122103  1
  S  S19  1  0.06996642  0.01606924  0.21977768  1
  S  S20  1  0.42287637  0.97568428  0.00416183  1
  S  S21  1  0.59951105  0.03168587  0.02958085  1
  S  S22  1  0.19181393  0.95144556  0.91379503  1
  S  S23  1  0.84059879  0.01943664  0.11450673  1
  S  S24  1  0.09688289  0.46896779  0.66836169  1
  S  S25  1  0.88761944  0.50892669  0.33715274  1
  S  S26  1  0.73294220  0.93762560  0.30865404  1
  S  S27  1  0.27251439  0.06548613  0.68997575  1
  S  S28  1  0.16174816  0.46591254  0.44577818  1
  S  S29  1  0.83767431  0.44193897  0.55398083  1
  S  S30  1  0.44582627  0.48943727  0.83622394  1
  S  S31  1  0.57877619  0.55752255  0.21551264  1
  S  S32  1  0.92720251  0.48069535  0.00142732  1
  S  S33  1  0.08906251  0.51191708  0.01059638  1
  S  S34  1  0.68087191  0.45665069  0.89753057  1
  S  S35  1  0.35465572  0.47612463  0.11724504  1
  S  S36  1  0.60728484  0.96869504  0.66628560  1
  S  S37  1  0.40977135  0.96881769  0.35354352  1
  S  S38  1  0.24861624  0.53055499  0.29066903  1
  S  S39  1  0.76397795  0.52664933  0.67583587  1
  S  S40  1  0.67659831  0.92203766  0.45637840  1
  S  S41  1  0.32538066  0.05610491  0.54166943  1
