# generated using pymatgen
data_Pr2Mn3(SbS3)4
_symmetry_space_group_name_H-M   'P 1'
_cell_length_a   20.02960800
_cell_length_b   3.90410600
_cell_length_c   14.95364829
_cell_angle_alpha   90.00000000
_cell_angle_beta   126.33350609
_cell_angle_gamma   90.00000000
_symmetry_Int_Tables_number   1
_chemical_formula_structural   Pr2Mn3(SbS3)4
_chemical_formula_sum   'Pr4 Mn6 Sb8 S24'
_cell_volume   942.00006694
_cell_formula_units_Z   2
loop_
 _symmetry_equiv_pos_site_id
 _symmetry_equiv_pos_as_xyz
  1  'x, y, z'
loop_
 _atom_site_type_symbol
 _atom_site_label
 _atom_site_symmetry_multiplicity
 _atom_site_fract_x
 _atom_site_fract_y
 _atom_site_fract_z
 _atom_site_occupancy
  Pr  Pr0  1  0.26544449  0.44762480  0.86266682  1
  Pr  Pr1  1  0.72969399  0.55631801  0.13508747  1
  Pr  Pr2  1  0.77373578  0.97299600  0.87176137  1
  Pr  Pr3  1  0.22434319  0.02299287  0.12274843  1
  Mn  Mn4  1  0.28785945  0.56180189  0.58993976  1
  Mn  Mn5  1  0.70895464  0.47367226  0.39818081  1
  Mn  Mn6  1  0.00126819  0.92790429  0.99713473  1
  Mn  Mn7  1  0.79734484  0.00228690  0.60727289  1
  Mn  Mn8  1  0.18408827  0.98889491  0.39816435  1
  Mn  Mn9  1  0.52889473  0.54444320  0.02865726  1
  Sb  Sb10  1  0.89719897  0.01858720  0.45665213  1
  Sb  Sb11  1  0.11838767  0.98772817  0.55827849  1
  Sb  Sb12  1  0.03494925  0.49395135  0.80941967  1
  Sb  Sb13  1  0.96660479  0.49545390  0.19565998  1
  Sb  Sb14  1  0.39546692  0.50331011  0.45435356  1
  Sb  Sb15  1  0.61606007  0.43368880  0.55809151  1
  Sb  Sb16  1  0.53033226  0.97083768  0.81885298  1
  Sb  Sb17  1  0.46881125  0.03780570  0.19557106  1
  S  S18  1  0.94945196  0.96528337  0.82034775  1
  S  S19  1  0.07008249  0.01625161  0.21989904  1
  S  S20  1  0.42258776  0.97654695  0.00393998  1
  S  S21  1  0.59976339  0.03051098  0.02954676  1
  S  S22  1  0.19195468  0.95157997  0.91420197  1
  S  S23  1  0.84041945  0.01876306  0.11427419  1
  S  S24  1  0.09666918  0.46878284  0.66843422  1
  S  S25  1  0.88796196  0.50957556  0.33733146  1
  S  S26  1  0.73270915  0.93670421  0.30854562  1
  S  S27  1  0.27240513  0.06473499  0.68982817  1
  S  S28  1  0.16183055  0.46514213  0.44607980  1
  S  S29  1  0.83813895  0.44119980  0.55434106  1
  S  S30  1  0.44617688  0.48914324  0.83599820  1
  S  S31  1  0.57913486  0.55778622  0.21538996  1
  S  S32  1  0.92733408  0.48124811  0.00087684  1
  S  S33  1  0.08922473  0.51184774  0.01087091  1
  S  S34  1  0.68114367  0.45620765  0.89753797  1
  S  S35  1  0.35465510  0.47579261  0.11728322  1
  S  S36  1  0.60753896  0.96829824  0.66632915  1
  S  S37  1  0.40940270  0.97022856  0.35322044  1
  S  S38  1  0.24853433  0.52953436  0.29064618  1
  S  S39  1  0.76379597  0.52667758  0.67573539  1
  S  S40  1  0.67658541  0.92201380  0.45649813  1
  S  S41  1  0.32551259  0.05678745  0.54172101  1
