# generated using pymatgen
data_Pr2Mn3(SbS3)4
_symmetry_space_group_name_H-M   'P 1'
_cell_length_a   20.02960800
_cell_length_b   3.90410600
_cell_length_c   14.95364829
_cell_angle_alpha   90.00000000
_cell_angle_beta   126.33350609
_cell_angle_gamma   90.00000000
_symmetry_Int_Tables_number   1
_chemical_formula_structural   Pr2Mn3(SbS3)4
_chemical_formula_sum   'Pr4 Mn6 Sb8 S24'
_cell_volume   942.00006694
_cell_formula_units_Z   2
loop_
 _symmetry_equiv_pos_site_id
 _symmetry_equiv_pos_as_xyz
  1  'x, y, z'
loop_
 _atom_site_type_symbol
 _atom_site_label
 _atom_site_symmetry_multiplicity
 _atom_site_fract_x
 _atom_site_fract_y
 _atom_site_fract_z
 _atom_site_occupancy
  Pr  Pr0  1  0.26532871  0.44792736  0.86267472  1
  Pr  Pr1  1  0.72955675  0.55671945  0.13504593  1
  Pr  Pr2  1  0.77396627  0.97259834  0.87186890  1
  Pr  Pr3  1  0.22418405  0.02349031  0.12240113  1
  Mn  Mn4  1  0.28774367  0.56203962  0.58960345  1
  Mn  Mn5  1  0.70888593  0.47379863  0.39824353  1
  Mn  Mn6  1  0.00099277  0.92872923  0.99705358  1
  Mn  Mn7  1  0.79723807  0.00208916  0.60721791  1
  Mn  Mn8  1  0.18387091  0.98965879  0.39788805  1
  Mn  Mn9  1  0.52884215  0.54472652  0.02879340  1
  Sb  Sb10  1  0.89724059  0.01918489  0.45661880  1
  Sb  Sb11  1  0.11850037  0.98842328  0.55824772  1
  Sb  Sb12  1  0.03492472  0.49461145  0.80953635  1
  Sb  Sb13  1  0.96680056  0.49541073  0.19573930  1
  Sb  Sb14  1  0.39551286  0.50371309  0.45438133  1
  Sb  Sb15  1  0.61628823  0.43338779  0.55791057  1
  Sb  Sb16  1  0.53054714  0.97136620  0.81918101  1
  Sb  Sb17  1  0.46880887  0.03763643  0.19532184  1
  S  S18  1  0.94886868  0.96555944  0.81940654  1
  S  S19  1  0.07001798  0.01650673  0.21983819  1
  S  S20  1  0.42233616  0.97716251  0.00387533  1
  S  S21  1  0.59997588  0.02968224  0.02952720  1
  S  S22  1  0.19203366  0.95147227  0.91457013  1
  S  S23  1  0.84027750  0.01822428  0.11414772  1
  S  S24  1  0.09657096  0.46892577  0.66856725  1
  S  S25  1  0.88827922  0.50959058  0.33750672  1
  S  S26  1  0.73262440  0.93592413  0.30871771  1
  S  S27  1  0.27235546  0.06452030  0.68974559  1
  S  S28  1  0.16186349  0.46415526  0.44634426  1
  S  S29  1  0.83857024  0.44018099  0.55466959  1
  S  S30  1  0.44649179  0.48892879  0.83586829  1
  S  S31  1  0.57951219  0.55797031  0.21546702  1
  S  S32  1  0.92757017  0.48246702  0.00043881  1
  S  S33  1  0.08944188  0.51190597  0.01113489  1
  S  S34  1  0.68140204  0.45562083  0.89754436  1
  S  S35  1  0.35474909  0.47469725  0.11738482  1
  S  S36  1  0.60780225  0.96843174  0.66619904  1
  S  S37  1  0.40910935  0.97175776  0.35279184  1
  S  S38  1  0.24834496  0.52853295  0.29028580  1
  S  S39  1  0.76367304  0.52571989  0.67561368  1
  S  S40  1  0.67654506  0.92170185  0.45661486  1
  S  S41  1  0.32564030  0.05780213  0.54165909  1
