# generated using pymatgen
data_Pr2Mn3(SbS3)4
_symmetry_space_group_name_H-M   'P 1'
_cell_length_a   20.02960800
_cell_length_b   3.90410600
_cell_length_c   14.95364829
_cell_angle_alpha   90.00000000
_cell_angle_beta   126.33350609
_cell_angle_gamma   90.00000000
_symmetry_Int_Tables_number   1
_chemical_formula_structural   Pr2Mn3(SbS3)4
_chemical_formula_sum   'Pr4 Mn6 Sb8 S24'
_cell_volume   942.00006694
_cell_formula_units_Z   2
loop_
 _symmetry_equiv_pos_site_id
 _symmetry_equiv_pos_as_xyz
  1  'x, y, z'
loop_
 _atom_site_type_symbol
 _atom_site_label
 _atom_site_symmetry_multiplicity
 _atom_site_fract_x
 _atom_site_fract_y
 _atom_site_fract_z
 _atom_site_occupancy
  Pr  Pr0  1  0.26516272  0.44837833  0.86267402  1
  Pr  Pr1  1  0.72944614  0.55724224  0.13499553  1
  Pr  Pr2  1  0.77418283  0.97228972  0.87198202  1
  Pr  Pr3  1  0.22410290  0.02402620  0.12215415  1
  Mn  Mn4  1  0.28768235  0.56249684  0.58930159  1
  Mn  Mn5  1  0.70873445  0.47342908  0.39814432  1
  Mn  Mn6  1  0.00075107  0.92950545  0.99695913  1
  Mn  Mn7  1  0.79721388  0.00123960  0.60724153  1
  Mn  Mn8  1  0.18371236  0.99056646  0.39768562  1
  Mn  Mn9  1  0.52873582  0.54509842  0.02895719  1
  Sb  Sb10  1  0.89727036  0.01967795  0.45665319  1
  Sb  Sb11  1  0.11861283  0.98909848  0.55837702  1
  Sb  Sb12  1  0.03488238  0.49517735  0.80964616  1
  Sb  Sb13  1  0.96696501  0.49518736  0.19592677  1
  Sb  Sb14  1  0.39554720  0.50373317  0.45435003  1
  Sb  Sb15  1  0.61656676  0.43339969  0.55777204  1
  Sb  Sb16  1  0.53075737  0.97171625  0.81946213  1
  Sb  Sb17  1  0.46885460  0.03735737  0.19516606  1
  S  S18  1  0.94822993  0.96590664  0.81851344  1
  S  S19  1  0.07010148  0.01697333  0.21995845  1
  S  S20  1  0.42204551  0.97719573  0.00379464  1
  S  S21  1  0.60011437  0.02903367  0.02927833  1
  S  S22  1  0.19187551  0.95178008  0.91488022  1
  S  S23  1  0.84022330  0.01773992  0.11419708  1
  S  S24  1  0.09645874  0.46941907  0.66860110  1
  S  S25  1  0.88856064  0.50988153  0.33790059  1
  S  S26  1  0.73246326  0.93535548  0.30878154  1
  S  S27  1  0.27246401  0.06401512  0.68975068  1
  S  S28  1  0.16199328  0.46435309  0.44661691  1
  S  S29  1  0.83895926  0.43936608  0.55486132  1
  S  S30  1  0.44690862  0.48840467  0.83596970  1
  S  S31  1  0.57993426  0.55728317  0.21553322  1
  S  S32  1  0.92764653  0.48345382  0.99986715  1
  S  S33  1  0.08949617  0.51208900  0.01120153  1
  S  S34  1  0.68153942  0.45441896  0.89766516  1
  S  S35  1  0.35473269  0.47385120  0.11735250  1
  S  S36  1  0.60813343  0.96844500  0.66610437  1
  S  S37  1  0.40890936  0.97332253  0.35238344  1
  S  S38  1  0.24796414  0.52759873  0.28986015  1
  S  S39  1  0.76356972  0.52460886  0.67561123  1
  S  S40  1  0.67644751  0.92171817  0.45663542  1
  S  S41  1  0.32585822  0.05800462  0.54180718  1
