# generated using pymatgen
data_Pr2Mn3(SbS3)4
_symmetry_space_group_name_H-M   'P 1'
_cell_length_a   20.02960800
_cell_length_b   3.90410600
_cell_length_c   14.95364829
_cell_angle_alpha   90.00000000
_cell_angle_beta   126.33350609
_cell_angle_gamma   90.00000000
_symmetry_Int_Tables_number   1
_chemical_formula_structural   Pr2Mn3(SbS3)4
_chemical_formula_sum   'Pr4 Mn6 Sb8 S24'
_cell_volume   942.00006694
_cell_formula_units_Z   2
loop_
 _symmetry_equiv_pos_site_id
 _symmetry_equiv_pos_as_xyz
  1  'x, y, z'
loop_
 _atom_site_type_symbol
 _atom_site_label
 _atom_site_symmetry_multiplicity
 _atom_site_fract_x
 _atom_site_fract_y
 _atom_site_fract_z
 _atom_site_occupancy
  Pr  Pr0  1  0.26507710  0.44871207  0.86273412  1
  Pr  Pr1  1  0.72937860  0.55795964  0.13497497  1
  Pr  Pr2  1  0.77445365  0.97213579  0.87215141  1
  Pr  Pr3  1  0.22411239  0.02431968  0.12207687  1
  Mn  Mn4  1  0.28760929  0.56310432  0.58893629  1
  Mn  Mn5  1  0.70874223  0.47303470  0.39826734  1
  Mn  Mn6  1  0.00053454  0.93022090  0.99682533  1
  Mn  Mn7  1  0.79725826  0.00056732  0.60731573  1
  Mn  Mn8  1  0.18364088  0.99163129  0.39754277  1
  Mn  Mn9  1  0.52855301  0.54514263  0.02900556  1
  Sb  Sb10  1  0.89724969  0.02036255  0.45659195  1
  Sb  Sb11  1  0.11869355  0.99011798  0.55846939  1
  Sb  Sb12  1  0.03486070  0.49575069  0.80971267  1
  Sb  Sb13  1  0.96709074  0.49496487  0.19608168  1
  Sb  Sb14  1  0.39553286  0.50355776  0.45420226  1
  Sb  Sb15  1  0.61683050  0.43361781  0.55760216  1
  Sb  Sb16  1  0.53095721  0.97201296  0.81971369  1
  Sb  Sb17  1  0.46884516  0.03683656  0.19499639  1
  S  S18  1  0.94769657  0.96531269  0.81769958  1
  S  S19  1  0.07012834  0.01721636  0.22001143  1
  S  S20  1  0.42165544  0.97758126  0.00339354  1
  S  S21  1  0.60004500  0.02795858  0.02894031  1
  S  S22  1  0.19169880  0.95210959  0.91527762  1
  S  S23  1  0.84020320  0.01647344  0.11432013  1
  S  S24  1  0.09639769  0.47047751  0.66850422  1
  S  S25  1  0.88882113  0.50941682  0.33829292  1
  S  S26  1  0.73242155  0.93469558  0.30900648  1
  S  S27  1  0.27267568  0.06338386  0.68987603  1
  S  S28  1  0.16215783  0.46460493  0.44692831  1
  S  S29  1  0.83934439  0.43838611  0.55495918  1
  S  S30  1  0.44732439  0.48794205  0.83605220  1
  S  S31  1  0.58048904  0.55664668  0.21569208  1
  S  S32  1  0.92752891  0.48454291  0.99928698  1
  S  S33  1  0.08959039  0.51128708  0.01138295  1
  S  S34  1  0.68154739  0.45333465  0.89780210  1
  S  S35  1  0.35457449  0.47389140  0.11726148  1
  S  S36  1  0.60829447  0.96822601  0.66576662  1
  S  S37  1  0.40883616  0.97409283  0.35196775  1
  S  S38  1  0.24765182  0.52646908  0.28948838  1
  S  S39  1  0.76331363  0.52396050  0.67535079  1
  S  S40  1  0.67644615  0.92140367  0.45652950  1
  S  S41  1  0.32609758  0.05792244  0.54211956  1
