# generated using pymatgen
data_Pr2Mn3(SbS3)4
_symmetry_space_group_name_H-M   'P 1'
_cell_length_a   20.02960800
_cell_length_b   3.90410600
_cell_length_c   14.95364829
_cell_angle_alpha   90.00000000
_cell_angle_beta   126.33350609
_cell_angle_gamma   90.00000000
_symmetry_Int_Tables_number   1
_chemical_formula_structural   Pr2Mn3(SbS3)4
_chemical_formula_sum   'Pr4 Mn6 Sb8 S24'
_cell_volume   942.00006694
_cell_formula_units_Z   2
loop_
 _symmetry_equiv_pos_site_id
 _symmetry_equiv_pos_as_xyz
  1  'x, y, z'
loop_
 _atom_site_type_symbol
 _atom_site_label
 _atom_site_symmetry_multiplicity
 _atom_site_fract_x
 _atom_site_fract_y
 _atom_site_fract_z
 _atom_site_occupancy
  Pr  Pr0  1  0.26513655  0.44914183  0.86289271  1
  Pr  Pr1  1  0.72931109  0.55871952  0.13499204  1
  Pr  Pr2  1  0.77468567  0.97167479  0.87214473  1
  Pr  Pr3  1  0.22408919  0.02489728  0.12200389  1
  Mn  Mn4  1  0.28755194  0.56387149  0.58878013  1
  Mn  Mn5  1  0.70862873  0.47297106  0.39836006  1
  Mn  Mn6  1  0.00030936  0.93099319  0.99662392  1
  Mn  Mn7  1  0.79731497  0.00017109  0.60739135  1
  Mn  Mn8  1  0.18365255  0.99264741  0.39735192  1
  Mn  Mn9  1  0.52841064  0.54547277  0.02907728  1
  Sb  Sb10  1  0.89726370  0.02136616  0.45664051  1
  Sb  Sb11  1  0.11879677  0.99097529  0.55869134  1
  Sb  Sb12  1  0.03486338  0.49623073  0.80975391  1
  Sb  Sb13  1  0.96724854  0.49445033  0.19630533  1
  Sb  Sb14  1  0.39552048  0.50316942  0.45409941  1
  Sb  Sb15  1  0.61708537  0.43407241  0.55738283  1
  Sb  Sb16  1  0.53125684  0.97263131  0.82003433  1
  Sb  Sb17  1  0.46886811  0.03619076  0.19490826  1
  S  S18  1  0.94714820  0.96447434  0.81695493  1
  S  S19  1  0.07012992  0.01638192  0.21986924  1
  S  S20  1  0.42119048  0.97804671  0.00282121  1
  S  S21  1  0.59998014  0.02646829  0.02866843  1
  S  S22  1  0.19167892  0.95212094  0.91572925  1
  S  S23  1  0.84020248  0.01568008  0.11449469  1
  S  S24  1  0.09623963  0.47147471  0.66832192  1
  S  S25  1  0.88903276  0.50959212  0.33868971  1
  S  S26  1  0.73234477  0.93326224  0.30915183  1
  S  S27  1  0.27265803  0.06266057  0.68973188  1
  S  S28  1  0.16230261  0.46486009  0.44711106  1
  S  S29  1  0.83968467  0.43739961  0.55504924  1
  S  S30  1  0.44763933  0.48791032  0.83613773  1
  S  S31  1  0.58090793  0.55529204  0.21575597  1
  S  S32  1  0.92730427  0.48497957  0.99873937  1
  S  S33  1  0.08970094  0.51011545  0.01142856  1
  S  S34  1  0.68149715  0.45193949  0.89775846  1
  S  S35  1  0.35449909  0.47383531  0.11719655  1
  S  S36  1  0.60850801  0.96839619  0.66537722  1
  S  S37  1  0.40883073  0.97487456  0.35149998  1
  S  S38  1  0.24718665  0.52557837  0.28899368  1
  S  S39  1  0.76326208  0.52337779  0.67523052  1
  S  S40  1  0.67647603  0.92095412  0.45648973  1
  S  S41  1  0.32647312  0.05843371  0.54232275  1
