# generated using pymatgen
data_Pr2Mn3(SbS3)4
_symmetry_space_group_name_H-M   'P 1'
_cell_length_a   20.02960800
_cell_length_b   3.90410600
_cell_length_c   14.95364829
_cell_angle_alpha   90.00000000
_cell_angle_beta   126.33350609
_cell_angle_gamma   90.00000000
_symmetry_Int_Tables_number   1
_chemical_formula_structural   Pr2Mn3(SbS3)4
_chemical_formula_sum   'Pr4 Mn6 Sb8 S24'
_cell_volume   942.00006694
_cell_formula_units_Z   2
loop_
 _symmetry_equiv_pos_site_id
 _symmetry_equiv_pos_as_xyz
  1  'x, y, z'
loop_
 _atom_site_type_symbol
 _atom_site_label
 _atom_site_symmetry_multiplicity
 _atom_site_fract_x
 _atom_site_fract_y
 _atom_site_fract_z
 _atom_site_occupancy
  Pr  Pr0  1  0.26519718  0.44966270  0.86308388  1
  Pr  Pr1  1  0.72926694  0.55971426  0.13506795  1
  Pr  Pr2  1  0.77491506  0.97107042  0.87216549  1
  Pr  Pr3  1  0.22405685  0.02567569  0.12191992  1
  Mn  Mn4  1  0.28750073  0.56472017  0.58855560  1
  Mn  Mn5  1  0.70856298  0.47258760  0.39855588  1
  Mn  Mn6  1  0.00018809  0.93172299  0.99651653  1
  Mn  Mn7  1  0.79742990  0.99962501  0.60759639  1
  Mn  Mn8  1  0.18372111  0.99352583  0.39733754  1
  Mn  Mn9  1  0.52822465  0.54558642  0.02901596  1
  Sb  Sb10  1  0.89724668  0.02257002  0.45665275  1
  Sb  Sb11  1  0.11890201  0.99216939  0.55894614  1
  Sb  Sb12  1  0.03487661  0.49659678  0.80978008  1
  Sb  Sb13  1  0.96744929  0.49403538  0.19663404  1
  Sb  Sb14  1  0.39547718  0.50272501  0.45396618  1
  Sb  Sb15  1  0.61726041  0.43468498  0.55712506  1
  Sb  Sb16  1  0.53143133  0.97353738  0.82024109  1
  Sb  Sb17  1  0.46891547  0.03564985  0.19481795  1
  S  S18  1  0.94647816  0.96325115  0.81633517  1
  S  S19  1  0.07015960  0.01614263  0.21961564  1
  S  S20  1  0.42061815  0.97892821  0.00238045  1
  S  S21  1  0.59994313  0.02520679  0.02845967  1
  S  S22  1  0.19164139  0.95200513  0.91594156  1
  S  S23  1  0.84017635  0.01443135  0.11479444  1
  S  S24  1  0.09611141  0.47238364  0.66829971  1
  S  S25  1  0.88923063  0.50930061  0.33893156  1
  S  S26  1  0.73241977  0.93158460  0.30932448  1
  S  S27  1  0.27267594  0.06126801  0.68956045  1
  S  S28  1  0.16238973  0.46545872  0.44722179  1
  S  S29  1  0.84005057  0.43642618  0.55504606  1
  S  S30  1  0.44796400  0.48818381  0.83628956  1
  S  S31  1  0.58138616  0.55397744  0.21592897  1
  S  S32  1  0.92723715  0.48487535  0.99825201  1
  S  S33  1  0.08959865  0.50981189  0.01127723  1
  S  S34  1  0.68150851  0.45022681  0.89775110  1
  S  S35  1  0.35449797  0.47420938  0.11724306  1
  S  S36  1  0.60864502  0.96812814  0.66493165  1
  S  S37  1  0.40889418  0.97557635  0.35100927  1
  S  S38  1  0.24680554  0.52504011  0.28882111  1
  S  S39  1  0.76337182  0.52293779  0.67520467  1
  S  S40  1  0.67663418  0.92038690  0.45660196  1
  S  S41  1  0.32699177  0.05861828  0.54267095  1
