# generated using pymatgen
data_Pr2Mn3(SbS3)4
_symmetry_space_group_name_H-M   'P 1'
_cell_length_a   20.02960800
_cell_length_b   3.90410600
_cell_length_c   14.95364829
_cell_angle_alpha   90.00000000
_cell_angle_beta   126.33350609
_cell_angle_gamma   90.00000000
_symmetry_Int_Tables_number   1
_chemical_formula_structural   Pr2Mn3(SbS3)4
_chemical_formula_sum   'Pr4 Mn6 Sb8 S24'
_cell_volume   942.00006694
_cell_formula_units_Z   2
loop_
 _symmetry_equiv_pos_site_id
 _symmetry_equiv_pos_as_xyz
  1  'x, y, z'
loop_
 _atom_site_type_symbol
 _atom_site_label
 _atom_site_symmetry_multiplicity
 _atom_site_fract_x
 _atom_site_fract_y
 _atom_site_fract_z
 _atom_site_occupancy
  Pr  Pr0  1  0.26527906  0.45067091  0.86337370  1
  Pr  Pr1  1  0.72923826  0.56074759  0.13510208  1
  Pr  Pr2  1  0.77514098  0.97066607  0.87223074  1
  Pr  Pr3  1  0.22406577  0.02626802  0.12181067  1
  Mn  Mn4  1  0.28739939  0.56560137  0.58833568  1
  Mn  Mn5  1  0.70860588  0.47211318  0.39871090  1
  Mn  Mn6  1  0.00011513  0.93294267  0.99649976  1
  Mn  Mn7  1  0.79759436  0.99896190  0.60793214  1
  Mn  Mn8  1  0.18376193  0.99456389  0.39733742  1
  Mn  Mn9  1  0.52787246  0.54533705  0.02879929  1
  Sb  Sb10  1  0.89724785  0.02336112  0.45667498  1
  Sb  Sb11  1  0.11904742  0.99350797  0.55921490  1
  Sb  Sb12  1  0.03496367  0.49692186  0.80982860  1
  Sb  Sb13  1  0.96766242  0.49370460  0.19703310  1
  Sb  Sb14  1  0.39546717  0.50186814  0.45389146  1
  Sb  Sb15  1  0.61745041  0.43498307  0.55687516  1
  Sb  Sb16  1  0.53159965  0.97418590  0.82042705  1
  Sb  Sb17  1  0.46894144  0.03543591  0.19467055  1
  S  S18  1  0.94596333  0.96270896  0.81577763  1
  S  S19  1  0.07003804  0.01603075  0.21937471  1
  S  S20  1  0.42002884  0.97981461  0.00195942  1
  S  S21  1  0.59993536  0.02353467  0.02825274  1
  S  S22  1  0.19163959  0.95158914  0.91606843  1
  S  S23  1  0.84016223  0.01374605  0.11514205  1
  S  S24  1  0.09599078  0.47351311  0.66829615  1
  S  S25  1  0.88946730  0.50837360  0.33930948  1
  S  S26  1  0.73259360  0.93112192  0.30946448  1
  S  S27  1  0.27258826  0.05983964  0.68934468  1
  S  S28  1  0.16245372  0.46650681  0.44730488  1
  S  S29  1  0.84037076  0.43592269  0.55505230  1
  S  S30  1  0.44827288  0.48811838  0.83652620  1
  S  S31  1  0.58175380  0.55216657  0.21588949  1
  S  S32  1  0.92718154  0.48457365  0.99778062  1
  S  S33  1  0.08936745  0.51007268  0.01136925  1
  S  S34  1  0.68154616  0.44779004  0.89774052  1
  S  S35  1  0.35458152  0.47442882  0.11723893  1
  S  S36  1  0.60888113  0.96697125  0.66463667  1
  S  S37  1  0.40884929  0.97630530  0.35043764  1
  S  S38  1  0.24646471  0.52453998  0.28864993  1
  S  S39  1  0.76350962  0.52324386  0.67526763  1
  S  S40  1  0.67671654  0.92017839  0.45663783  1
  S  S41  1  0.32747619  0.05955037  0.54324961  1
