# generated using pymatgen
data_Pr2Mn3(SbS3)4
_symmetry_space_group_name_H-M   'P 1'
_cell_length_a   20.02960800
_cell_length_b   3.90410600
_cell_length_c   14.95364829
_cell_angle_alpha   90.00000000
_cell_angle_beta   126.33350609
_cell_angle_gamma   90.00000000
_symmetry_Int_Tables_number   1
_chemical_formula_structural   Pr2Mn3(SbS3)4
_chemical_formula_sum   'Pr4 Mn6 Sb8 S24'
_cell_volume   942.00006694
_cell_formula_units_Z   2
loop_
 _symmetry_equiv_pos_site_id
 _symmetry_equiv_pos_as_xyz
  1  'x, y, z'
loop_
 _atom_site_type_symbol
 _atom_site_label
 _atom_site_symmetry_multiplicity
 _atom_site_fract_x
 _atom_site_fract_y
 _atom_site_fract_z
 _atom_site_occupancy
  Pr  Pr0  1  0.26971001  0.50628527  0.86985492  1
  Pr  Pr1  1  0.73466296  0.51341875  0.13520313  1
  Pr  Pr2  1  0.76434327  0.03136446  0.86830214  1
  Pr  Pr3  1  0.22932815  0.97829533  0.12992982  1
  Mn  Mn4  1  0.30024442  0.46404951  0.60893455  1
  Mn  Mn5  1  0.68558254  0.46924924  0.36504024  1
  Mn  Mn6  1  0.00158946  0.98761203  0.00899531  1
  Mn  Mn7  1  0.79225106  0.02880439  0.61440230  1
  Mn  Mn8  1  0.19648890  0.00867375  0.36840789  1
  Mn  Mn9  1  0.48184903  0.47177593  0.98219873  1
  Sb  Sb10  1  0.89026873  0.98340299  0.44813205  1
  Sb  Sb11  1  0.11175778  0.98083947  0.54741797  1
  Sb  Sb12  1  0.03702805  0.52680582  0.82370416  1
  Sb  Sb13  1  0.96846373  0.48829501  0.19188178  1
  Sb  Sb14  1  0.39650716  0.49828480  0.45269571  1
  Sb  Sb15  1  0.61165603  0.48215352  0.54789261  1
  Sb  Sb16  1  0.52999042  0.97038124  0.80474686  1
  Sb  Sb17  1  0.46563621  0.02475622  0.18648614  1
  S  S18  1  0.94157389  0.01966513  0.80992363  1
  S  S19  1  0.06630409  0.00298894  0.20639328  1
  S  S20  1  0.41737885  0.97794569  0.97883777  1
  S  S21  1  0.58649619  0.02250239  0.01112337  1
  S  S22  1  0.16262512  0.03287481  0.89871250  1
  S  S23  1  0.82690725  0.99425135  0.10420817  1
  S  S24  1  0.08557859  0.49945556  0.63642532  1
  S  S25  1  0.91542596  0.48632562  0.35294012  1
  S  S26  1  0.73434097  0.01186166  0.29390761  1
  S  S27  1  0.26015701  0.01214309  0.70581819  1
  S  S28  1  0.16946169  0.52176073  0.43776504  1
  S  S29  1  0.80928754  0.51452427  0.53856432  1
  S  S30  1  0.43379177  0.48016013  0.80278019  1
  S  S31  1  0.55418957  0.50195106  0.18135155  1
  S  S32  1  0.92334003  0.50790403  0.98906331  1
  S  S33  1  0.09066057  0.49803235  0.02696635  1
  S  S34  1  0.66748981  0.55763961  0.89622488  1
  S  S35  1  0.32911157  0.46119511  0.09850264  1
  S  S36  1  0.58886852  0.99985805  0.64775654  1
  S  S37  1  0.39465186  0.98548621  0.33400693  1
  S  S38  1  0.24724976  0.47634795  0.31689594  1
  S  S39  1  0.76384240  0.50841533  0.69173388  1
  S  S40  1  0.65859334  0.98356151  0.43811790  1
  S  S41  1  0.32969330  0.98478165  0.55177260  1
