# generated using pymatgen
data_Pr2Mn3(SbS3)4
_symmetry_space_group_name_H-M   'P 1'
_cell_length_a   20.02960800
_cell_length_b   3.90410600
_cell_length_c   14.95364829
_cell_angle_alpha   90.00000000
_cell_angle_beta   126.33350609
_cell_angle_gamma   90.00000000
_symmetry_Int_Tables_number   1
_chemical_formula_structural   Pr2Mn3(SbS3)4
_chemical_formula_sum   'Pr4 Mn6 Sb8 S24'
_cell_volume   942.00006694
_cell_formula_units_Z   2
loop_
 _symmetry_equiv_pos_site_id
 _symmetry_equiv_pos_as_xyz
  1  'x, y, z'
loop_
 _atom_site_type_symbol
 _atom_site_label
 _atom_site_symmetry_multiplicity
 _atom_site_fract_x
 _atom_site_fract_y
 _atom_site_fract_z
 _atom_site_occupancy
  Pr  Pr0  1  0.26532612  0.45110495  0.86360982  1
  Pr  Pr1  1  0.72917284  0.56149751  0.13510556  1
  Pr  Pr2  1  0.77537090  0.97056965  0.87230966  1
  Pr  Pr3  1  0.22411850  0.02682736  0.12181655  1
  Mn  Mn4  1  0.28732918  0.56658574  0.58817713  1
  Mn  Mn5  1  0.70869373  0.47171366  0.39879884  1
  Mn  Mn6  1  0.00001510  0.93437141  0.99655804  1
  Mn  Mn7  1  0.79778285  0.99906679  0.60810443  1
  Mn  Mn8  1  0.18389881  0.99531369  0.39737975  1
  Mn  Mn9  1  0.52760266  0.54507970  0.02871897  1
  Sb  Sb10  1  0.89723235  0.02448086  0.45662274  1
  Sb  Sb11  1  0.11913154  0.99469869  0.55930976  1
  Sb  Sb12  1  0.03493999  0.49771405  0.80977676  1
  Sb  Sb13  1  0.96783658  0.49335710  0.19745612  1
  Sb  Sb14  1  0.39545065  0.50117872  0.45381822  1
  Sb  Sb15  1  0.61761163  0.43526594  0.55660520  1
  Sb  Sb16  1  0.53166659  0.97484303  0.82047898  1
  Sb  Sb17  1  0.46896749  0.03513040  0.19452235  1
  S  S18  1  0.94563606  0.96218596  0.81526288  1
  S  S19  1  0.06984594  0.01539513  0.21919982  1
  S  S20  1  0.41955188  0.98034093  0.00167157  1
  S  S21  1  0.59987790  0.02242546  0.02788305  1
  S  S22  1  0.19151112  0.95123382  0.91601293  1
  S  S23  1  0.84039193  0.01305499  0.11529621  1
  S  S24  1  0.09585207  0.47479676  0.66821779  1
  S  S25  1  0.88979513  0.50781218  0.33974463  1
  S  S26  1  0.73287997  0.93041172  0.30970579  1
  S  S27  1  0.27242028  0.05838254  0.68913301  1
  S  S28  1  0.16227286  0.46758731  0.44715355  1
  S  S29  1  0.84078345  0.43565856  0.55519782  1
  S  S30  1  0.44860281  0.48815600  0.83684954  1
  S  S31  1  0.58210696  0.55016924  0.21588764  1
  S  S32  1  0.92719280  0.48452457  0.99746769  1
  S  S33  1  0.08916011  0.51006605  0.01143168  1
  S  S34  1  0.68164733  0.44540554  0.89779836  1
  S  S35  1  0.35462694  0.47505499  0.11732758  1
  S  S36  1  0.60931507  0.96604545  0.66458101  1
  S  S37  1  0.40877927  0.97725950  0.34992976  1
  S  S38  1  0.24609563  0.52355528  0.28848816  1
  S  S39  1  0.76373399  0.52369473  0.67555021  1
  S  S40  1  0.67691896  0.91986193  0.45687171  1
  S  S41  1  0.32802626  0.06067330  0.54398251  1
