# generated using pymatgen
data_Pr2Mn3(SbS3)4
_symmetry_space_group_name_H-M   'P 1'
_cell_length_a   20.02960800
_cell_length_b   3.90410600
_cell_length_c   14.95364829
_cell_angle_alpha   90.00000000
_cell_angle_beta   126.33350609
_cell_angle_gamma   90.00000000
_symmetry_Int_Tables_number   1
_chemical_formula_structural   Pr2Mn3(SbS3)4
_chemical_formula_sum   'Pr4 Mn6 Sb8 S24'
_cell_volume   942.00006694
_cell_formula_units_Z   2
loop_
 _symmetry_equiv_pos_site_id
 _symmetry_equiv_pos_as_xyz
  1  'x, y, z'
loop_
 _atom_site_type_symbol
 _atom_site_label
 _atom_site_symmetry_multiplicity
 _atom_site_fract_x
 _atom_site_fract_y
 _atom_site_fract_z
 _atom_site_occupancy
  Pr  Pr0  1  0.26532943  0.45141876  0.86378082  1
  Pr  Pr1  1  0.72914122  0.56206072  0.13517656  1
  Pr  Pr2  1  0.77558171  0.97033082  0.87237373  1
  Pr  Pr3  1  0.22418509  0.02708833  0.12196738  1
  Mn  Mn4  1  0.28719182  0.56763427  0.58797209  1
  Mn  Mn5  1  0.70867731  0.47143351  0.39863785  1
  Mn  Mn6  1  0.99991208  0.93622366  0.99665990  1
  Mn  Mn7  1  0.79791864  0.99941563  0.60841356  1
  Mn  Mn8  1  0.18416119  0.99563641  0.39759461  1
  Mn  Mn9  1  0.52733822  0.54470787  0.02858781  1
  Sb  Sb10  1  0.89724099  0.02534850  0.45656939  1
  Sb  Sb11  1  0.11916082  0.99566389  0.55928803  1
  Sb  Sb12  1  0.03487607  0.49864430  0.80965359  1
  Sb  Sb13  1  0.96793820  0.49309435  0.19777016  1
  Sb  Sb14  1  0.39541017  0.50070496  0.45379544  1
  Sb  Sb15  1  0.61773252  0.43547113  0.55629235  1
  Sb  Sb16  1  0.53172162  0.97535016  0.82058282  1
  Sb  Sb17  1  0.46897524  0.03492289  0.19427653  1
  S  S18  1  0.94528438  0.96217584  0.81492332  1
  S  S19  1  0.06984091  0.01531660  0.21922815  1
  S  S20  1  0.41922183  0.98067454  0.00159514  1
  S  S21  1  0.59981185  0.02065170  0.02761016  1
  S  S22  1  0.19155980  0.95054338  0.91612413  1
  S  S23  1  0.84066129  0.01204165  0.11558286  1
  S  S24  1  0.09583030  0.47655298  0.66803894  1
  S  S25  1  0.89027974  0.50724716  0.34042633  1
  S  S26  1  0.73316977  0.92946732  0.31001424  1
  S  S27  1  0.27238720  0.05686038  0.68916937  1
  S  S28  1  0.16222101  0.46840514  0.44689856  1
  S  S29  1  0.84127378  0.43606550  0.55542988  1
  S  S30  1  0.44899423  0.48792258  0.83714777  1
  S  S31  1  0.58231837  0.54796234  0.21579769  1
  S  S32  1  0.92719945  0.48441743  0.99718342  1
  S  S33  1  0.08902149  0.50998013  0.01142221  1
  S  S34  1  0.68170817  0.44319089  0.89774162  1
  S  S35  1  0.35452784  0.47473916  0.11727032  1
  S  S36  1  0.60960669  0.96489254  0.66451330  1
  S  S37  1  0.40869679  0.97882443  0.34945036  1
  S  S38  1  0.24574956  0.52223622  0.28831408  1
  S  S39  1  0.76385271  0.52383016  0.67577554  1
  S  S40  1  0.67709403  0.92037046  0.45725890  1
  S  S41  1  0.32835630  0.06122638  0.54463057  1
