# generated using pymatgen
data_Pr2Mn3(SbS3)4
_symmetry_space_group_name_H-M   'P 1'
_cell_length_a   20.02960800
_cell_length_b   3.90410600
_cell_length_c   14.95364829
_cell_angle_alpha   90.00000000
_cell_angle_beta   126.33350609
_cell_angle_gamma   90.00000000
_symmetry_Int_Tables_number   1
_chemical_formula_structural   Pr2Mn3(SbS3)4
_chemical_formula_sum   'Pr4 Mn6 Sb8 S24'
_cell_volume   942.00006694
_cell_formula_units_Z   2
loop_
 _symmetry_equiv_pos_site_id
 _symmetry_equiv_pos_as_xyz
  1  'x, y, z'
loop_
 _atom_site_type_symbol
 _atom_site_label
 _atom_site_symmetry_multiplicity
 _atom_site_fract_x
 _atom_site_fract_y
 _atom_site_fract_z
 _atom_site_occupancy
  Pr  Pr0  1  0.26528803  0.45160904  0.86389732  1
  Pr  Pr1  1  0.72913390  0.56254852  0.13525361  1
  Pr  Pr2  1  0.77570285  0.97013278  0.87239146  1
  Pr  Pr3  1  0.22428316  0.02712412  0.12215311  1
  Mn  Mn4  1  0.28696153  0.56892387  0.58779791  1
  Mn  Mn5  1  0.70861174  0.47072002  0.39837300  1
  Mn  Mn6  1  0.99981152  0.93808792  0.99669577  1
  Mn  Mn7  1  0.79813358  0.00023488  0.60892215  1
  Mn  Mn8  1  0.18440813  0.99573979  0.39774104  1
  Mn  Mn9  1  0.52709570  0.54434946  0.02845922  1
  Sb  Sb10  1  0.89725873  0.02628742  0.45660551  1
  Sb  Sb11  1  0.11918756  0.99662319  0.55923804  1
  Sb  Sb12  1  0.03484964  0.49945781  0.80962895  1
  Sb  Sb13  1  0.96798571  0.49261945  0.19793498  1
  Sb  Sb14  1  0.39541687  0.50034805  0.45376383  1
  Sb  Sb15  1  0.61794819  0.43592898  0.55607427  1
  Sb  Sb16  1  0.53180591  0.97582502  0.82076239  1
  Sb  Sb17  1  0.46901944  0.03458878  0.19403470  1
  S  S18  1  0.94495502  0.96154385  0.81458294  1
  S  S19  1  0.06970395  0.01483648  0.21922879  1
  S  S20  1  0.41896924  0.98091113  0.00155614  1
  S  S21  1  0.59967341  0.01974564  0.02731717  1
  S  S22  1  0.19169014  0.95044195  0.91637287  1
  S  S23  1  0.84091015  0.01100161  0.11574462  1
  S  S24  1  0.09587516  0.47852977  0.66793165  1
  S  S25  1  0.89073274  0.50652391  0.34114072  1
  S  S26  1  0.73365442  0.92888315  0.31044064  1
  S  S27  1  0.27220397  0.05565954  0.68911640  1
  S  S28  1  0.16206627  0.46879051  0.44657935  1
  S  S29  1  0.84155566  0.43688527  0.55565582  1
  S  S30  1  0.44957667  0.48827781  0.83751547  1
  S  S31  1  0.58255881  0.54599407  0.21581280  1
  S  S32  1  0.92724647  0.48389316  0.99693230  1
  S  S33  1  0.08868184  0.50957581  0.01119410  1
  S  S34  1  0.68175971  0.44073519  0.89791400  1
  S  S35  1  0.35440768  0.47472895  0.11724851  1
  S  S36  1  0.60973955  0.96361455  0.66440238  1
  S  S37  1  0.40871384  0.98028526  0.34910732  1
  S  S38  1  0.24535677  0.52052100  0.28805546  1
  S  S39  1  0.76401088  0.52434200  0.67605393  1
  S  S40  1  0.67741480  0.92046903  0.45795992  1
  S  S41  1  0.32863718  0.06164845  0.54516020  1
