# generated using pymatgen
data_Pr2Mn3(SbS3)4
_symmetry_space_group_name_H-M   'P 1'
_cell_length_a   20.02960800
_cell_length_b   3.90410600
_cell_length_c   14.95364829
_cell_angle_alpha   90.00000000
_cell_angle_beta   126.33350609
_cell_angle_gamma   90.00000000
_symmetry_Int_Tables_number   1
_chemical_formula_structural   Pr2Mn3(SbS3)4
_chemical_formula_sum   'Pr4 Mn6 Sb8 S24'
_cell_volume   942.00006694
_cell_formula_units_Z   2
loop_
 _symmetry_equiv_pos_site_id
 _symmetry_equiv_pos_as_xyz
  1  'x, y, z'
loop_
 _atom_site_type_symbol
 _atom_site_label
 _atom_site_symmetry_multiplicity
 _atom_site_fract_x
 _atom_site_fract_y
 _atom_site_fract_z
 _atom_site_occupancy
  Pr  Pr0  1  0.26518513  0.45174550  0.86398110  1
  Pr  Pr1  1  0.72922737  0.56294011  0.13538678  1
  Pr  Pr2  1  0.77576095  0.97018148  0.87233809  1
  Pr  Pr3  1  0.22437923  0.02721058  0.12237861  1
  Mn  Mn4  1  0.28665536  0.57007084  0.58743308  1
  Mn  Mn5  1  0.70851379  0.46960520  0.39792521  1
  Mn  Mn6  1  0.99969061  0.93995083  0.99680022  1
  Mn  Mn7  1  0.79820973  0.00116999  0.60921703  1
  Mn  Mn8  1  0.18460491  0.99559323  0.39803558  1
  Mn  Mn9  1  0.52679693  0.54421042  0.02824930  1
  Sb  Sb10  1  0.89731456  0.02688479  0.45666041  1
  Sb  Sb11  1  0.11914780  0.99754710  0.55907861  1
  Sb  Sb12  1  0.03486002  0.50042788  0.80958999  1
  Sb  Sb13  1  0.96799714  0.49281788  0.19809394  1
  Sb  Sb14  1  0.39540038  0.49988053  0.45378925  1
  Sb  Sb15  1  0.61818104  0.43632455  0.55593091  1
  Sb  Sb16  1  0.53182008  0.97648849  0.82086572  1
  Sb  Sb17  1  0.46908073  0.03455320  0.19373817  1
  S  S18  1  0.94461978  0.96061733  0.81433143  1
  S  S19  1  0.06959988  0.01463742  0.21912587  1
  S  S20  1  0.41900402  0.98100710  0.00174335  1
  S  S21  1  0.59969202  0.01943849  0.02706964  1
  S  S22  1  0.19167836  0.95020466  0.91654222  1
  S  S23  1  0.84099983  0.01051827  0.11574719  1
  S  S24  1  0.09591566  0.48065527  0.66775177  1
  S  S25  1  0.89109490  0.50517985  0.34178091  1
  S  S26  1  0.73410013  0.92831378  0.31089868  1
  S  S27  1  0.27202399  0.05446479  0.68902788  1
  S  S28  1  0.16183311  0.46916706  0.44642279  1
  S  S29  1  0.84182781  0.43780334  0.55577419  1
  S  S30  1  0.45018465  0.48955520  0.83789415  1
  S  S31  1  0.58284940  0.54429066  0.21591149  1
  S  S32  1  0.92732992  0.48327525  0.99668644  1
  S  S33  1  0.08850684  0.51007354  0.01111153  1
  S  S34  1  0.68166360  0.43795174  0.89791506  1
  S  S35  1  0.35441428  0.47434041  0.11716243  1
  S  S36  1  0.60974969  0.96200184  0.66442186  1
  S  S37  1  0.40874781  0.98163372  0.34890668  1
  S  S38  1  0.24494554  0.51896806  0.28772116  1
  S  S39  1  0.76422953  0.52467861  0.67632828  1
  S  S40  1  0.67766166  0.92091981  0.45854678  1
  S  S41  1  0.32883178  0.06251783  0.54563345  1
