# generated using pymatgen
data_Pr2Mn3(SbS3)4
_symmetry_space_group_name_H-M   'P 1'
_cell_length_a   20.02960800
_cell_length_b   3.90410600
_cell_length_c   14.95364829
_cell_angle_alpha   90.00000000
_cell_angle_beta   126.33350609
_cell_angle_gamma   90.00000000
_symmetry_Int_Tables_number   1
_chemical_formula_structural   Pr2Mn3(SbS3)4
_chemical_formula_sum   'Pr4 Mn6 Sb8 S24'
_cell_volume   942.00006694
_cell_formula_units_Z   2
loop_
 _symmetry_equiv_pos_site_id
 _symmetry_equiv_pos_as_xyz
  1  'x, y, z'
loop_
 _atom_site_type_symbol
 _atom_site_label
 _atom_site_symmetry_multiplicity
 _atom_site_fract_x
 _atom_site_fract_y
 _atom_site_fract_z
 _atom_site_occupancy
  Pr  Pr0  1  0.26510149  0.45200622  0.86409287  1
  Pr  Pr1  1  0.72937999  0.56345258  0.13561826  1
  Pr  Pr2  1  0.77582545  0.97006019  0.87234171  1
  Pr  Pr3  1  0.22443164  0.02667085  0.12253521  1
  Mn  Mn4  1  0.28642575  0.57118438  0.58708153  1
  Mn  Mn5  1  0.70839915  0.46850481  0.39747347  1
  Mn  Mn6  1  0.99953453  0.94134644  0.99686795  1
  Mn  Mn7  1  0.79838163  0.00154068  0.60963969  1
  Mn  Mn8  1  0.18469516  0.99508015  0.39824693  1
  Mn  Mn9  1  0.52656817  0.54396511  0.02800617  1
  Sb  Sb10  1  0.89739687  0.02736363  0.45677783  1
  Sb  Sb11  1  0.11903846  0.99802538  0.55886772  1
  Sb  Sb12  1  0.03492254  0.50105998  0.80957888  1
  Sb  Sb13  1  0.96795330  0.49287580  0.19813209  1
  Sb  Sb14  1  0.39536269  0.49944034  0.45381968  1
  Sb  Sb15  1  0.61833573  0.43654229  0.55577069  1
  Sb  Sb16  1  0.53179952  0.97699377  0.82100927  1
  Sb  Sb17  1  0.46912988  0.03435965  0.19349010  1
  S  S18  1  0.94426238  0.96067123  0.81406425  1
  S  S19  1  0.06955696  0.01439023  0.21910451  1
  S  S20  1  0.41911970  0.98098462  0.00207084  1
  S  S21  1  0.59962292  0.01963934  0.02674379  1
  S  S22  1  0.19170281  0.94965721  0.91695428  1
  S  S23  1  0.84112712  0.00991695  0.11591501  1
  S  S24  1  0.09576906  0.48300804  0.66732860  1
  S  S25  1  0.89134701  0.50393473  0.34238874  1
  S  S26  1  0.73448090  0.92767372  0.31123855  1
  S  S27  1  0.27188444  0.05316805  0.68906806  1
  S  S28  1  0.16157272  0.46898273  0.44616129  1
  S  S29  1  0.84205649  0.43871217  0.55579125  1
  S  S30  1  0.45082794  0.49099015  0.83830526  1
  S  S31  1  0.58298338  0.54305445  0.21592240  1
  S  S32  1  0.92744332  0.48278910  0.99658389  1
  S  S33  1  0.08846433  0.51097388  0.01112198  1
  S  S34  1  0.68147935  0.43536066  0.89780189  1
  S  S35  1  0.35442657  0.47358473  0.11709908  1
  S  S36  1  0.60981037  0.96050276  0.66447062  1
  S  S37  1  0.40871093  0.98309026  0.34871284  1
  S  S38  1  0.24460939  0.51789164  0.28749874  1
  S  S39  1  0.76455462  0.52470027  0.67684991  1
  S  S40  1  0.67788991  0.92214442  0.45905471  1
  S  S41  1  0.32891404  0.06314831  0.54597444  1
