# generated using pymatgen
data_Pr2Mn3(SbS3)4
_symmetry_space_group_name_H-M   'P 1'
_cell_length_a   20.02960800
_cell_length_b   3.90410600
_cell_length_c   14.95364829
_cell_angle_alpha   90.00000000
_cell_angle_beta   126.33350609
_cell_angle_gamma   90.00000000
_symmetry_Int_Tables_number   1
_chemical_formula_structural   Pr2Mn3(SbS3)4
_chemical_formula_sum   'Pr4 Mn6 Sb8 S24'
_cell_volume   942.00006694
_cell_formula_units_Z   2
loop_
 _symmetry_equiv_pos_site_id
 _symmetry_equiv_pos_as_xyz
  1  'x, y, z'
loop_
 _atom_site_type_symbol
 _atom_site_label
 _atom_site_symmetry_multiplicity
 _atom_site_fract_x
 _atom_site_fract_y
 _atom_site_fract_z
 _atom_site_occupancy
  Pr  Pr0  1  0.26506595  0.45227493  0.86422040  1
  Pr  Pr1  1  0.72956461  0.56396950  0.13593274  1
  Pr  Pr2  1  0.77590620  0.96980022  0.87228432  1
  Pr  Pr3  1  0.22444426  0.02597241  0.12261545  1
  Mn  Mn4  1  0.28620871  0.57201267  0.58669299  1
  Mn  Mn5  1  0.70827031  0.46788021  0.39719991  1
  Mn  Mn6  1  0.99937592  0.94289712  0.99702437  1
  Mn  Mn7  1  0.79865670  0.00230407  0.61007996  1
  Mn  Mn8  1  0.18486507  0.99492180  0.39838221  1
  Mn  Mn9  1  0.52632889  0.54367111  0.02785526  1
  Sb  Sb10  1  0.89739817  0.02791527  0.45695279  1
  Sb  Sb11  1  0.11891431  0.99827740  0.55868188  1
  Sb  Sb12  1  0.03492340  0.50151884  0.80952113  1
  Sb  Sb13  1  0.96798128  0.49299431  0.19824306  1
  Sb  Sb14  1  0.39531379  0.49900693  0.45375170  1
  Sb  Sb15  1  0.61842316  0.43686421  0.55559402  1
  Sb  Sb16  1  0.53170592  0.97736317  0.82098805  1
  Sb  Sb17  1  0.46916624  0.03414286  0.19328052  1
  S  S18  1  0.94389032  0.96092130  0.81391940  1
  S  S19  1  0.06950078  0.01391992  0.21893382  1
  S  S20  1  0.41914561  0.98118771  0.00222006  1
  S  S21  1  0.59956706  0.01977686  0.02645637  1
  S  S22  1  0.19180288  0.94924979  0.91746575  1
  S  S23  1  0.84103914  0.00930392  0.11586747  1
  S  S24  1  0.09558326  0.48532927  0.66670402  1
  S  S25  1  0.89148922  0.50306007  0.34281758  1
  S  S26  1  0.73482855  0.92737488  0.31134197  1
  S  S27  1  0.27170021  0.05136170  0.68915462  1
  S  S28  1  0.16131630  0.46804670  0.44579760  1
  S  S29  1  0.84238058  0.43948827  0.55585018  1
  S  S30  1  0.45133011  0.49235618  0.83875949  1
  S  S31  1  0.58319639  0.54215927  0.21621450  1
  S  S32  1  0.92763591  0.48273759  0.99665422  1
  S  S33  1  0.08849118  0.51199532  0.01140417  1
  S  S34  1  0.68136941  0.43277374  0.89800604  1
  S  S35  1  0.35434982  0.47386632  0.11709229  1
  S  S36  1  0.60976512  0.95911935  0.66447948  1
  S  S37  1  0.40886966  0.98477800  0.34882738  1
  S  S38  1  0.24432411  0.51634513  0.28745367  1
  S  S39  1  0.76484442  0.52434514  0.67740417  1
  S  S40  1  0.67802737  0.92312167  0.45932919  1
  S  S41  1  0.32895228  0.06451522  0.54625823  1
