# generated using pymatgen
data_Pr2Mn3(SbS3)4
_symmetry_space_group_name_H-M   'P 1'
_cell_length_a   20.02960800
_cell_length_b   3.90410600
_cell_length_c   14.95364829
_cell_angle_alpha   90.00000000
_cell_angle_beta   126.33350609
_cell_angle_gamma   90.00000000
_symmetry_Int_Tables_number   1
_chemical_formula_structural   Pr2Mn3(SbS3)4
_chemical_formula_sum   'Pr4 Mn6 Sb8 S24'
_cell_volume   942.00006694
_cell_formula_units_Z   2
loop_
 _symmetry_equiv_pos_site_id
 _symmetry_equiv_pos_as_xyz
  1  'x, y, z'
loop_
 _atom_site_type_symbol
 _atom_site_label
 _atom_site_symmetry_multiplicity
 _atom_site_fract_x
 _atom_site_fract_y
 _atom_site_fract_z
 _atom_site_occupancy
  Pr  Pr0  1  0.26505228  0.45270961  0.86441803  1
  Pr  Pr1  1  0.72976725  0.56426304  0.13618956  1
  Pr  Pr2  1  0.77601074  0.96977327  0.87224790  1
  Pr  Pr3  1  0.22447241  0.02530836  0.12270344  1
  Mn  Mn4  1  0.28598706  0.57316368  0.58625868  1
  Mn  Mn5  1  0.70814284  0.46773772  0.39682458  1
  Mn  Mn6  1  0.99920177  0.94476864  0.99715898  1
  Mn  Mn7  1  0.79882674  0.00275065  0.61054430  1
  Mn  Mn8  1  0.18489792  0.99426529  0.39837204  1
  Mn  Mn9  1  0.52611803  0.54299816  0.02782519  1
  Sb  Sb10  1  0.89738451  0.02851492  0.45721301  1
  Sb  Sb11  1  0.11876990  0.99863068  0.55855682  1
  Sb  Sb12  1  0.03484975  0.50196111  0.80944863  1
  Sb  Sb13  1  0.96802651  0.49296520  0.19838072  1
  Sb  Sb14  1  0.39522243  0.49897098  0.45369586  1
  Sb  Sb15  1  0.61848438  0.43725875  0.55544431  1
  Sb  Sb16  1  0.53168632  0.97758508  0.82102724  1
  Sb  Sb17  1  0.46914970  0.03395209  0.19307640  1
  S  S18  1  0.94354809  0.96061606  0.81383805  1
  S  S19  1  0.06943683  0.01407409  0.21861140  1
  S  S20  1  0.41937379  0.98102850  0.00255884  1
  S  S21  1  0.59951171  0.01990877  0.02608736  1
  S  S22  1  0.19214578  0.94893410  0.91796875  1
  S  S23  1  0.84088282  0.00873998  0.11592856  1
  S  S24  1  0.09535667  0.48803517  0.66616659  1
  S  S25  1  0.89157859  0.50276149  0.34334708  1
  S  S26  1  0.73508525  0.92757469  0.31140781  1
  S  S27  1  0.27153874  0.04905391  0.68925859  1
  S  S28  1  0.16111426  0.46733315  0.44558593  1
  S  S29  1  0.84257034  0.44033664  0.55584751  1
  S  S30  1  0.45191101  0.49260985  0.83913998  1
  S  S31  1  0.58331379  0.54115465  0.21629541  1
  S  S32  1  0.92782190  0.48196844  0.99661577  1
  S  S33  1  0.08851367  0.51227310  0.01159263  1
  S  S34  1  0.68123784  0.43084349  0.89818177  1
  S  S35  1  0.35429181  0.47355477  0.11708458  1
  S  S36  1  0.60971316  0.95808760  0.66418323  1
  S  S37  1  0.40927922  0.98590917  0.34909205  1
  S  S38  1  0.24419199  0.51459348  0.28763611  1
  S  S39  1  0.76510698  0.52389446  0.67794869  1
  S  S40  1  0.67815419  0.92381929  0.45957427  1
  S  S41  1  0.32896049  0.06534158  0.54658624  1
