# generated using pymatgen
data_Pr2Mn3(SbS3)4
_symmetry_space_group_name_H-M   'P 1'
_cell_length_a   20.02960800
_cell_length_b   3.90410600
_cell_length_c   14.95364829
_cell_angle_alpha   90.00000000
_cell_angle_beta   126.33350609
_cell_angle_gamma   90.00000000
_symmetry_Int_Tables_number   1
_chemical_formula_structural   Pr2Mn3(SbS3)4
_chemical_formula_sum   'Pr4 Mn6 Sb8 S24'
_cell_volume   942.00006694
_cell_formula_units_Z   2
loop_
 _symmetry_equiv_pos_site_id
 _symmetry_equiv_pos_as_xyz
  1  'x, y, z'
loop_
 _atom_site_type_symbol
 _atom_site_label
 _atom_site_symmetry_multiplicity
 _atom_site_fract_x
 _atom_site_fract_y
 _atom_site_fract_z
 _atom_site_occupancy
  Pr  Pr0  1  0.26512241  0.45321832  0.86467387  1
  Pr  Pr1  1  0.72992526  0.56443714  0.13639036  1
  Pr  Pr2  1  0.77609721  0.97011596  0.87219547  1
  Pr  Pr3  1  0.22456680  0.02483124  0.12282925  1
  Mn  Mn4  1  0.28596136  0.57472664  0.58595118  1
  Mn  Mn5  1  0.70792751  0.46762411  0.39654913  1
  Mn  Mn6  1  0.99911563  0.94636035  0.99721624  1
  Mn  Mn7  1  0.79888075  0.00320465  0.61092749  1
  Mn  Mn8  1  0.18492975  0.99401948  0.39841645  1
  Mn  Mn9  1  0.52584804  0.54259033  0.02764104  1
  Sb  Sb10  1  0.89731951  0.02925052  0.45743406  1
  Sb  Sb11  1  0.11856251  0.99916072  0.55839448  1
  Sb  Sb12  1  0.03484616  0.50262020  0.80950492  1
  Sb  Sb13  1  0.96807411  0.49278111  0.19853524  1
  Sb  Sb14  1  0.39514098  0.49874011  0.45371130  1
  Sb  Sb15  1  0.61857220  0.43772795  0.55535954  1
  Sb  Sb16  1  0.53163632  0.97813288  0.82102089  1
  Sb  Sb17  1  0.46924888  0.03391060  0.19297289  1
  S  S18  1  0.94326558  0.96109540  0.81378570  1
  S  S19  1  0.06945881  0.01430186  0.21843158  1
  S  S20  1  0.41960937  0.98117015  0.00291729  1
  S  S21  1  0.59935644  0.02014642  0.02545365  1
  S  S22  1  0.19250955  0.94849920  0.91849426  1
  S  S23  1  0.84067157  0.00896079  0.11578456  1
  S  S24  1  0.09520201  0.49033954  0.66572819  1
  S  S25  1  0.89172823  0.50253979  0.34397298  1
  S  S26  1  0.73537739  0.92727272  0.31130415  1
  S  S27  1  0.27130836  0.04631312  0.68920226  1
  S  S28  1  0.16089701  0.46634274  0.44533326  1
  S  S29  1  0.84259972  0.44158390  0.55584072  1
  S  S30  1  0.45250906  0.49284616  0.83960101  1
  S  S31  1  0.58348141  0.54007537  0.21647371  1
  S  S32  1  0.92796883  0.48122054  0.99662645  1
  S  S33  1  0.08834790  0.51216272  0.01176408  1
  S  S34  1  0.68110232  0.42935919  0.89846577  1
  S  S35  1  0.35432895  0.47310948  0.11703389  1
  S  S36  1  0.60958112  0.95659542  0.66391622  1
  S  S37  1  0.40990735  0.98682922  0.34954131  1
  S  S38  1  0.24410518  0.51301798  0.28772320  1
  S  S39  1  0.76540280  0.52307138  0.67845650  1
  S  S40  1  0.67824343  0.92469799  0.45974865  1
  S  S41  1  0.32902652  0.06585367  0.54685361  1
