# generated using pymatgen
data_Pr2Mn3(SbS3)4
_symmetry_space_group_name_H-M   'P 1'
_cell_length_a   20.02960800
_cell_length_b   3.90410600
_cell_length_c   14.95364829
_cell_angle_alpha   90.00000000
_cell_angle_beta   126.33350609
_cell_angle_gamma   90.00000000
_symmetry_Int_Tables_number   1
_chemical_formula_structural   Pr2Mn3(SbS3)4
_chemical_formula_sum   'Pr4 Mn6 Sb8 S24'
_cell_volume   942.00006694
_cell_formula_units_Z   2
loop_
 _symmetry_equiv_pos_site_id
 _symmetry_equiv_pos_as_xyz
  1  'x, y, z'
loop_
 _atom_site_type_symbol
 _atom_site_label
 _atom_site_symmetry_multiplicity
 _atom_site_fract_x
 _atom_site_fract_y
 _atom_site_fract_z
 _atom_site_occupancy
  Pr  Pr0  1  0.26512189  0.45372760  0.86480741  1
  Pr  Pr1  1  0.73000694  0.56488321  0.13658783  1
  Pr  Pr2  1  0.77617557  0.97058317  0.87217716  1
  Pr  Pr3  1  0.22464662  0.02455823  0.12297352  1
  Mn  Mn4  1  0.28588290  0.57603202  0.58565804  1
  Mn  Mn5  1  0.70764044  0.46778069  0.39633476  1
  Mn  Mn6  1  0.99913614  0.94799204  0.99724731  1
  Mn  Mn7  1  0.79895346  0.00347467  0.61130452  1
  Mn  Mn8  1  0.18499942  0.99382966  0.39866154  1
  Mn  Mn9  1  0.52556433  0.54278649  0.02744355  1
  Sb  Sb10  1  0.89731297  0.02994750  0.45759380  1
  Sb  Sb11  1  0.11846592  0.99972573  0.55828969  1
  Sb  Sb12  1  0.03483754  0.50327887  0.80943091  1
  Sb  Sb13  1  0.96816938  0.49278182  0.19863988  1
  Sb  Sb14  1  0.39497431  0.49850941  0.45364197  1
  Sb  Sb15  1  0.61864994  0.43793110  0.55524052  1
  Sb  Sb16  1  0.53159036  0.97886032  0.82101261  1
  Sb  Sb17  1  0.46935491  0.03359460  0.19293075  1
  S  S18  1  0.94302615  0.96140865  0.81390119  1
  S  S19  1  0.06935785  0.01397559  0.21811440  1
  S  S20  1  0.42000901  0.98105906  0.00360282  1
  S  S21  1  0.59909432  0.02026038  0.02494610  1
  S  S22  1  0.19280713  0.94721314  0.91894637  1
  S  S23  1  0.84051771  0.00882354  0.11569892  1
  S  S24  1  0.09516687  0.49243540  0.66530746  1
  S  S25  1  0.89186213  0.50242563  0.34452934  1
  S  S26  1  0.73581269  0.92685115  0.31127393  1
  S  S27  1  0.27116933  0.04313358  0.68914328  1
  S  S28  1  0.16065694  0.46497168  0.44512857  1
  S  S29  1  0.84256459  0.44331006  0.55574426  1
  S  S30  1  0.45308695  0.49310043  0.84004063  1
  S  S31  1  0.58362252  0.53848029  0.21672561  1
  S  S32  1  0.92797484  0.48059229  0.99675546  1
  S  S33  1  0.08824065  0.51171925  0.01205362  1
  S  S34  1  0.68093039  0.42843444  0.89862962  1
  S  S35  1  0.35436012  0.47322521  0.11696949  1
  S  S36  1  0.60953344  0.95506026  0.66358679  1
  S  S37  1  0.41044803  0.98745050  0.35017188  1
  S  S38  1  0.24397046  0.51175285  0.28785548  1
  S  S39  1  0.76564647  0.52265741  0.67893499  1
  S  S40  1  0.67828340  0.92531553  0.45978341  1
  S  S41  1  0.32909435  0.06660782  0.54702570  1
