# generated using pymatgen
data_Pr2Mn3(SbS3)4
_symmetry_space_group_name_H-M   'P 1'
_cell_length_a   20.02960800
_cell_length_b   3.90410600
_cell_length_c   14.95364829
_cell_angle_alpha   90.00000000
_cell_angle_beta   126.33350609
_cell_angle_gamma   90.00000000
_symmetry_Int_Tables_number   1
_chemical_formula_structural   Pr2Mn3(SbS3)4
_chemical_formula_sum   'Pr4 Mn6 Sb8 S24'
_cell_volume   942.00006694
_cell_formula_units_Z   2
loop_
 _symmetry_equiv_pos_site_id
 _symmetry_equiv_pos_as_xyz
  1  'x, y, z'
loop_
 _atom_site_type_symbol
 _atom_site_label
 _atom_site_symmetry_multiplicity
 _atom_site_fract_x
 _atom_site_fract_y
 _atom_site_fract_z
 _atom_site_occupancy
  Pr  Pr0  1  0.26514699  0.45428187  0.86494096  1
  Pr  Pr1  1  0.73008607  0.56497458  0.13682443  1
  Pr  Pr2  1  0.77631389  0.97108820  0.87217965  1
  Pr  Pr3  1  0.22469658  0.02425586  0.12315049  1
  Mn  Mn4  1  0.28576912  0.57690416  0.58543677  1
  Mn  Mn5  1  0.70747973  0.46807006  0.39623643  1
  Mn  Mn6  1  0.99909029  0.94940203  0.99720008  1
  Mn  Mn7  1  0.79903182  0.00370950  0.61161866  1
  Mn  Mn8  1  0.18504157  0.99371437  0.39887473  1
  Mn  Mn9  1  0.52524014  0.54268321  0.02719468  1
  Sb  Sb10  1  0.89730292  0.03036291  0.45775720  1
  Sb  Sb11  1  0.11837961  0.00017215  0.55822442  1
  Sb  Sb12  1  0.03482255  0.50405367  0.80938257  1
  Sb  Sb13  1  0.96818019  0.49317725  0.19866498  1
  Sb  Sb14  1  0.39483028  0.49815617  0.45359176  1
  Sb  Sb15  1  0.61867506  0.43768476  0.55513559  1
  Sb  Sb16  1  0.53156443  0.97978364  0.82098608  1
  Sb  Sb17  1  0.46944521  0.03313691  0.19299595  1
  S  S18  1  0.94268828  0.96183440  0.81381892  1
  S  S19  1  0.06937351  0.01340670  0.21792767  1
  S  S20  1  0.42023255  0.98146407  0.00385797  1
  S  S21  1  0.59885421  0.01977900  0.02447384  1
  S  S22  1  0.19295054  0.94585846  0.91918729  1
  S  S23  1  0.84034142  0.00816606  0.11553880  1
  S  S24  1  0.09516337  0.49446256  0.66513270  1
  S  S25  1  0.89204357  0.50229011  0.34512835  1
  S  S26  1  0.73608823  0.92582109  0.31121557  1
  S  S27  1  0.27104902  0.04013578  0.68914808  1
  S  S28  1  0.16045704  0.46384158  0.44496853  1
  S  S29  1  0.84265602  0.44531085  0.55578119  1
  S  S30  1  0.45347076  0.49384563  0.84030234  1
  S  S31  1  0.58372784  0.53704175  0.21676914  1
  S  S32  1  0.92808224  0.48014325  0.99697584  1
  S  S33  1  0.08812075  0.51121124  0.01227664  1
  S  S34  1  0.68070649  0.42782827  0.89869695  1
  S  S35  1  0.35439108  0.47255744  0.11693048  1
  S  S36  1  0.60958024  0.95282629  0.66318065  1
  S  S37  1  0.41097099  0.98855536  0.35064788  1
  S  S38  1  0.24389558  0.51110926  0.28795047  1
  S  S39  1  0.76577261  0.52276248  0.67950437  1
  S  S40  1  0.67834450  0.92600159  0.45990923  1
  S  S41  1  0.32927111  0.06710293  0.54713228  1
