# generated using pymatgen
data_Pr2Mn3(SbS3)4
_symmetry_space_group_name_H-M   'P 1'
_cell_length_a   20.02960800
_cell_length_b   3.90410600
_cell_length_c   14.95364829
_cell_angle_alpha   90.00000000
_cell_angle_beta   126.33350609
_cell_angle_gamma   90.00000000
_symmetry_Int_Tables_number   1
_chemical_formula_structural   Pr2Mn3(SbS3)4
_chemical_formula_sum   'Pr4 Mn6 Sb8 S24'
_cell_volume   942.00006694
_cell_formula_units_Z   2
loop_
 _symmetry_equiv_pos_site_id
 _symmetry_equiv_pos_as_xyz
  1  'x, y, z'
loop_
 _atom_site_type_symbol
 _atom_site_label
 _atom_site_symmetry_multiplicity
 _atom_site_fract_x
 _atom_site_fract_y
 _atom_site_fract_z
 _atom_site_occupancy
  Pr  Pr0  1  0.26970410  0.50650202  0.86995394  1
  Pr  Pr1  1  0.73466965  0.51341643  0.13514387  1
  Pr  Pr2  1  0.76435525  0.03144429  0.86849406  1
  Pr  Pr3  1  0.22922126  0.97724042  0.12984531  1
  Mn  Mn4  1  0.30025322  0.46448952  0.60909920  1
  Mn  Mn5  1  0.68569567  0.46879974  0.36514489  1
  Mn  Mn6  1  0.00146831  0.98679602  0.00889612  1
  Mn  Mn7  1  0.79220136  0.02895388  0.61447753  1
  Mn  Mn8  1  0.19672479  0.01015260  0.36877035  1
  Mn  Mn9  1  0.48173468  0.47171699  0.98214471  1
  Sb  Sb10  1  0.89024359  0.98229392  0.44799769  1
  Sb  Sb11  1  0.11181954  0.98068667  0.54747513  1
  Sb  Sb12  1  0.03727534  0.52659233  0.82409894  1
  Sb  Sb13  1  0.96856602  0.48784183  0.19199677  1
  Sb  Sb14  1  0.39680055  0.49813962  0.45288523  1
  Sb  Sb15  1  0.61167972  0.48222029  0.54780376  1
  Sb  Sb16  1  0.52990781  0.97047379  0.80468276  1
  Sb  Sb17  1  0.46562992  0.02533715  0.18633980  1
  S  S18  1  0.94168338  0.01892646  0.81004928  1
  S  S19  1  0.06623620  0.00248871  0.20608363  1
  S  S20  1  0.41725139  0.97869947  0.97855966  1
  S  S21  1  0.58658990  0.02198523  0.01079345  1
  S  S22  1  0.16256957  0.03199314  0.89854685  1
  S  S23  1  0.82711819  0.99281691  0.10399981  1
  S  S24  1  0.08551469  0.49982513  0.63608943  1
  S  S25  1  0.91547820  0.48748922  0.35282465  1
  S  S26  1  0.73450618  0.01093374  0.29406970  1
  S  S27  1  0.26022420  0.01282951  0.70543975  1
  S  S28  1  0.16973744  0.52133981  0.43792372  1
  S  S29  1  0.80937129  0.51440493  0.53868205  1
  S  S30  1  0.43390390  0.47995347  0.80290545  1
  S  S31  1  0.55425341  0.50191453  0.18122827  1
  S  S32  1  0.92309712  0.50744647  0.98854366  1
  S  S33  1  0.09025747  0.49864569  0.02662027  1
  S  S34  1  0.66743756  0.55778449  0.89606929  1
  S  S35  1  0.32920467  0.46125488  0.09886040  1
  S  S36  1  0.58903635  0.00032336  0.64757662  1
  S  S37  1  0.39424423  0.98632935  0.33383161  1
  S  S38  1  0.24725296  0.47704714  0.31670525  1
  S  S39  1  0.76380696  0.50778931  0.69171430  1
  S  S40  1  0.65848270  0.98399209  0.43799760  1
  S  S41  1  0.32988193  0.98555629  0.55189342  1
