# generated using pymatgen
data_Pr2Mn3(SbS3)4
_symmetry_space_group_name_H-M   'P 1'
_cell_length_a   20.02960800
_cell_length_b   3.90410600
_cell_length_c   14.95364829
_cell_angle_alpha   90.00000000
_cell_angle_beta   126.33350609
_cell_angle_gamma   90.00000000
_symmetry_Int_Tables_number   1
_chemical_formula_structural   Pr2Mn3(SbS3)4
_chemical_formula_sum   'Pr4 Mn6 Sb8 S24'
_cell_volume   942.00006694
_cell_formula_units_Z   2
loop_
 _symmetry_equiv_pos_site_id
 _symmetry_equiv_pos_as_xyz
  1  'x, y, z'
loop_
 _atom_site_type_symbol
 _atom_site_label
 _atom_site_symmetry_multiplicity
 _atom_site_fract_x
 _atom_site_fract_y
 _atom_site_fract_z
 _atom_site_occupancy
  Pr  Pr0  1  0.26517252  0.45482783  0.86514921  1
  Pr  Pr1  1  0.73020559  0.56525265  0.13703620  1
  Pr  Pr2  1  0.77649158  0.97142779  0.87222127  1
  Pr  Pr3  1  0.22476531  0.02415207  0.12331862  1
  Mn  Mn4  1  0.28565424  0.57757236  0.58522595  1
  Mn  Mn5  1  0.70732895  0.46833850  0.39619303  1
  Mn  Mn6  1  0.99917122  0.95097850  0.99736686  1
  Mn  Mn7  1  0.79893492  0.00411821  0.61185102  1
  Mn  Mn8  1  0.18511317  0.99339792  0.39920271  1
  Mn  Mn9  1  0.52484025  0.54216398  0.02699119  1
  Sb  Sb10  1  0.89730382  0.03079799  0.45792102  1
  Sb  Sb11  1  0.11826163  0.00046584  0.55809477  1
  Sb  Sb12  1  0.03486346  0.50472826  0.80939317  1
  Sb  Sb13  1  0.96820951  0.49284067  0.19873300  1
  Sb  Sb14  1  0.39477325  0.49814365  0.45363170  1
  Sb  Sb15  1  0.61863551  0.43755187  0.55498619  1
  Sb  Sb16  1  0.53153137  0.98103447  0.82092764  1
  Sb  Sb17  1  0.46952006  0.03252965  0.19311720  1
  S  S18  1  0.94256280  0.96236307  0.81384031  1
  S  S19  1  0.06932987  0.01307623  0.21759985  1
  S  S20  1  0.42045321  0.98253495  0.00397109  1
  S  S21  1  0.59838971  0.01958986  0.02377925  1
  S  S22  1  0.19295732  0.94425702  0.91923143  1
  S  S23  1  0.84012031  0.00753430  0.11530984  1
  S  S24  1  0.09525686  0.49708426  0.66538039  1
  S  S25  1  0.89230357  0.50174926  0.34557397  1
  S  S26  1  0.73630748  0.92529262  0.31090781  1
  S  S27  1  0.27080874  0.03710907  0.68910154  1
  S  S28  1  0.16022260  0.46321209  0.44480393  1
  S  S29  1  0.84271132  0.44788220  0.55579080  1
  S  S30  1  0.45379633  0.49443925  0.84042366  1
  S  S31  1  0.58371229  0.53568300  0.21677365  1
  S  S32  1  0.92819246  0.47968361  0.99730323  1
  S  S33  1  0.08812635  0.51068616  0.01265167  1
  S  S34  1  0.68044890  0.42675272  0.89886547  1
  S  S35  1  0.35441862  0.47126438  0.11696125  1
  S  S36  1  0.60975828  0.95098830  0.66306313  1
  S  S37  1  0.41162013  0.98920487  0.35134907  1
  S  S38  1  0.24418619  0.51011353  0.28828025  1
  S  S39  1  0.76614226  0.52290865  0.68014540  1
  S  S40  1  0.67851056  0.92664199  0.46015039  1
  S  S41  1  0.32941290  0.06777713  0.54729213  1
