# generated using pymatgen
data_Pr2Mn3(SbS3)4
_symmetry_space_group_name_H-M   'P 1'
_cell_length_a   20.02960800
_cell_length_b   3.90410600
_cell_length_c   14.95364829
_cell_angle_alpha   90.00000000
_cell_angle_beta   126.33350609
_cell_angle_gamma   90.00000000
_symmetry_Int_Tables_number   1
_chemical_formula_structural   Pr2Mn3(SbS3)4
_chemical_formula_sum   'Pr4 Mn6 Sb8 S24'
_cell_volume   942.00006694
_cell_formula_units_Z   2
loop_
 _symmetry_equiv_pos_site_id
 _symmetry_equiv_pos_as_xyz
  1  'x, y, z'
loop_
 _atom_site_type_symbol
 _atom_site_label
 _atom_site_symmetry_multiplicity
 _atom_site_fract_x
 _atom_site_fract_y
 _atom_site_fract_z
 _atom_site_occupancy
  Pr  Pr0  1  0.26525191  0.45522220  0.86543643  1
  Pr  Pr1  1  0.73030921  0.56520885  0.13718791  1
  Pr  Pr2  1  0.77666653  0.97206096  0.87223431  1
  Pr  Pr3  1  0.22481478  0.02437783  0.12349769  1
  Mn  Mn4  1  0.28551639  0.57743772  0.58490446  1
  Mn  Mn5  1  0.70732416  0.46823302  0.39611648  1
  Mn  Mn6  1  0.99927614  0.95241880  0.99757915  1
  Mn  Mn7  1  0.79888359  0.00437904  0.61210898  1
  Mn  Mn8  1  0.18522046  0.99333888  0.39949392  1
  Mn  Mn9  1  0.52445381  0.54180406  0.02680274  1
  Sb  Sb10  1  0.89726665  0.03139921  0.45805972  1
  Sb  Sb11  1  0.11812989  0.00091346  0.55796520  1
  Sb  Sb12  1  0.03491408  0.50534705  0.80944606  1
  Sb  Sb13  1  0.96827407  0.49259970  0.19887876  1
  Sb  Sb14  1  0.39469715  0.49823400  0.45358738  1
  Sb  Sb15  1  0.61858109  0.43712306  0.55483342  1
  Sb  Sb16  1  0.53150455  0.98198666  0.82088917  1
  Sb  Sb17  1  0.46954228  0.03197516  0.19318518  1
  S  S18  1  0.94234665  0.96285997  0.81401057  1
  S  S19  1  0.06922778  0.01281955  0.21720631  1
  S  S20  1  0.42067924  0.98392090  0.00394777  1
  S  S21  1  0.59785740  0.01942418  0.02329568  1
  S  S22  1  0.19310434  0.94281649  0.91939605  1
  S  S23  1  0.83992491  0.00731130  0.11481500  1
  S  S24  1  0.09536789  0.49914331  0.66565808  1
  S  S25  1  0.89267257  0.50166518  0.34607558  1
  S  S26  1  0.73662457  0.92486639  0.31053614  1
  S  S27  1  0.27064526  0.03403318  0.68916283  1
  S  S28  1  0.16004656  0.46306216  0.44454463  1
  S  S29  1  0.84280564  0.45020191  0.55592132  1
  S  S30  1  0.45386711  0.49520296  0.84025728  1
  S  S31  1  0.58373071  0.53489539  0.21676051  1
  S  S32  1  0.92824559  0.47901134  0.99761432  1
  S  S33  1  0.08808714  0.51111216  0.01288584  1
  S  S34  1  0.67990874  0.42576946  0.89899267  1
  S  S35  1  0.35435141  0.47044127  0.11693632  1
  S  S36  1  0.60992091  0.94914560  0.66298908  1
  S  S37  1  0.41231411  0.98921435  0.35210807  1
  S  S38  1  0.24432647  0.50960823  0.28851945  1
  S  S39  1  0.76646143  0.52305873  0.68079303  1
  S  S40  1  0.67865637  0.92678928  0.46041751  1
  S  S41  1  0.32954163  0.06824552  0.54714987  1
