# generated using pymatgen
data_Pr2Mn3(SbS3)4
_symmetry_space_group_name_H-M   'P 1'
_cell_length_a   20.02960800
_cell_length_b   3.90410600
_cell_length_c   14.95364829
_cell_angle_alpha   90.00000000
_cell_angle_beta   126.33350609
_cell_angle_gamma   90.00000000
_symmetry_Int_Tables_number   1
_chemical_formula_structural   Pr2Mn3(SbS3)4
_chemical_formula_sum   'Pr4 Mn6 Sb8 S24'
_cell_volume   942.00006694
_cell_formula_units_Z   2
loop_
 _symmetry_equiv_pos_site_id
 _symmetry_equiv_pos_as_xyz
  1  'x, y, z'
loop_
 _atom_site_type_symbol
 _atom_site_label
 _atom_site_symmetry_multiplicity
 _atom_site_fract_x
 _atom_site_fract_y
 _atom_site_fract_z
 _atom_site_occupancy
  Pr  Pr0  1  0.26533803  0.45564768  0.86575477  1
  Pr  Pr1  1  0.73036841  0.56468560  0.13728478  1
  Pr  Pr2  1  0.77688621  0.97242351  0.87227332  1
  Pr  Pr3  1  0.22483863  0.02442676  0.12368272  1
  Mn  Mn4  1  0.28543207  0.57755346  0.58452169  1
  Mn  Mn5  1  0.70722607  0.46730297  0.39606956  1
  Mn  Mn6  1  0.99933010  0.95394638  0.99784412  1
  Mn  Mn7  1  0.79887733  0.00440658  0.61231845  1
  Mn  Mn8  1  0.18527225  0.99382293  0.39962291  1
  Mn  Mn9  1  0.52415014  0.54138887  0.02663037  1
  Sb  Sb10  1  0.89724118  0.03155165  0.45822512  1
  Sb  Sb11  1  0.11796234  0.00111093  0.55774045  1
  Sb  Sb12  1  0.03497814  0.50598332  0.80948069  1
  Sb  Sb13  1  0.96841619  0.49222336  0.19903715  1
  Sb  Sb14  1  0.39470405  0.49822828  0.45361729  1
  Sb  Sb15  1  0.61858801  0.43701131  0.55474881  1
  Sb  Sb16  1  0.53145984  0.98318249  0.82081043  1
  Sb  Sb17  1  0.46965311  0.03111186  0.19333296  1
  S  S18  1  0.94218493  0.96384430  0.81428977  1
  S  S19  1  0.06929870  0.01325104  0.21692410  1
  S  S20  1  0.42091479  0.98564593  0.00389796  1
  S  S21  1  0.59728715  0.01944916  0.02275267  1
  S  S22  1  0.19328412  0.94134508  0.91945105  1
  S  S23  1  0.83973369  0.00735018  0.11431454  1
  S  S24  1  0.09558983  0.50100977  0.66581539  1
  S  S25  1  0.89308772  0.50091140  0.34647465  1
  S  S26  1  0.73702817  0.92440347  0.31016530  1
  S  S27  1  0.27045937  0.03139032  0.68897081  1
  S  S28  1  0.15993036  0.46309277  0.44433986  1
  S  S29  1  0.84292151  0.45235969  0.55603631  1
  S  S30  1  0.45395971  0.49613801  0.84009270  1
  S  S31  1  0.58389036  0.53343971  0.21685752  1
  S  S32  1  0.92816682  0.47772494  0.99787353  1
  S  S33  1  0.08813644  0.51151183  0.01311121  1
  S  S34  1  0.67951303  0.42472944  0.89917873  1
  S  S35  1  0.35405634  0.46937286  0.11679785  1
  S  S36  1  0.61013938  0.94778685  0.66289351  1
  S  S37  1  0.41281088  0.98919579  0.35234165  1
  S  S38  1  0.24428126  0.50921338  0.28850998  1
  S  S39  1  0.76704747  0.52355132  0.68163144  1
  S  S40  1  0.67878229  0.92681926  0.46038299  1
  S  S41  1  0.32960895  0.06862449  0.54707811  1
