# generated using pymatgen
data_Pr2Mn3(SbS3)4
_symmetry_space_group_name_H-M   'P 1'
_cell_length_a   20.02960800
_cell_length_b   3.90410600
_cell_length_c   14.95364829
_cell_angle_alpha   90.00000000
_cell_angle_beta   126.33350609
_cell_angle_gamma   90.00000000
_symmetry_Int_Tables_number   1
_chemical_formula_structural   Pr2Mn3(SbS3)4
_chemical_formula_sum   'Pr4 Mn6 Sb8 S24'
_cell_volume   942.00006694
_cell_formula_units_Z   2
loop_
 _symmetry_equiv_pos_site_id
 _symmetry_equiv_pos_as_xyz
  1  'x, y, z'
loop_
 _atom_site_type_symbol
 _atom_site_label
 _atom_site_symmetry_multiplicity
 _atom_site_fract_x
 _atom_site_fract_y
 _atom_site_fract_z
 _atom_site_occupancy
  Pr  Pr0  1  0.26535360  0.45568784  0.86600086  1
  Pr  Pr1  1  0.73043891  0.56446375  0.13736522  1
  Pr  Pr2  1  0.77709399  0.97285294  0.87236592  1
  Pr  Pr3  1  0.22488786  0.02449223  0.12385672  1
  Mn  Mn4  1  0.28537692  0.57716122  0.58427530  1
  Mn  Mn5  1  0.70719302  0.46663697  0.39607581  1
  Mn  Mn6  1  0.99930425  0.95497197  0.99797977  1
  Mn  Mn7  1  0.79884082  0.00471198  0.61253842  1
  Mn  Mn8  1  0.18537689  0.99393393  0.39972431  1
  Mn  Mn9  1  0.52380879  0.54133329  0.02642562  1
  Sb  Sb10  1  0.89732029  0.03198471  0.45847398  1
  Sb  Sb11  1  0.11778586  0.00114326  0.55749299  1
  Sb  Sb12  1  0.03501943  0.50661207  0.80950969  1
  Sb  Sb13  1  0.96842991  0.49207087  0.19908577  1
  Sb  Sb14  1  0.39473836  0.49838675  0.45361763  1
  Sb  Sb15  1  0.61858034  0.43687919  0.55470916  1
  Sb  Sb16  1  0.53140494  0.98422798  0.82070816  1
  Sb  Sb17  1  0.46979139  0.03041252  0.19361994  1
  S  S18  1  0.94207020  0.96451700  0.81455499  1
  S  S19  1  0.06929802  0.01421439  0.21657911  1
  S  S20  1  0.42109621  0.98747011  0.00374530  1
  S  S21  1  0.59682085  0.02017664  0.02218070  1
  S  S22  1  0.19349910  0.94029033  0.91947398  1
  S  S23  1  0.83981308  0.00712326  0.11408589  1
  S  S24  1  0.09562831  0.50315414  0.66594178  1
  S  S25  1  0.89338630  0.50059747  0.34678422  1
  S  S26  1  0.73733248  0.92392331  0.30983820  1
  S  S27  1  0.27027173  0.02858926  0.68879331  1
  S  S28  1  0.15981700  0.46301493  0.44417976  1
  S  S29  1  0.84289586  0.45396990  0.55612710  1
  S  S30  1  0.45413718  0.49750985  0.83996719  1
  S  S31  1  0.58396075  0.53220068  0.21705339  1
  S  S32  1  0.92809316  0.47650837  0.99798387  1
  S  S33  1  0.08824426  0.51164033  0.01328333  1
  S  S34  1  0.67931416  0.42384204  0.89964397  1
  S  S35  1  0.35382541  0.46859325  0.11664460  1
  S  S36  1  0.61035563  0.94664022  0.66303392  1
  S  S37  1  0.41326896  0.98904509  0.35247620  1
  S  S38  1  0.24430242  0.50830469  0.28855444  1
  S  S39  1  0.76775894  0.52423354  0.68262990  1
  S  S40  1  0.67875554  0.92685278  0.46026404  1
  S  S41  1  0.32962302  0.06878385  0.54687614  1
