# generated using pymatgen
data_Pr2Mn3(SbS3)4
_symmetry_space_group_name_H-M   'P 1'
_cell_length_a   20.02960800
_cell_length_b   3.90410600
_cell_length_c   14.95364829
_cell_angle_alpha   90.00000000
_cell_angle_beta   126.33350609
_cell_angle_gamma   90.00000000
_symmetry_Int_Tables_number   1
_chemical_formula_structural   Pr2Mn3(SbS3)4
_chemical_formula_sum   'Pr4 Mn6 Sb8 S24'
_cell_volume   942.00006694
_cell_formula_units_Z   2
loop_
 _symmetry_equiv_pos_site_id
 _symmetry_equiv_pos_as_xyz
  1  'x, y, z'
loop_
 _atom_site_type_symbol
 _atom_site_label
 _atom_site_symmetry_multiplicity
 _atom_site_fract_x
 _atom_site_fract_y
 _atom_site_fract_z
 _atom_site_occupancy
  Pr  Pr0  1  0.26536843  0.45563832  0.86618555  1
  Pr  Pr1  1  0.73047001  0.56449152  0.13737358  1
  Pr  Pr2  1  0.77728085  0.97309899  0.87235358  1
  Pr  Pr3  1  0.22496377  0.02467227  0.12406965  1
  Mn  Mn4  1  0.28537373  0.57684716  0.58408601  1
  Mn  Mn5  1  0.70725435  0.46551609  0.39623462  1
  Mn  Mn6  1  0.99933830  0.95545266  0.99811224  1
  Mn  Mn7  1  0.79885814  0.00513988  0.61279036  1
  Mn  Mn8  1  0.18551527  0.99357473  0.39991800  1
  Mn  Mn9  1  0.52348079  0.54123973  0.02608624  1
  Sb  Sb10  1  0.89741837  0.03215309  0.45866910  1
  Sb  Sb11  1  0.11759229  0.00127836  0.55724527  1
  Sb  Sb12  1  0.03513702  0.50696165  0.80953665  1
  Sb  Sb13  1  0.96851933  0.49162540  0.19915704  1
  Sb  Sb14  1  0.39474094  0.49855745  0.45361423  1
  Sb  Sb15  1  0.61864421  0.43709077  0.55475067  1
  Sb  Sb16  1  0.53131550  0.98498536  0.82057290  1
  Sb  Sb17  1  0.46990634  0.02969801  0.19390131  1
  S  S18  1  0.94185513  0.96484641  0.81461611  1
  S  S19  1  0.06926788  0.01496952  0.21624192  1
  S  S20  1  0.42136709  0.98894040  0.00365396  1
  S  S21  1  0.59657629  0.02050691  0.02182111  1
  S  S22  1  0.19357781  0.93872101  0.91940094  1
  S  S23  1  0.83995309  0.00734466  0.11394274  1
  S  S24  1  0.09584263  0.50458289  0.66642948  1
  S  S25  1  0.89369755  0.50093324  0.34702962  1
  S  S26  1  0.73769456  0.92352393  0.30978014  1
  S  S27  1  0.26988275  0.02588856  0.68853943  1
  S  S28  1  0.15969849  0.46251573  0.44418226  1
  S  S29  1  0.84268828  0.45506974  0.55612961  1
  S  S30  1  0.45422466  0.49799200  0.83974565  1
  S  S31  1  0.58400200  0.53089726  0.21715040  1
  S  S32  1  0.92793535  0.47521642  0.99794114  1
  S  S33  1  0.08840131  0.51141417  0.01333336  1
  S  S34  1  0.67899008  0.42319782  0.89999091  1
  S  S35  1  0.35346701  0.46806690  0.11629655  1
  S  S36  1  0.61053214  0.94541656  0.66324072  1
  S  S37  1  0.41361765  0.98890482  0.35246592  1
  S  S38  1  0.24423551  0.50702786  0.28850316  1
  S  S39  1  0.76838165  0.52459445  0.68348840  1
  S  S40  1  0.67876940  0.92746630  0.46024508  1
  S  S41  1  0.32966950  0.06924770  0.54649765  1
