# generated using pymatgen
data_Pr2Mn3(SbS3)4
_symmetry_space_group_name_H-M   'P 1'
_cell_length_a   20.02960800
_cell_length_b   3.90410600
_cell_length_c   14.95364829
_cell_angle_alpha   90.00000000
_cell_angle_beta   126.33350609
_cell_angle_gamma   90.00000000
_symmetry_Int_Tables_number   1
_chemical_formula_structural   Pr2Mn3(SbS3)4
_chemical_formula_sum   'Pr4 Mn6 Sb8 S24'
_cell_volume   942.00006694
_cell_formula_units_Z   2
loop_
 _symmetry_equiv_pos_site_id
 _symmetry_equiv_pos_as_xyz
  1  'x, y, z'
loop_
 _atom_site_type_symbol
 _atom_site_label
 _atom_site_symmetry_multiplicity
 _atom_site_fract_x
 _atom_site_fract_y
 _atom_site_fract_z
 _atom_site_occupancy
  Pr  Pr0  1  0.26532359  0.45573729  0.86637731  1
  Pr  Pr1  1  0.73046400  0.56446975  0.13729774  1
  Pr  Pr2  1  0.77744823  0.97307895  0.87233350  1
  Pr  Pr3  1  0.22505384  0.02495860  0.12434722  1
  Mn  Mn4  1  0.28542347  0.57644994  0.58387499  1
  Mn  Mn5  1  0.70733052  0.46395534  0.39656352  1
  Mn  Mn6  1  0.99948623  0.95604483  0.99826538  1
  Mn  Mn7  1  0.79887342  0.00558148  0.61302397  1
  Mn  Mn8  1  0.18560596  0.99258395  0.39998518  1
  Mn  Mn9  1  0.52315182  0.54117343  0.02571418  1
  Sb  Sb10  1  0.89744045  0.03244724  0.45875470  1
  Sb  Sb11  1  0.11733391  0.00135586  0.55703884  1
  Sb  Sb12  1  0.03530462  0.50736273  0.80959876  1
  Sb  Sb13  1  0.96853835  0.49144112  0.19919138  1
  Sb  Sb14  1  0.39474424  0.49848386  0.45357726  1
  Sb  Sb15  1  0.61854658  0.43698451  0.55470599  1
  Sb  Sb16  1  0.53118618  0.98560969  0.82037704  1
  Sb  Sb17  1  0.46999324  0.02921507  0.19408212  1
  S  S18  1  0.94138613  0.96483518  0.81452021  1
  S  S19  1  0.06908843  0.01631935  0.21588517  1
  S  S20  1  0.42174171  0.99058569  0.00362976  1
  S  S21  1  0.59642234  0.02137477  0.02162053  1
  S  S22  1  0.19369530  0.93692973  0.91926200  1
  S  S23  1  0.84013388  0.00827476  0.11388292  1
  S  S24  1  0.09627510  0.50621592  0.66724716  1
  S  S25  1  0.89391106  0.50217308  0.34729299  1
  S  S26  1  0.73799269  0.92426165  0.30959834  1
  S  S27  1  0.26952358  0.02310669  0.68830780  1
  S  S28  1  0.15967103  0.46247364  0.44446076  1
  S  S29  1  0.84242931  0.45661074  0.55604684  1
  S  S30  1  0.45436421  0.49823669  0.83972938  1
  S  S31  1  0.58408542  0.52901565  0.21731201  1
  S  S32  1  0.92779953  0.47463275  0.99807486  1
  S  S33  1  0.08849192  0.51077154  0.01314880  1
  S  S34  1  0.67869249  0.42229798  0.90031133  1
  S  S35  1  0.35331837  0.46807574  0.11607226  1
  S  S36  1  0.61066314  0.94356014  0.66353056  1
  S  S37  1  0.41383571  0.98956828  0.35249175  1
  S  S38  1  0.24425318  0.50570710  0.28873120  1
  S  S39  1  0.76897402  0.52434995  0.68447384  1
  S  S40  1  0.67879337  0.92750044  0.46019004  1
  S  S41  1  0.32949611  0.07004369  0.54591791  1
