# generated using pymatgen
data_Pr2Mn3(SbS3)4
_symmetry_space_group_name_H-M   'P 1'
_cell_length_a   20.02960800
_cell_length_b   3.90410600
_cell_length_c   14.95364829
_cell_angle_alpha   90.00000000
_cell_angle_beta   126.33350609
_cell_angle_gamma   90.00000000
_symmetry_Int_Tables_number   1
_chemical_formula_structural   Pr2Mn3(SbS3)4
_chemical_formula_sum   'Pr4 Mn6 Sb8 S24'
_cell_volume   942.00006694
_cell_formula_units_Z   2
loop_
 _symmetry_equiv_pos_site_id
 _symmetry_equiv_pos_as_xyz
  1  'x, y, z'
loop_
 _atom_site_type_symbol
 _atom_site_label
 _atom_site_symmetry_multiplicity
 _atom_site_fract_x
 _atom_site_fract_y
 _atom_site_fract_z
 _atom_site_occupancy
  Pr  Pr0  1  0.26533494  0.45597941  0.86651834  1
  Pr  Pr1  1  0.73043463  0.56437437  0.13729462  1
  Pr  Pr2  1  0.77754465  0.97321470  0.87233557  1
  Pr  Pr3  1  0.22518567  0.02514685  0.12469721  1
  Mn  Mn4  1  0.28545632  0.57572789  0.58373642  1
  Mn  Mn5  1  0.70730381  0.46208388  0.39665152  1
  Mn  Mn6  1  0.99967974  0.95611058  0.99848418  1
  Mn  Mn7  1  0.79878949  0.00639781  0.61312516  1
  Mn  Mn8  1  0.18566629  0.99143230  0.40016640  1
  Mn  Mn9  1  0.52280841  0.54162399  0.02526425  1
  Sb  Sb10  1  0.89744885  0.03291223  0.45875883  1
  Sb  Sb11  1  0.11713975  0.00115966  0.55689758  1
  Sb  Sb12  1  0.03547575  0.50761776  0.80961417  1
  Sb  Sb13  1  0.96852253  0.49127736  0.19915690  1
  Sb  Sb14  1  0.39484882  0.49859378  0.45358994  1
  Sb  Sb15  1  0.61843002  0.43694654  0.55467369  1
  Sb  Sb16  1  0.53099434  0.98616777  0.82014092  1
  Sb  Sb17  1  0.47005414  0.02865159  0.19426515  1
  S  S18  1  0.94110696  0.96534761  0.81460731  1
  S  S19  1  0.06890795  0.01706833  0.21550161  1
  S  S20  1  0.42211333  0.99146532  0.00356536  1
  S  S21  1  0.59619038  0.02214914  0.02138840  1
  S  S22  1  0.19391780  0.93503706  0.91928721  1
  S  S23  1  0.84036637  0.00911143  0.11384230  1
  S  S24  1  0.09660599  0.50768812  0.66781566  1
  S  S25  1  0.89397783  0.50309215  0.34755993  1
  S  S26  1  0.73815465  0.92450261  0.30951387  1
  S  S27  1  0.26928953  0.02009950  0.68799578  1
  S  S28  1  0.15966792  0.46283469  0.44458733  1
  S  S29  1  0.84206070  0.45824627  0.55585689  1
  S  S30  1  0.45453248  0.49771806  0.83970023  1
  S  S31  1  0.58421475  0.52719936  0.21752924  1
  S  S32  1  0.92758623  0.47444261  0.99811168  1
  S  S33  1  0.08857994  0.51033557  0.01290325  1
  S  S34  1  0.67822191  0.42229172  0.90036917  1
  S  S35  1  0.35318251  0.46797121  0.11576517  1
  S  S36  1  0.61075307  0.94195316  0.66399149  1
  S  S37  1  0.41411361  0.99046155  0.35254584  1
  S  S38  1  0.24412091  0.50484992  0.28899779  1
  S  S39  1  0.76940451  0.52409819  0.68523510  1
  S  S40  1  0.67879873  0.92763814  0.46026007  1
  S  S41  1  0.32937633  0.07103578  0.54547407  1
