# generated using pymatgen
data_Pr2Mn3(SbS3)4
_symmetry_space_group_name_H-M   'P 1'
_cell_length_a   20.02960800
_cell_length_b   3.90410600
_cell_length_c   14.95364829
_cell_angle_alpha   90.00000000
_cell_angle_beta   126.33350609
_cell_angle_gamma   90.00000000
_symmetry_Int_Tables_number   1
_chemical_formula_structural   Pr2Mn3(SbS3)4
_chemical_formula_sum   'Pr4 Mn6 Sb8 S24'
_cell_volume   942.00006694
_cell_formula_units_Z   2
loop_
 _symmetry_equiv_pos_site_id
 _symmetry_equiv_pos_as_xyz
  1  'x, y, z'
loop_
 _atom_site_type_symbol
 _atom_site_label
 _atom_site_symmetry_multiplicity
 _atom_site_fract_x
 _atom_site_fract_y
 _atom_site_fract_z
 _atom_site_occupancy
  Pr  Pr0  1  0.26539151  0.45663722  0.86674085  1
  Pr  Pr1  1  0.73040304  0.56414881  0.13728680  1
  Pr  Pr2  1  0.77766764  0.97323192  0.87236289  1
  Pr  Pr3  1  0.22529564  0.02524751  0.12497670  1
  Mn  Mn4  1  0.28553100  0.57521085  0.58370354  1
  Mn  Mn5  1  0.70724588  0.46065175  0.39661730  1
  Mn  Mn6  1  0.99978783  0.95621052  0.99870620  1
  Mn  Mn7  1  0.79861959  0.00699422  0.61309425  1
  Mn  Mn8  1  0.18567860  0.99011052  0.40027840  1
  Mn  Mn9  1  0.52246166  0.54202290  0.02475211  1
  Sb  Sb10  1  0.89748678  0.03303402  0.45879964  1
  Sb  Sb11  1  0.11697737  0.00098094  0.55676303  1
  Sb  Sb12  1  0.03559603  0.50813278  0.80956061  1
  Sb  Sb13  1  0.96851363  0.49092496  0.19912616  1
  Sb  Sb14  1  0.39494478  0.49839219  0.45365829  1
  Sb  Sb15  1  0.61834513  0.43662735  0.55467183  1
  Sb  Sb16  1  0.53072223  0.98699303  0.81979846  1
  Sb  Sb17  1  0.47006828  0.02821762  0.19443858  1
  S  S18  1  0.94087324  0.96635294  0.81470260  1
  S  S19  1  0.06868565  0.01793239  0.21512923  1
  S  S20  1  0.42242323  0.99274845  0.00328340  1
  S  S21  1  0.59613673  0.02281402  0.02146536  1
  S  S22  1  0.19401848  0.93412706  0.91918257  1
  S  S23  1  0.84071133  0.01005666  0.11390891  1
  S  S24  1  0.09700761  0.50930520  0.66831098  1
  S  S25  1  0.89399949  0.50434146  0.34761564  1
  S  S26  1  0.73827340  0.92472433  0.30927420  1
  S  S27  1  0.26901249  0.01713011  0.68787254  1
  S  S28  1  0.15965124  0.46356559  0.44460790  1
  S  S29  1  0.84165960  0.46033145  0.55578686  1
  S  S30  1  0.45474368  0.49731371  0.83962987  1
  S  S31  1  0.58434410  0.52552216  0.21779837  1
  S  S32  1  0.92741108  0.47428803  0.99823188  1
  S  S33  1  0.08865123  0.50998415  0.01268294  1
  S  S34  1  0.67771336  0.42283708  0.90026037  1
  S  S35  1  0.35307325  0.46783111  0.11551131  1
  S  S36  1  0.61081751  0.94076875  0.66442498  1
  S  S37  1  0.41432749  0.99142520  0.35244949  1
  S  S38  1  0.24390056  0.50444178  0.28915013  1
  S  S39  1  0.76978454  0.52363902  0.68601896  1
  S  S40  1  0.67867966  0.92752023  0.46037558  1
  S  S41  1  0.32917834  0.07184831  0.54517891  1
