# generated using pymatgen
data_Pr2Mn3(SbS3)4
_symmetry_space_group_name_H-M   'P 1'
_cell_length_a   20.02960800
_cell_length_b   3.90410600
_cell_length_c   14.95364829
_cell_angle_alpha   90.00000000
_cell_angle_beta   126.33350609
_cell_angle_gamma   90.00000000
_symmetry_Int_Tables_number   1
_chemical_formula_structural   Pr2Mn3(SbS3)4
_chemical_formula_sum   'Pr4 Mn6 Sb8 S24'
_cell_volume   942.00006694
_cell_formula_units_Z   2
loop_
 _symmetry_equiv_pos_site_id
 _symmetry_equiv_pos_as_xyz
  1  'x, y, z'
loop_
 _atom_site_type_symbol
 _atom_site_label
 _atom_site_symmetry_multiplicity
 _atom_site_fract_x
 _atom_site_fract_y
 _atom_site_fract_z
 _atom_site_occupancy
  Pr  Pr0  1  0.26540207  0.45708559  0.86692113  1
  Pr  Pr1  1  0.73037379  0.56358887  0.13727910  1
  Pr  Pr2  1  0.77777451  0.97330608  0.87237564  1
  Pr  Pr3  1  0.22542653  0.02529096  0.12513512  1
  Mn  Mn4  1  0.28549529  0.57497233  0.58365866  1
  Mn  Mn5  1  0.70725879  0.45971200  0.39666264  1
  Mn  Mn6  1  0.99998519  0.95659629  0.99894434  1
  Mn  Mn7  1  0.79846434  0.00790205  0.61295504  1
  Mn  Mn8  1  0.18573158  0.98858252  0.40038607  1
  Mn  Mn9  1  0.52213900  0.54231150  0.02436086  1
  Sb  Sb10  1  0.89739786  0.03306219  0.45880510  1
  Sb  Sb11  1  0.11683185  0.00082507  0.55662394  1
  Sb  Sb12  1  0.03568078  0.50858455  0.80954896  1
  Sb  Sb13  1  0.96850147  0.49060945  0.19914487  1
  Sb  Sb14  1  0.39503888  0.49803634  0.45364497  1
  Sb  Sb15  1  0.61830527  0.43614427  0.55476987  1
  Sb  Sb16  1  0.53049018  0.98801420  0.81947285  1
  Sb  Sb17  1  0.47004971  0.02814225  0.19459799  1
  S  S18  1  0.94072459  0.96710618  0.81496430  1
  S  S19  1  0.06840930  0.01780779  0.21447528  1
  S  S20  1  0.42265679  0.99350651  0.00293127  1
  S  S21  1  0.59606099  0.02310362  0.02160900  1
  S  S22  1  0.19407324  0.93372300  0.91922449  1
  S  S23  1  0.84112724  0.01104254  0.11411956  1
  S  S24  1  0.09750155  0.51066786  0.66875499  1
  S  S25  1  0.89414405  0.50547391  0.34777554  1
  S  S26  1  0.73843937  0.92471696  0.30918925  1
  S  S27  1  0.26865906  0.01432043  0.68757694  1
  S  S28  1  0.15972636  0.46454727  0.44468713  1
  S  S29  1  0.84118522  0.46202662  0.55566008  1
  S  S30  1  0.45480588  0.49711169  0.83930915  1
  S  S31  1  0.58460913  0.52368716  0.21804999  1
  S  S32  1  0.92738609  0.47357854  0.99824413  1
  S  S33  1  0.08872770  0.51016126  0.01248102  1
  S  S34  1  0.67714525  0.42325487  0.90015315  1
  S  S35  1  0.35281793  0.46728129  0.11512513  1
  S  S36  1  0.61095093  0.93871973  0.66480033  1
  S  S37  1  0.41439503  0.99258301  0.35226063  1
  S  S38  1  0.24360384  0.50384519  0.28930081  1
  S  S39  1  0.77002651  0.52319378  0.68666334  1
  S  S40  1  0.67856720  0.92689470  0.46046585  1
  S  S41  1  0.32894468  0.07263426  0.54485283  1
