# generated using pymatgen
data_Pr2Mn3(SbS3)4
_symmetry_space_group_name_H-M   'P 1'
_cell_length_a   20.02960800
_cell_length_b   3.90410600
_cell_length_c   14.95364829
_cell_angle_alpha   90.00000000
_cell_angle_beta   126.33350609
_cell_angle_gamma   90.00000000
_symmetry_Int_Tables_number   1
_chemical_formula_structural   Pr2Mn3(SbS3)4
_chemical_formula_sum   'Pr4 Mn6 Sb8 S24'
_cell_volume   942.00006694
_cell_formula_units_Z   2
loop_
 _symmetry_equiv_pos_site_id
 _symmetry_equiv_pos_as_xyz
  1  'x, y, z'
loop_
 _atom_site_type_symbol
 _atom_site_label
 _atom_site_symmetry_multiplicity
 _atom_site_fract_x
 _atom_site_fract_y
 _atom_site_fract_z
 _atom_site_occupancy
  Pr  Pr0  1  0.26542373  0.45733360  0.86714228  1
  Pr  Pr1  1  0.73040173  0.56304457  0.13731119  1
  Pr  Pr2  1  0.77793874  0.97370127  0.87244465  1
  Pr  Pr3  1  0.22553579  0.02546027  0.12524701  1
  Mn  Mn4  1  0.28551636  0.57433293  0.58374756  1
  Mn  Mn5  1  0.70719886  0.45881754  0.39652392  1
  Mn  Mn6  1  0.00012856  0.95664791  0.99920273  1
  Mn  Mn7  1  0.79829065  0.00862454  0.61270118  1
  Mn  Mn8  1  0.18579297  0.98700137  0.40043970  1
  Mn  Mn9  1  0.52184678  0.54226660  0.02404287  1
  Sb  Sb10  1  0.89731151  0.03284674  0.45887597  1
  Sb  Sb11  1  0.11676329  0.00049132  0.55657111  1
  Sb  Sb12  1  0.03574125  0.50837791  0.80953191  1
  Sb  Sb13  1  0.96847229  0.49062871  0.19911096  1
  Sb  Sb14  1  0.39516013  0.49759502  0.45362996  1
  Sb  Sb15  1  0.61825535  0.43531018  0.55486871  1
  Sb  Sb16  1  0.53019348  0.98876987  0.81905343  1
  Sb  Sb17  1  0.47005370  0.02802105  0.19487817  1
  S  S18  1  0.94067956  0.96816191  0.81509496  1
  S  S19  1  0.06806264  0.01762588  0.21374752  1
  S  S20  1  0.42288477  0.99449251  0.00250980  1
  S  S21  1  0.59594547  0.02297181  0.02177486  1
  S  S22  1  0.19430301  0.93447791  0.91934238  1
  S  S23  1  0.84148987  0.01215760  0.11430352  1
  S  S24  1  0.09786852  0.51156421  0.66905815  1
  S  S25  1  0.89435089  0.50736033  0.34803029  1
  S  S26  1  0.73840710  0.92452008  0.30905084  1
  S  S27  1  0.26827652  0.01146544  0.68752368  1
  S  S28  1  0.15990076  0.46530330  0.44475222  1
  S  S29  1  0.84078548  0.46358254  0.55559568  1
  S  S30  1  0.45472059  0.49660131  0.83887523  1
  S  S31  1  0.58488644  0.52124556  0.21840874  1
  S  S32  1  0.92742510  0.47295376  0.99831373  1
  S  S33  1  0.08863787  0.51054549  0.01220408  1
  S  S34  1  0.67661624  0.42279709  0.89992364  1
  S  S35  1  0.35263086  0.46676853  0.11484192  1
  S  S36  1  0.61104514  0.93671458  0.66515770  1
  S  S37  1  0.41442283  0.99421304  0.35201240  1
  S  S38  1  0.24320031  0.50363220  0.28931183  1
  S  S39  1  0.77012317  0.52275199  0.68711769  1
  S  S40  1  0.67861407  0.92629490  0.46058961  1
  S  S41  1  0.32871445  0.07345359  0.54454678  1
