# generated using pymatgen
data_Pr2Mn3(SbS3)4
_symmetry_space_group_name_H-M   'P 1'
_cell_length_a   20.02960800
_cell_length_b   3.90410600
_cell_length_c   14.95364829
_cell_angle_alpha   90.00000000
_cell_angle_beta   126.33350609
_cell_angle_gamma   90.00000000
_symmetry_Int_Tables_number   1
_chemical_formula_structural   Pr2Mn3(SbS3)4
_chemical_formula_sum   'Pr4 Mn6 Sb8 S24'
_cell_volume   942.00006694
_cell_formula_units_Z   2
loop_
 _symmetry_equiv_pos_site_id
 _symmetry_equiv_pos_as_xyz
  1  'x, y, z'
loop_
 _atom_site_type_symbol
 _atom_site_label
 _atom_site_symmetry_multiplicity
 _atom_site_fract_x
 _atom_site_fract_y
 _atom_site_fract_z
 _atom_site_occupancy
  Pr  Pr0  1  0.26969333  0.50644049  0.87011148  1
  Pr  Pr1  1  0.73468708  0.51357556  0.13512058  1
  Pr  Pr2  1  0.76436755  0.03172532  0.86869548  1
  Pr  Pr3  1  0.22909988  0.97611190  0.12977640  1
  Mn  Mn4  1  0.30019861  0.46487224  0.60927240  1
  Mn  Mn5  1  0.68585631  0.46805002  0.36536808  1
  Mn  Mn6  1  0.00132008  0.98598138  0.00876312  1
  Mn  Mn7  1  0.79214964  0.02940239  0.61450469  1
  Mn  Mn8  1  0.19686836  0.01125353  0.36899850  1
  Mn  Mn9  1  0.48169736  0.47130943  0.98210257  1
  Sb  Sb10  1  0.89026000  0.98146559  0.44786010  1
  Sb  Sb11  1  0.11191139  0.98032979  0.54750555  1
  Sb  Sb12  1  0.03753930  0.52664774  0.82443630  1
  Sb  Sb13  1  0.96867794  0.48761655  0.19213658  1
  Sb  Sb14  1  0.39706198  0.49802758  0.45310579  1
  Sb  Sb15  1  0.61169597  0.48244028  0.54771291  1
  Sb  Sb16  1  0.52981095  0.97065618  0.80459943  1
  Sb  Sb17  1  0.46553147  0.02576017  0.18608055  1
  S  S18  1  0.94168777  0.01788106  0.81003339  1
  S  S19  1  0.06618126  0.00196675  0.20564010  1
  S  S20  1  0.41719045  0.97946434  0.97830867  1
  S  S21  1  0.58662319  0.02154026  0.01052684  1
  S  S22  1  0.16233219  0.03076068  0.89812315  1
  S  S23  1  0.82737260  0.99152418  0.10395170  1
  S  S24  1  0.08538701  0.50055334  0.63572369  1
  S  S25  1  0.91554540  0.48861482  0.35275425  1
  S  S26  1  0.73463768  0.00970739  0.29430292  1
  S  S27  1  0.26027910  0.01377334  0.70505399  1
  S  S28  1  0.16994324  0.52098250  0.43797257  1
  S  S29  1  0.80941197  0.51478814  0.53884253  1
  S  S30  1  0.43400089  0.47951483  0.80291601  1
  S  S31  1  0.55437145  0.50190056  0.18118676  1
  S  S32  1  0.92287399  0.50739974  0.98812302  1
  S  S33  1  0.08989194  0.49952748  0.02636799  1
  S  S34  1  0.66753794  0.55777317  0.89591952  1
  S  S35  1  0.32932233  0.46107903  0.09918870  1
  S  S36  1  0.58911275  0.00087852  0.64736478  1
  S  S37  1  0.39390991  0.98663659  0.33355356  1
  S  S38  1  0.24720832  0.47730700  0.31649075  1
  S  S39  1  0.76374967  0.50711629  0.69169966  1
  S  S40  1  0.65839430  0.98421882  0.43791162  1
  S  S41  1  0.33004583  0.98629281  0.55204763  1
