# generated using pymatgen
data_Pr2Mn3(SbS3)4
_symmetry_space_group_name_H-M   'P 1'
_cell_length_a   20.02960800
_cell_length_b   3.90410600
_cell_length_c   14.95364829
_cell_angle_alpha   90.00000000
_cell_angle_beta   126.33350609
_cell_angle_gamma   90.00000000
_symmetry_Int_Tables_number   1
_chemical_formula_structural   Pr2Mn3(SbS3)4
_chemical_formula_sum   'Pr4 Mn6 Sb8 S24'
_cell_volume   942.00006694
_cell_formula_units_Z   2
loop_
 _symmetry_equiv_pos_site_id
 _symmetry_equiv_pos_as_xyz
  1  'x, y, z'
loop_
 _atom_site_type_symbol
 _atom_site_label
 _atom_site_symmetry_multiplicity
 _atom_site_fract_x
 _atom_site_fract_y
 _atom_site_fract_z
 _atom_site_occupancy
  Pr  Pr0  1  0.26546071  0.45752884  0.86731929  1
  Pr  Pr1  1  0.73052400  0.56223814  0.13731070  1
  Pr  Pr2  1  0.77810177  0.97412520  0.87248951  1
  Pr  Pr3  1  0.22569484  0.02558354  0.12532470  1
  Mn  Mn4  1  0.28550366  0.57387287  0.58384613  1
  Mn  Mn5  1  0.70716183  0.45759745  0.39643604  1
  Mn  Mn6  1  0.00022219  0.95668956  0.99937782  1
  Mn  Mn7  1  0.79817099  0.00884932  0.61244735  1
  Mn  Mn8  1  0.18585614  0.98605108  0.40057300  1
  Mn  Mn9  1  0.52152226  0.54212187  0.02358874  1
  Sb  Sb10  1  0.89725323  0.03269849  0.45899121  1
  Sb  Sb11  1  0.11672594  0.99988462  0.55656719  1
  Sb  Sb12  1  0.03580151  0.50823718  0.80948443  1
  Sb  Sb13  1  0.96845179  0.49102893  0.19908375  1
  Sb  Sb14  1  0.39533147  0.49684960  0.45365335  1
  Sb  Sb15  1  0.61817264  0.43463928  0.55495938  1
  Sb  Sb16  1  0.52989676  0.98952528  0.81871375  1
  Sb  Sb17  1  0.47005943  0.02798456  0.19501272  1
  S  S18  1  0.94065558  0.96888914  0.81503522  1
  S  S19  1  0.06777968  0.01690524  0.21307052  1
  S  S20  1  0.42294400  0.99515640  0.00199564  1
  S  S21  1  0.59580620  0.02246195  0.02195919  1
  S  S22  1  0.19445826  0.93481074  0.91937741  1
  S  S23  1  0.84173285  0.01352887  0.11449290  1
  S  S24  1  0.09824253  0.51236829  0.66932444  1
  S  S25  1  0.89456734  0.50918080  0.34832739  1
  S  S26  1  0.73831735  0.92383545  0.30897611  1
  S  S27  1  0.26802650  0.00866590  0.68761993  1
  S  S28  1  0.16017277  0.46504094  0.44493592  1
  S  S29  1  0.84038259  0.46496349  0.55534635  1
  S  S30  1  0.45478407  0.49614616  0.83835937  1
  S  S31  1  0.58516495  0.51954337  0.21889010  1
  S  S32  1  0.92742257  0.47241891  0.99834503  1
  S  S33  1  0.08848010  0.51089317  0.01175296  1
  S  S34  1  0.67606453  0.42297245  0.89963502  1
  S  S35  1  0.35249725  0.46646293  0.11453132  1
  S  S36  1  0.61108963  0.93499536  0.66529245  1
  S  S37  1  0.41455806  0.99586306  0.35186920  1
  S  S38  1  0.24285481  0.50337561  0.28946288  1
  S  S39  1  0.77008623  0.52194645  0.68765081  1
  S  S40  1  0.67872789  0.92592559  0.46076626  1
  S  S41  1  0.32856788  0.07455270  0.54431760  1
