# generated using pymatgen
data_Pr2Mn3(SbS3)4
_symmetry_space_group_name_H-M   'P 1'
_cell_length_a   20.02960800
_cell_length_b   3.90410600
_cell_length_c   14.95364829
_cell_angle_alpha   90.00000000
_cell_angle_beta   126.33350609
_cell_angle_gamma   90.00000000
_symmetry_Int_Tables_number   1
_chemical_formula_structural   Pr2Mn3(SbS3)4
_chemical_formula_sum   'Pr4 Mn6 Sb8 S24'
_cell_volume   942.00006694
_cell_formula_units_Z   2
loop_
 _symmetry_equiv_pos_site_id
 _symmetry_equiv_pos_as_xyz
  1  'x, y, z'
loop_
 _atom_site_type_symbol
 _atom_site_label
 _atom_site_symmetry_multiplicity
 _atom_site_fract_x
 _atom_site_fract_y
 _atom_site_fract_z
 _atom_site_occupancy
  Pr  Pr0  1  0.26549572  0.45746376  0.86751980  1
  Pr  Pr1  1  0.73057284  0.56136741  0.13723158  1
  Pr  Pr2  1  0.77818539  0.97428504  0.87244527  1
  Pr  Pr3  1  0.22589379  0.02572862  0.12538426  1
  Mn  Mn4  1  0.28539579  0.57381930  0.58371479  1
  Mn  Mn5  1  0.70707880  0.45655581  0.39638672  1
  Mn  Mn6  1  0.00021037  0.95633131  0.99951569  1
  Mn  Mn7  1  0.79808263  0.00896559  0.61213217  1
  Mn  Mn8  1  0.18585525  0.98556596  0.40062900  1
  Mn  Mn9  1  0.52116293  0.54214080  0.02309920  1
  Sb  Sb10  1  0.89723124  0.03257989  0.45905243  1
  Sb  Sb11  1  0.11666387  0.99916416  0.55657485  1
  Sb  Sb12  1  0.03581721  0.50811973  0.80938922  1
  Sb  Sb13  1  0.96848115  0.49184051  0.19904138  1
  Sb  Sb14  1  0.39538650  0.49631176  0.45354606  1
  Sb  Sb15  1  0.61809199  0.43415352  0.55502579  1
  Sb  Sb16  1  0.52965065  0.98997766  0.81841331  1
  Sb  Sb17  1  0.47007338  0.02817637  0.19519093  1
  S  S18  1  0.94066427  0.96929196  0.81502557  1
  S  S19  1  0.06750700  0.01540894  0.21238429  1
  S  S20  1  0.42296997  0.99577955  0.00156936  1
  S  S21  1  0.59567147  0.02307967  0.02201745  1
  S  S22  1  0.19458404  0.93544862  0.91944368  1
  S  S23  1  0.84183389  0.01566268  0.11466900  1
  S  S24  1  0.09853560  0.51368088  0.66962939  1
  S  S25  1  0.89490472  0.51100769  0.34861687  1
  S  S26  1  0.73814609  0.92363436  0.30889761  1
  S  S27  1  0.26773086  0.00618805  0.68769017  1
  S  S28  1  0.16063788  0.46476307  0.44535289  1
  S  S29  1  0.84007896  0.46711657  0.55516653  1
  S  S30  1  0.45478900  0.49543583  0.83795463  1
  S  S31  1  0.58549427  0.51764097  0.21941610  1
  S  S32  1  0.92746484  0.47188190  0.99855062  1
  S  S33  1  0.08824788  0.51171069  0.01121999  1
  S  S34  1  0.67553198  0.42382784  0.89922408  1
  S  S35  1  0.35238736  0.46647780  0.11425603  1
  S  S36  1  0.61120854  0.93350678  0.66551382  1
  S  S37  1  0.41476435  0.99752266  0.35177228  1
  S  S38  1  0.24247885  0.50277306  0.28952310  1
  S  S39  1  0.76997594  0.52110493  0.68816207  1
  S  S40  1  0.67870389  0.92535983  0.46068107  1
  S  S41  1  0.32842793  0.07492724  0.54403782  1
