# generated using pymatgen
data_Pr2Mn3(SbS3)4
_symmetry_space_group_name_H-M   'P 1'
_cell_length_a   20.02960800
_cell_length_b   3.90410600
_cell_length_c   14.95364829
_cell_angle_alpha   90.00000000
_cell_angle_beta   126.33350609
_cell_angle_gamma   90.00000000
_symmetry_Int_Tables_number   1
_chemical_formula_structural   Pr2Mn3(SbS3)4
_chemical_formula_sum   'Pr4 Mn6 Sb8 S24'
_cell_volume   942.00006694
_cell_formula_units_Z   2
loop_
 _symmetry_equiv_pos_site_id
 _symmetry_equiv_pos_as_xyz
  1  'x, y, z'
loop_
 _atom_site_type_symbol
 _atom_site_label
 _atom_site_symmetry_multiplicity
 _atom_site_fract_x
 _atom_site_fract_y
 _atom_site_fract_z
 _atom_site_occupancy
  Pr  Pr0  1  0.26548929  0.45747196  0.86772317  1
  Pr  Pr1  1  0.73060900  0.56068554  0.13713895  1
  Pr  Pr2  1  0.77831144  0.97488855  0.87236365  1
  Pr  Pr3  1  0.22612222  0.02580697  0.12545647  1
  Mn  Mn4  1  0.28536758  0.57398344  0.58383746  1
  Mn  Mn5  1  0.70693696  0.45556082  0.39625251  1
  Mn  Mn6  1  0.00015332  0.95609718  0.99964870  1
  Mn  Mn7  1  0.79795958  0.00856726  0.61188410  1
  Mn  Mn8  1  0.18588815  0.98521175  0.40063512  1
  Mn  Mn9  1  0.52075602  0.54282315  0.02261374  1
  Sb  Sb10  1  0.89720204  0.03269841  0.45919255  1
  Sb  Sb11  1  0.11654452  0.99851886  0.55659176  1
  Sb  Sb12  1  0.03583779  0.50782516  0.80927993  1
  Sb  Sb13  1  0.96853999  0.49241899  0.19898324  1
  Sb  Sb14  1  0.39544277  0.49583124  0.45350118  1
  Sb  Sb15  1  0.61803853  0.43372121  0.55510319  1
  Sb  Sb16  1  0.52946248  0.99042201  0.81819855  1
  Sb  Sb17  1  0.47010242  0.02833418  0.19540162  1
  S  S18  1  0.94066859  0.97016404  0.81507362  1
  S  S19  1  0.06732203  0.01355568  0.21185020  1
  S  S20  1  0.42300773  0.99629954  0.00123006  1
  S  S21  1  0.59548475  0.02382660  0.02226001  1
  S  S22  1  0.19479688  0.93587265  0.91945981  1
  S  S23  1  0.84191337  0.01773088  0.11495905  1
  S  S24  1  0.09866779  0.51454390  0.66984536  1
  S  S25  1  0.89521241  0.51411200  0.34886870  1
  S  S26  1  0.73797819  0.92340951  0.30877591  1
  S  S27  1  0.26771807  0.00366120  0.68794791  1
  S  S28  1  0.16100536  0.46545313  0.44565974  1
  S  S29  1  0.83979589  0.46884113  0.55498581  1
  S  S30  1  0.45487554  0.49493810  0.83772322  1
  S  S31  1  0.58576744  0.51595626  0.21993873  1
  S  S32  1  0.92746588  0.47086286  0.99872633  1
  S  S33  1  0.08800066  0.51189114  0.01068486  1
  S  S34  1  0.67502156  0.42472999  0.89869398  1
  S  S35  1  0.35231714  0.46692425  0.11403670  1
  S  S36  1  0.61115374  0.93217593  0.66545101  1
  S  S37  1  0.41501347  0.99951972  0.35171160  1
  S  S38  1  0.24213859  0.50306661  0.28955575  1
  S  S39  1  0.76993153  0.52034988  0.68863996  1
  S  S40  1  0.67861066  0.92471144  0.46061558  1
  S  S41  1  0.32839832  0.07535060  0.54378995  1
