# generated using pymatgen
data_Pr2Mn3(SbS3)4
_symmetry_space_group_name_H-M   'P 1'
_cell_length_a   20.02960800
_cell_length_b   3.90410600
_cell_length_c   14.95364829
_cell_angle_alpha   90.00000000
_cell_angle_beta   126.33350609
_cell_angle_gamma   90.00000000
_symmetry_Int_Tables_number   1
_chemical_formula_structural   Pr2Mn3(SbS3)4
_chemical_formula_sum   'Pr4 Mn6 Sb8 S24'
_cell_volume   942.00006694
_cell_formula_units_Z   2
loop_
 _symmetry_equiv_pos_site_id
 _symmetry_equiv_pos_as_xyz
  1  'x, y, z'
loop_
 _atom_site_type_symbol
 _atom_site_label
 _atom_site_symmetry_multiplicity
 _atom_site_fract_x
 _atom_site_fract_y
 _atom_site_fract_z
 _atom_site_occupancy
  Pr  Pr0  1  0.26562240  0.45771193  0.86803209  1
  Pr  Pr1  1  0.73062524  0.56005155  0.13700653  1
  Pr  Pr2  1  0.77836624  0.97574541  0.87220336  1
  Pr  Pr3  1  0.22645741  0.02593985  0.12566887  1
  Mn  Mn4  1  0.28519163  0.57414172  0.58388381  1
  Mn  Mn5  1  0.70686625  0.45435746  0.39628723  1
  Mn  Mn6  1  0.00019039  0.95550233  0.99968963  1
  Mn  Mn7  1  0.79792211  0.00850003  0.61170793  1
  Mn  Mn8  1  0.18598055  0.98444203  0.40073407  1
  Mn  Mn9  1  0.52033400  0.54340106  0.02227667  1
  Sb  Sb10  1  0.89720903  0.03264995  0.45930337  1
  Sb  Sb11  1  0.11643543  0.99778530  0.55656952  1
  Sb  Sb12  1  0.03582229  0.50757365  0.80912549  1
  Sb  Sb13  1  0.96859396  0.49319295  0.19899606  1
  Sb  Sb14  1  0.39554702  0.49539679  0.45350467  1
  Sb  Sb15  1  0.61803472  0.43347082  0.55518207  1
  Sb  Sb16  1  0.52926541  0.99067326  0.81809626  1
  Sb  Sb17  1  0.47016555  0.02879993  0.19563676  1
  S  S18  1  0.94068905  0.97047132  0.81495136  1
  S  S19  1  0.06696751  0.01231204  0.21122909  1
  S  S20  1  0.42287712  0.99678474  0.00068137  1
  S  S21  1  0.59526747  0.02562666  0.02261635  1
  S  S22  1  0.19489207  0.93609512  0.91948764  1
  S  S23  1  0.84192863  0.01983575  0.11523953  1
  S  S24  1  0.09878984  0.51477904  0.67000961  1
  S  S25  1  0.89556331  0.51648391  0.34932029  1
  S  S26  1  0.73793085  0.92294710  0.30859438  1
  S  S27  1  0.26771149  0.00178729  0.68814122  1
  S  S28  1  0.16148130  0.46568993  0.44623923  1
  S  S29  1  0.83953051  0.47034399  0.55477565  1
  S  S30  1  0.45502913  0.49430837  0.83772187  1
  S  S31  1  0.58600856  0.51499522  0.22042524  1
  S  S32  1  0.92763542  0.46978430  0.99927335  1
  S  S33  1  0.08774259  0.51196448  0.01021570  1
  S  S34  1  0.67445564  0.42617540  0.89811349  1
  S  S35  1  0.35206867  0.46730340  0.11370893  1
  S  S36  1  0.61100772  0.93121029  0.66498800  1
  S  S37  1  0.41506056  0.00106046  0.35133907  1
  S  S38  1  0.24176102  0.50276168  0.28966694  1
  S  S39  1  0.76981901  0.51943256  0.68900311  1
  S  S40  1  0.67853680  0.92421354  0.46065945  1
  S  S41  1  0.32845293  0.07610344  0.54373688  1
