# generated using pymatgen
data_Pr2Mn3(SbS3)4
_symmetry_space_group_name_H-M   'P 1'
_cell_length_a   20.02960800
_cell_length_b   3.90410600
_cell_length_c   14.95364829
_cell_angle_alpha   90.00000000
_cell_angle_beta   126.33350609
_cell_angle_gamma   90.00000000
_symmetry_Int_Tables_number   1
_chemical_formula_structural   Pr2Mn3(SbS3)4
_chemical_formula_sum   'Pr4 Mn6 Sb8 S24'
_cell_volume   942.00006694
_cell_formula_units_Z   2
loop_
 _symmetry_equiv_pos_site_id
 _symmetry_equiv_pos_as_xyz
  1  'x, y, z'
loop_
 _atom_site_type_symbol
 _atom_site_label
 _atom_site_symmetry_multiplicity
 _atom_site_fract_x
 _atom_site_fract_y
 _atom_site_fract_z
 _atom_site_occupancy
  Pr  Pr0  1  0.26577202  0.45769674  0.86823811  1
  Pr  Pr1  1  0.73065040  0.55962801  0.13694508  1
  Pr  Pr2  1  0.77838544  0.97685206  0.87200676  1
  Pr  Pr3  1  0.22669764  0.02626546  0.12582230  1
  Mn  Mn4  1  0.28502176  0.57370956  0.58377468  1
  Mn  Mn5  1  0.70685106  0.45320536  0.39630538  1
  Mn  Mn6  1  0.00007065  0.95525630  0.99942859  1
  Mn  Mn7  1  0.79784976  0.00857853  0.61153149  1
  Mn  Mn8  1  0.18611664  0.98352326  0.40096701  1
  Mn  Mn9  1  0.51984994  0.54368473  0.02190097  1
  Sb  Sb10  1  0.89716323  0.03263820  0.45931984  1
  Sb  Sb11  1  0.11633983  0.99710073  0.55655015  1
  Sb  Sb12  1  0.03578851  0.50710956  0.80902026  1
  Sb  Sb13  1  0.96854970  0.49389892  0.19888671  1
  Sb  Sb14  1  0.39559984  0.49513546  0.45349677  1
  Sb  Sb15  1  0.61808346  0.43318221  0.55541955  1
  Sb  Sb16  1  0.52907509  0.99115617  0.81805730  1
  Sb  Sb17  1  0.47024077  0.02903630  0.19584758  1
  S  S18  1  0.94091912  0.97048953  0.81495168  1
  S  S19  1  0.06662086  0.01109578  0.21079744  1
  S  S20  1  0.42268427  0.99682094  0.99997355  1
  S  S21  1  0.59504341  0.02739248  0.02296422  1
  S  S22  1  0.19501453  0.93588075  0.91948877  1
  S  S23  1  0.84189368  0.02196045  0.11550593  1
  S  S24  1  0.09895964  0.51530495  0.67026189  1
  S  S25  1  0.89597329  0.51808514  0.34972293  1
  S  S26  1  0.73799593  0.92190621  0.30873571  1
  S  S27  1  0.26752890  0.99974160  0.68832581  1
  S  S28  1  0.16183737  0.46589484  0.44664208  1
  S  S29  1  0.83928940  0.47214863  0.55464824  1
  S  S30  1  0.45509902  0.49380728  0.83765287  1
  S  S31  1  0.58629955  0.51448441  0.22093203  1
  S  S32  1  0.92778274  0.46861135  0.99965247  1
  S  S33  1  0.08762792  0.51173182  0.00990059  1
  S  S34  1  0.67372541  0.42794009  0.89757745  1
  S  S35  1  0.35179364  0.46791769  0.11324747  1
  S  S36  1  0.61070630  0.93040307  0.66434579  1
  S  S37  1  0.41506280  0.00214235  0.35087485  1
  S  S38  1  0.24152325  0.50224595  0.29006561  1
  S  S39  1  0.76979478  0.51776613  0.68945847  1
  S  S40  1  0.67843124  0.92392693  0.46074221  1
  S  S41  1  0.32831140  0.07631887  0.54353351  1
