# generated using pymatgen
data_Pr2Mn3(SbS3)4
_symmetry_space_group_name_H-M   'P 1'
_cell_length_a   20.02960800
_cell_length_b   3.90410600
_cell_length_c   14.95364829
_cell_angle_alpha   90.00000000
_cell_angle_beta   126.33350609
_cell_angle_gamma   90.00000000
_symmetry_Int_Tables_number   1
_chemical_formula_structural   Pr2Mn3(SbS3)4
_chemical_formula_sum   'Pr4 Mn6 Sb8 S24'
_cell_volume   942.00006694
_cell_formula_units_Z   2
loop_
 _symmetry_equiv_pos_site_id
 _symmetry_equiv_pos_as_xyz
  1  'x, y, z'
loop_
 _atom_site_type_symbol
 _atom_site_label
 _atom_site_symmetry_multiplicity
 _atom_site_fract_x
 _atom_site_fract_y
 _atom_site_fract_z
 _atom_site_occupancy
  Pr  Pr0  1  0.26585003  0.45776345  0.86836210  1
  Pr  Pr1  1  0.73070880  0.55924905  0.13689258  1
  Pr  Pr2  1  0.77837504  0.97772219  0.87187102  1
  Pr  Pr3  1  0.22690373  0.02656663  0.12598698  1
  Mn  Mn4  1  0.28495450  0.57292369  0.58383515  1
  Mn  Mn5  1  0.70674687  0.45193899  0.39619899  1
  Mn  Mn6  1  0.99994020  0.95513126  0.99900639  1
  Mn  Mn7  1  0.79785191  0.00864183  0.61141641  1
  Mn  Mn8  1  0.18627779  0.98219190  0.40130590  1
  Mn  Mn9  1  0.51954796  0.54449596  0.02163481  1
  Sb  Sb10  1  0.89714293  0.03257629  0.45931129  1
  Sb  Sb11  1  0.11622736  0.99670639  0.55652040  1
  Sb  Sb12  1  0.03571508  0.50639371  0.80896501  1
  Sb  Sb13  1  0.96858793  0.49429590  0.19889246  1
  Sb  Sb14  1  0.39561667  0.49493474  0.45346823  1
  Sb  Sb15  1  0.61809375  0.43332831  0.55559834  1
  Sb  Sb16  1  0.52892495  0.99154431  0.81804065  1
  Sb  Sb17  1  0.47024704  0.02943661  0.19586972  1
  S  S18  1  0.94100963  0.97050236  0.81508623  1
  S  S19  1  0.06634134  0.01038374  0.21048217  1
  S  S20  1  0.42245101  0.99682297  0.99926625  1
  S  S21  1  0.59465523  0.02967986  0.02311060  1
  S  S22  1  0.19496886  0.93605425  0.91947159  1
  S  S23  1  0.84188437  0.02357560  0.11576941  1
  S  S24  1  0.09907708  0.51606376  0.67044826  1
  S  S25  1  0.89637596  0.51952300  0.35006563  1
  S  S26  1  0.73824272  0.92118669  0.30900096  1
  S  S27  1  0.26723858  0.99765752  0.68845142  1
  S  S28  1  0.16206035  0.46582330  0.44702001  1
  S  S29  1  0.83900725  0.47301280  0.55455032  1
  S  S30  1  0.45492379  0.49341298  0.83755414  1
  S  S31  1  0.58641369  0.51389544  0.22140736  1
  S  S32  1  0.92780303  0.46706041  0.99980437  1
  S  S33  1  0.08753450  0.51113561  0.00972252  1
  S  S34  1  0.67308707  0.42973547  0.89713671  1
  S  S35  1  0.35145016  0.46774050  0.11269508  1
  S  S36  1  0.61054146  0.92940409  0.66388049  1
  S  S37  1  0.41508843  0.00288906  0.35062746  1
  S  S38  1  0.24130746  0.50177166  0.29045203  1
  S  S39  1  0.76980401  0.51619834  0.68996200  1
  S  S40  1  0.67843432  0.92360618  0.46089764  1
  S  S41  1  0.32819892  0.07585774  0.54332451  1
