# generated using pymatgen
data_Pr2Mn3(SbS3)4
_symmetry_space_group_name_H-M   'P 1'
_cell_length_a   20.02960800
_cell_length_b   3.90410600
_cell_length_c   14.95364829
_cell_angle_alpha   90.00000000
_cell_angle_beta   126.33350609
_cell_angle_gamma   90.00000000
_symmetry_Int_Tables_number   1
_chemical_formula_structural   Pr2Mn3(SbS3)4
_chemical_formula_sum   'Pr4 Mn6 Sb8 S24'
_cell_volume   942.00006694
_cell_formula_units_Z   2
loop_
 _symmetry_equiv_pos_site_id
 _symmetry_equiv_pos_as_xyz
  1  'x, y, z'
loop_
 _atom_site_type_symbol
 _atom_site_label
 _atom_site_symmetry_multiplicity
 _atom_site_fract_x
 _atom_site_fract_y
 _atom_site_fract_z
 _atom_site_occupancy
  Pr  Pr0  1  0.26586480  0.45765045  0.86842747  1
  Pr  Pr1  1  0.73071845  0.55890506  0.13684616  1
  Pr  Pr2  1  0.77844160  0.97862660  0.87184756  1
  Pr  Pr3  1  0.22714599  0.02648057  0.12612569  1
  Mn  Mn4  1  0.28484853  0.57253884  0.58388023  1
  Mn  Mn5  1  0.70669602  0.44999140  0.39617012  1
  Mn  Mn6  1  0.99969783  0.95501905  0.99853460  1
  Mn  Mn7  1  0.79795495  0.00802749  0.61142523  1
  Mn  Mn8  1  0.18643802  0.98062340  0.40155217  1
  Mn  Mn9  1  0.51916073  0.54467968  0.02134662  1
  Sb  Sb10  1  0.89714599  0.03247443  0.45933514  1
  Sb  Sb11  1  0.11615198  0.99599131  0.55651680  1
  Sb  Sb12  1  0.03560768  0.50565258  0.80889402  1
  Sb  Sb13  1  0.96863457  0.49480875  0.19883854  1
  Sb  Sb14  1  0.39559677  0.49470935  0.45328701  1
  Sb  Sb15  1  0.61811398  0.43368419  0.55571800  1
  Sb  Sb16  1  0.52871586  0.99184114  0.81798161  1
  Sb  Sb17  1  0.47019869  0.02979137  0.19587798  1
  S  S18  1  0.94112424  0.97006297  0.81525316  1
  S  S19  1  0.06614510  0.01018146  0.21031517  1
  S  S20  1  0.42227634  0.99654914  0.99867328  1
  S  S21  1  0.59424454  0.03174939  0.02347975  1
  S  S22  1  0.19488113  0.93671351  0.91936466  1
  S  S23  1  0.84187060  0.02451879  0.11606081  1
  S  S24  1  0.09929807  0.51734835  0.67067258  1
  S  S25  1  0.89677008  0.52130759  0.35040751  1
  S  S26  1  0.73853616  0.92050616  0.30916564  1
  S  S27  1  0.26702523  0.99561332  0.68872658  1
  S  S28  1  0.16229471  0.46586341  0.44731837  1
  S  S29  1  0.83888438  0.47386489  0.55444667  1
  S  S30  1  0.45476705  0.49303493  0.83751463  1
  S  S31  1  0.58638319  0.51395036  0.22165809  1
  S  S32  1  0.92791359  0.46595157  0.99994172  1
  S  S33  1  0.08750603  0.51004136  0.00955554  1
  S  S34  1  0.67234528  0.43192064  0.89661720  1
  S  S35  1  0.35109619  0.46731151  0.11228726  1
  S  S36  1  0.61049614  0.92860800  0.66351936  1
  S  S37  1  0.41507326  0.00369456  0.35022402  1
  S  S38  1  0.24119779  0.50173634  0.29096171  1
  S  S39  1  0.76985665  0.51545246  0.69059160  1
  S  S40  1  0.67841511  0.92264205  0.46104481  1
  S  S41  1  0.32809186  0.07484056  0.54318729  1
