# generated using pymatgen
data_Pr2Mn3(SbS3)4
_symmetry_space_group_name_H-M   'P 1'
_cell_length_a   20.02960800
_cell_length_b   3.90410600
_cell_length_c   14.95364829
_cell_angle_alpha   90.00000000
_cell_angle_beta   126.33350609
_cell_angle_gamma   90.00000000
_symmetry_Int_Tables_number   1
_chemical_formula_structural   Pr2Mn3(SbS3)4
_chemical_formula_sum   'Pr4 Mn6 Sb8 S24'
_cell_volume   942.00006694
_cell_formula_units_Z   2
loop_
 _symmetry_equiv_pos_site_id
 _symmetry_equiv_pos_as_xyz
  1  'x, y, z'
loop_
 _atom_site_type_symbol
 _atom_site_label
 _atom_site_symmetry_multiplicity
 _atom_site_fract_x
 _atom_site_fract_y
 _atom_site_fract_z
 _atom_site_occupancy
  Pr  Pr0  1  0.26589303  0.45740456  0.86853782  1
  Pr  Pr1  1  0.73068886  0.55861399  0.13677486  1
  Pr  Pr2  1  0.77848018  0.97940986  0.87178880  1
  Pr  Pr3  1  0.22745030  0.02614417  0.12632555  1
  Mn  Mn4  1  0.28484686  0.57214006  0.58409948  1
  Mn  Mn5  1  0.70676106  0.44878657  0.39624435  1
  Mn  Mn6  1  0.99947936  0.95459626  0.99805130  1
  Mn  Mn7  1  0.79804503  0.00722410  0.61133355  1
  Mn  Mn8  1  0.18657413  0.97916368  0.40169175  1
  Mn  Mn9  1  0.51882971  0.54510997  0.02116679  1
  Sb  Sb10  1  0.89720252  0.03260812  0.45929964  1
  Sb  Sb11  1  0.11609830  0.99544946  0.55653493  1
  Sb  Sb12  1  0.03557106  0.50481127  0.80895021  1
  Sb  Sb13  1  0.96862274  0.49508304  0.19876470  1
  Sb  Sb14  1  0.39555086  0.49438711  0.45300243  1
  Sb  Sb15  1  0.61818741  0.43405681  0.55585189  1
  Sb  Sb16  1  0.52857055  0.99186016  0.81794480  1
  Sb  Sb17  1  0.47017135  0.03061625  0.19584071  1
  S  S18  1  0.94117956  0.96951442  0.81525237  1
  S  S19  1  0.06598871  0.00958240  0.21012751  1
  S  S20  1  0.42200032  0.99636031  0.99786459  1
  S  S21  1  0.59386809  0.03285407  0.02377043  1
  S  S22  1  0.19490986  0.93726452  0.91953181  1
  S  S23  1  0.84157839  0.02514571  0.11613483  1
  S  S24  1  0.09938324  0.51855398  0.67071923  1
  S  S25  1  0.89710058  0.52329062  0.35070563  1
  S  S26  1  0.73889810  0.91924120  0.30936606  1
  S  S27  1  0.26689188  0.99387663  0.68911283  1
  S  S28  1  0.16241269  0.46619615  0.44755626  1
  S  S29  1  0.83879580  0.47483094  0.55434301  1
  S  S30  1  0.45461123  0.49252635  0.83750649  1
  S  S31  1  0.58643166  0.51416058  0.22186579  1
  S  S32  1  0.92805577  0.46528320  0.00014686  1
  S  S33  1  0.08751110  0.50898420  0.00960485  1
  S  S34  1  0.67180676  0.43457944  0.89609916  1
  S  S35  1  0.35079764  0.46694205  0.11182445  1
  S  S36  1  0.61039968  0.92800098  0.66319750  1
  S  S37  1  0.41503843  0.00413614  0.34985092  1
  S  S38  1  0.24109643  0.50197619  0.29137451  1
  S  S39  1  0.76990104  0.51444098  0.69117859  1
  S  S40  1  0.67846587  0.92189959  0.46127114  1
  S  S41  1  0.32788476  0.07257946  0.54300073  1
