# generated using pymatgen
data_Pr2Mn3(SbS3)4
_symmetry_space_group_name_H-M   'P 1'
_cell_length_a   20.02960800
_cell_length_b   3.90410600
_cell_length_c   14.95364829
_cell_angle_alpha   90.00000000
_cell_angle_beta   126.33350609
_cell_angle_gamma   90.00000000
_symmetry_Int_Tables_number   1
_chemical_formula_structural   Pr2Mn3(SbS3)4
_chemical_formula_sum   'Pr4 Mn6 Sb8 S24'
_cell_volume   942.00006694
_cell_formula_units_Z   2
loop_
 _symmetry_equiv_pos_site_id
 _symmetry_equiv_pos_as_xyz
  1  'x, y, z'
loop_
 _atom_site_type_symbol
 _atom_site_label
 _atom_site_symmetry_multiplicity
 _atom_site_fract_x
 _atom_site_fract_y
 _atom_site_fract_z
 _atom_site_occupancy
  Pr  Pr0  1  0.26587428  0.45780018  0.86856895  1
  Pr  Pr1  1  0.73068106  0.55839670  0.13673124  1
  Pr  Pr2  1  0.77851091  0.98017023  0.87187401  1
  Pr  Pr3  1  0.22774558  0.02553601  0.12647827  1
  Mn  Mn4  1  0.28479374  0.57237080  0.58418197  1
  Mn  Mn5  1  0.70669549  0.44829485  0.39614590  1
  Mn  Mn6  1  0.99935237  0.95441703  0.99770921  1
  Mn  Mn7  1  0.79812277  0.00647130  0.61123773  1
  Mn  Mn8  1  0.18662537  0.97737034  0.40173653  1
  Mn  Mn9  1  0.51853837  0.54556196  0.02109361  1
  Sb  Sb10  1  0.89731299  0.03266676  0.45929903  1
  Sb  Sb11  1  0.11603302  0.99494927  0.55649688  1
  Sb  Sb12  1  0.03551960  0.50370551  0.80909154  1
  Sb  Sb13  1  0.96859112  0.49536400  0.19867435  1
  Sb  Sb14  1  0.39553743  0.49438211  0.45278517  1
  Sb  Sb15  1  0.61826652  0.43443363  0.55598401  1
  Sb  Sb16  1  0.52843732  0.99182877  0.81785890  1
  Sb  Sb17  1  0.47017869  0.03106286  0.19581276  1
  S  S18  1  0.94118465  0.96844720  0.81531875  1
  S  S19  1  0.06586405  0.00914519  0.20996673  1
  S  S20  1  0.42165927  0.99542521  0.99708199  1
  S  S21  1  0.59365522  0.03346684  0.02404463  1
  S  S22  1  0.19502773  0.93777437  0.91971930  1
  S  S23  1  0.84147773  0.02609394  0.11637746  1
  S  S24  1  0.09948025  0.51893900  0.67081749  1
  S  S25  1  0.89731428  0.52482210  0.35090095  1
  S  S26  1  0.73924563  0.91852436  0.30949646  1
  S  S27  1  0.26681700  0.99303566  0.68930779  1
  S  S28  1  0.16249838  0.46617829  0.44775783  1
  S  S29  1  0.83869044  0.47561862  0.55439843  1
  S  S30  1  0.45453804  0.49166465  0.83765305  1
  S  S31  1  0.58645600  0.51413492  0.22201637  1
  S  S32  1  0.92802288  0.46457391  0.00016451  1
  S  S33  1  0.08748328  0.50840865  0.00975365  1
  S  S34  1  0.67136819  0.43636443  0.89566904  1
  S  S35  1  0.35060984  0.46601316  0.11148741  1
  S  S36  1  0.61026116  0.92791534  0.66300779  1
  S  S37  1  0.41503155  0.00491915  0.34947388  1
  S  S38  1  0.24099106  0.50158466  0.29172394  1
  S  S39  1  0.76995595  0.51357287  0.69169718  1
  S  S40  1  0.67844733  0.92074308  0.46133384  1
  S  S41  1  0.32783087  0.07007854  0.54300591  1
