# generated using pymatgen
data_Pr2Mn3(SbS3)4
_symmetry_space_group_name_H-M   'P 1'
_cell_length_a   20.02960800
_cell_length_b   3.90410600
_cell_length_c   14.95364829
_cell_angle_alpha   90.00000000
_cell_angle_beta   126.33350609
_cell_angle_gamma   90.00000000
_symmetry_Int_Tables_number   1
_chemical_formula_structural   Pr2Mn3(SbS3)4
_chemical_formula_sum   'Pr4 Mn6 Sb8 S24'
_cell_volume   942.00006694
_cell_formula_units_Z   2
loop_
 _symmetry_equiv_pos_site_id
 _symmetry_equiv_pos_as_xyz
  1  'x, y, z'
loop_
 _atom_site_type_symbol
 _atom_site_label
 _atom_site_symmetry_multiplicity
 _atom_site_fract_x
 _atom_site_fract_y
 _atom_site_fract_z
 _atom_site_occupancy
  Pr  Pr0  1  0.26586074  0.45819064  0.86856695  1
  Pr  Pr1  1  0.73065277  0.55802310  0.13666870  1
  Pr  Pr2  1  0.77856870  0.98080324  0.87200587  1
  Pr  Pr3  1  0.22799806  0.02480613  0.12673495  1
  Mn  Mn4  1  0.28473748  0.57280151  0.58426672  1
  Mn  Mn5  1  0.70663182  0.44777015  0.39610311  1
  Mn  Mn6  1  0.99920383  0.95448594  0.99750284  1
  Mn  Mn7  1  0.79813983  0.00578375  0.61104231  1
  Mn  Mn8  1  0.18665718  0.97605668  0.40171298  1
  Mn  Mn9  1  0.51826593  0.54549226  0.02087533  1
  Sb  Sb10  1  0.89749035  0.03241026  0.45944017  1
  Sb  Sb11  1  0.11598679  0.99441978  0.55648852  1
  Sb  Sb12  1  0.03551203  0.50262740  0.80923346  1
  Sb  Sb13  1  0.96855226  0.49534165  0.19860566  1
  Sb  Sb14  1  0.39551884  0.49407853  0.45253279  1
  Sb  Sb15  1  0.61831897  0.43499783  0.55618475  1
  Sb  Sb16  1  0.52830323  0.99176957  0.81772887  1
  Sb  Sb17  1  0.47008237  0.03122657  0.19574493  1
  S  S18  1  0.94102491  0.96745703  0.81521746  1
  S  S19  1  0.06573462  0.00855635  0.20964391  1
  S  S20  1  0.42127938  0.99417091  0.99625426  1
  S  S21  1  0.59349490  0.03345715  0.02443688  1
  S  S22  1  0.19505067  0.93805675  0.91974914  1
  S  S23  1  0.84143090  0.02660366  0.11672174  1
  S  S24  1  0.09951872  0.51994274  0.67068966  1
  S  S25  1  0.89742775  0.52635372  0.35095982  1
  S  S26  1  0.73972510  0.91819065  0.30970809  1
  S  S27  1  0.26659069  0.99168977  0.68953239  1
  S  S28  1  0.16267342  0.46667191  0.44803331  1
  S  S29  1  0.83874555  0.47597102  0.55468547  1
  S  S30  1  0.45442037  0.49121823  0.83778892  1
  S  S31  1  0.58649464  0.51424338  0.22212064  1
  S  S32  1  0.92817504  0.46446788  0.00019583  1
  S  S33  1  0.08750850  0.50840161  0.01001500  1
  S  S34  1  0.67096838  0.43803427  0.89531101  1
  S  S35  1  0.35040931  0.46573211  0.11113821  1
  S  S36  1  0.61018512  0.92746130  0.66290334  1
  S  S37  1  0.41506974  0.00537742  0.34909777  1
  S  S38  1  0.24092561  0.50083951  0.29204606  1
  S  S39  1  0.76998602  0.51310490  0.69203373  1
  S  S40  1  0.67844875  0.91987197  0.46116558  1
  S  S41  1  0.32775498  0.06762391  0.54299053  1
