# generated using pymatgen
data_Pr2Mn3(SbS3)4
_symmetry_space_group_name_H-M   'P 1'
_cell_length_a   20.02960800
_cell_length_b   3.90410600
_cell_length_c   14.95364829
_cell_angle_alpha   90.00000000
_cell_angle_beta   126.33350609
_cell_angle_gamma   90.00000000
_symmetry_Int_Tables_number   1
_chemical_formula_structural   Pr2Mn3(SbS3)4
_chemical_formula_sum   'Pr4 Mn6 Sb8 S24'
_cell_volume   942.00006694
_cell_formula_units_Z   2
loop_
 _symmetry_equiv_pos_site_id
 _symmetry_equiv_pos_as_xyz
  1  'x, y, z'
loop_
 _atom_site_type_symbol
 _atom_site_label
 _atom_site_symmetry_multiplicity
 _atom_site_fract_x
 _atom_site_fract_y
 _atom_site_fract_z
 _atom_site_occupancy
  Pr  Pr0  1  0.26966945  0.50640284  0.87024895  1
  Pr  Pr1  1  0.73469958  0.51371918  0.13505856  1
  Pr  Pr2  1  0.76434944  0.03205383  0.86882147  1
  Pr  Pr3  1  0.22902781  0.97516623  0.12967722  1
  Mn  Mn4  1  0.30013988  0.46571624  0.60939514  1
  Mn  Mn5  1  0.68608490  0.46688978  0.36558569  1
  Mn  Mn6  1  0.00114510  0.98495300  0.00858577  1
  Mn  Mn7  1  0.79209157  0.02943573  0.61445019  1
  Mn  Mn8  1  0.19706610  0.01225745  0.36920578  1
  Mn  Mn9  1  0.48151937  0.47081380  0.98194077  1
  Sb  Sb10  1  0.89024592  0.98070838  0.44767566  1
  Sb  Sb11  1  0.11200634  0.97989582  0.54753200  1
  Sb  Sb12  1  0.03772521  0.52680032  0.82475207  1
  Sb  Sb13  1  0.96875702  0.48743832  0.19224518  1
  Sb  Sb14  1  0.39729054  0.49796926  0.45329450  1
  Sb  Sb15  1  0.61171376  0.48251415  0.54763095  1
  Sb  Sb16  1  0.52976526  0.97086406  0.80456491  1
  Sb  Sb17  1  0.46546312  0.02611127  0.18584521  1
  S  S18  1  0.94178928  0.01727546  0.81004817  1
  S  S19  1  0.06624644  0.00221126  0.20523351  1
  S  S20  1  0.41716800  0.98032857  0.97806139  1
  S  S21  1  0.58665752  0.02118349  0.01031656  1
  S  S22  1  0.16212437  0.02954477  0.89777594  1
  S  S23  1  0.82740136  0.98979373  0.10366236  1
  S  S24  1  0.08529622  0.50152631  0.63545476  1
  S  S25  1  0.91561571  0.48972986  0.35276306  1
  S  S26  1  0.73476304  0.00861609  0.29451256  1
  S  S27  1  0.26031543  0.01435240  0.70467911  1
  S  S28  1  0.17014269  0.52093313  0.43807944  1
  S  S29  1  0.80933312  0.51531116  0.53886631  1
  S  S30  1  0.43411329  0.47910375  0.80283981  1
  S  S31  1  0.55438354  0.50183964  0.18105347  1
  S  S32  1  0.92268042  0.50738883  0.98780345  1
  S  S33  1  0.08948978  0.49991944  0.02612660  1
  S  S34  1  0.66759250  0.55716463  0.89580838  1
  S  S35  1  0.32951969  0.46108064  0.09963513  1
  S  S36  1  0.58914748  0.00146855  0.64722313  1
  S  S37  1  0.39371160  0.98698624  0.33320130  1
  S  S38  1  0.24721455  0.47697392  0.31637744  1
  S  S39  1  0.76382327  0.50607149  0.69182235  1
  S  S40  1  0.65826063  0.98447788  0.43764169  1
  S  S41  1  0.33014308  0.98745300  0.55224925  1
