# generated using pymatgen
data_Pr2Mn3(SbS3)4
_symmetry_space_group_name_H-M   'P 1'
_cell_length_a   20.02960800
_cell_length_b   3.90410600
_cell_length_c   14.95364829
_cell_angle_alpha   90.00000000
_cell_angle_beta   126.33350609
_cell_angle_gamma   90.00000000
_symmetry_Int_Tables_number   1
_chemical_formula_structural   Pr2Mn3(SbS3)4
_chemical_formula_sum   'Pr4 Mn6 Sb8 S24'
_cell_volume   942.00006694
_cell_formula_units_Z   2
loop_
 _symmetry_equiv_pos_site_id
 _symmetry_equiv_pos_as_xyz
  1  'x, y, z'
loop_
 _atom_site_type_symbol
 _atom_site_label
 _atom_site_symmetry_multiplicity
 _atom_site_fract_x
 _atom_site_fract_y
 _atom_site_fract_z
 _atom_site_occupancy
  Pr  Pr0  1  0.26583923  0.45851948  0.86866069  1
  Pr  Pr1  1  0.73063472  0.55804186  0.13668440  1
  Pr  Pr2  1  0.77866624  0.98128616  0.87217495  1
  Pr  Pr3  1  0.22821887  0.02422037  0.12697973  1
  Mn  Mn4  1  0.28463253  0.57338769  0.58425215  1
  Mn  Mn5  1  0.70659725  0.44755711  0.39596350  1
  Mn  Mn6  1  0.99916025  0.95441332  0.99754046  1
  Mn  Mn7  1  0.79815776  0.00487565  0.61091499  1
  Mn  Mn8  1  0.18664711  0.97469306  0.40168749  1
  Mn  Mn9  1  0.51804418  0.54566212  0.02070466  1
  Sb  Sb10  1  0.89764421  0.03238868  0.45960919  1
  Sb  Sb11  1  0.11587005  0.99422910  0.55644933  1
  Sb  Sb12  1  0.03544266  0.50169716  0.80937822  1
  Sb  Sb13  1  0.96855257  0.49549440  0.19853643  1
  Sb  Sb14  1  0.39545562  0.49390827  0.45216096  1
  Sb  Sb15  1  0.61844665  0.43542741  0.55634655  1
  Sb  Sb16  1  0.52814409  0.99192248  0.81753567  1
  Sb  Sb17  1  0.47012582  0.03144470  0.19576065  1
  S  S18  1  0.94086415  0.96655921  0.81497119  1
  S  S19  1  0.06559240  0.00782071  0.20941012  1
  S  S20  1  0.42080985  0.99257010  0.99547989  1
  S  S21  1  0.59321772  0.03369731  0.02490691  1
  S  S22  1  0.19493206  0.93842448  0.91953707  1
  S  S23  1  0.84119976  0.02702463  0.11686841  1
  S  S24  1  0.09957698  0.52069738  0.67059852  1
  S  S25  1  0.89753830  0.52731732  0.35090429  1
  S  S26  1  0.74004271  0.91701172  0.30990831  1
  S  S27  1  0.26635030  0.98986069  0.68969611  1
  S  S28  1  0.16282698  0.46777530  0.44830667  1
  S  S29  1  0.83880744  0.47652118  0.55485771  1
  S  S30  1  0.45445386  0.49088187  0.83795363  1
  S  S31  1  0.58663478  0.51459262  0.22213708  1
  S  S32  1  0.92824566  0.46425750  0.00027248  1
  S  S33  1  0.08760015  0.50844705  0.01040527  1
  S  S34  1  0.67067801  0.44021244  0.89493313  1
  S  S35  1  0.35005123  0.46584597  0.11057127  1
  S  S36  1  0.61011173  0.92766721  0.66287573  1
  S  S37  1  0.41515929  0.00609101  0.34876044  1
  S  S38  1  0.24087353  0.50040996  0.29228344  1
  S  S39  1  0.76999385  0.51317954  0.69226314  1
  S  S40  1  0.67850270  0.91888816  0.46107311  1
  S  S41  1  0.32776930  0.06570402  0.54306564  1
