# generated using pymatgen
data_Pr2Mn3(SbS3)4
_symmetry_space_group_name_H-M   'P 1'
_cell_length_a   20.02960800
_cell_length_b   3.90410600
_cell_length_c   14.95364829
_cell_angle_alpha   90.00000000
_cell_angle_beta   126.33350609
_cell_angle_gamma   90.00000000
_symmetry_Int_Tables_number   1
_chemical_formula_structural   Pr2Mn3(SbS3)4
_chemical_formula_sum   'Pr4 Mn6 Sb8 S24'
_cell_volume   942.00006694
_cell_formula_units_Z   2
loop_
 _symmetry_equiv_pos_site_id
 _symmetry_equiv_pos_as_xyz
  1  'x, y, z'
loop_
 _atom_site_type_symbol
 _atom_site_label
 _atom_site_symmetry_multiplicity
 _atom_site_fract_x
 _atom_site_fract_y
 _atom_site_fract_z
 _atom_site_occupancy
  Pr  Pr0  1  0.26574831  0.45896957  0.86866167  1
  Pr  Pr1  1  0.73066331  0.55779999  0.13668218  1
  Pr  Pr2  1  0.77881922  0.98123334  0.87244771  1
  Pr  Pr3  1  0.22836959  0.02367494  0.12708972  1
  Mn  Mn4  1  0.28454068  0.57363862  0.58420079  1
  Mn  Mn5  1  0.70648979  0.44744291  0.39581581  1
  Mn  Mn6  1  0.99926977  0.95420909  0.99777030  1
  Mn  Mn7  1  0.79824336  0.00352645  0.61092490  1
  Mn  Mn8  1  0.18656555  0.97354754  0.40150596  1
  Mn  Mn9  1  0.51780070  0.54546022  0.02054248  1
  Sb  Sb10  1  0.89781529  0.03267374  0.45980365  1
  Sb  Sb11  1  0.11566838  0.99409503  0.55634708  1
  Sb  Sb12  1  0.03524118  0.50095931  0.80938678  1
  Sb  Sb13  1  0.96858632  0.49560035  0.19849045  1
  Sb  Sb14  1  0.39539036  0.49399204  0.45183056  1
  Sb  Sb15  1  0.61862409  0.43574897  0.55661391  1
  Sb  Sb16  1  0.52802960  0.99194938  0.81740182  1
  Sb  Sb17  1  0.47017198  0.03182604  0.19570442  1
  S  S18  1  0.94068403  0.96543097  0.81467203  1
  S  S19  1  0.06548060  0.00738118  0.20916872  1
  S  S20  1  0.42055694  0.99156575  0.99490065  1
  S  S21  1  0.59283679  0.03383032  0.02517550  1
  S  S22  1  0.19477090  0.93858808  0.91937682  1
  S  S23  1  0.84105689  0.02782741  0.11713380  1
  S  S24  1  0.09964596  0.52138606  0.67050332  1
  S  S25  1  0.89771878  0.52826312  0.35090628  1
  S  S26  1  0.74028147  0.91658442  0.31014089  1
  S  S27  1  0.26615202  0.98776409  0.68988167  1
  S  S28  1  0.16296247  0.46879907  0.44872677  1
  S  S29  1  0.83890314  0.47667897  0.55498994  1
  S  S30  1  0.45461788  0.49039210  0.83829664  1
  S  S31  1  0.58679462  0.51421799  0.22205980  1
  S  S32  1  0.92827855  0.46403677  0.00043741  1
  S  S33  1  0.08767645  0.50813154  0.01055546  1
  S  S34  1  0.67032913  0.44250999  0.89451615  1
  S  S35  1  0.34973850  0.46666596  0.11011690  1
  S  S36  1  0.61014260  0.92809773  0.66295803  1
  S  S37  1  0.41524961  0.00613227  0.34856456  1
  S  S38  1  0.24078985  0.50036675  0.29260320  1
  S  S39  1  0.77026979  0.51325056  0.69262069  1
  S  S40  1  0.67842704  0.91770306  0.46082370  1
  S  S41  1  0.32764686  0.06453364  0.54294864  1
