# generated using pymatgen
data_Pr2Mn3(SbS3)4
_symmetry_space_group_name_H-M   'P 1'
_cell_length_a   20.02960800
_cell_length_b   3.90410600
_cell_length_c   14.95364829
_cell_angle_alpha   90.00000000
_cell_angle_beta   126.33350609
_cell_angle_gamma   90.00000000
_symmetry_Int_Tables_number   1
_chemical_formula_structural   Pr2Mn3(SbS3)4
_chemical_formula_sum   'Pr4 Mn6 Sb8 S24'
_cell_volume   942.00006694
_cell_formula_units_Z   2
loop_
 _symmetry_equiv_pos_site_id
 _symmetry_equiv_pos_as_xyz
  1  'x, y, z'
loop_
 _atom_site_type_symbol
 _atom_site_label
 _atom_site_symmetry_multiplicity
 _atom_site_fract_x
 _atom_site_fract_y
 _atom_site_fract_z
 _atom_site_occupancy
  Pr  Pr0  1  0.26567455  0.45968493  0.86862581  1
  Pr  Pr1  1  0.73069822  0.55741392  0.13666206  1
  Pr  Pr2  1  0.77900629  0.98124216  0.87276702  1
  Pr  Pr3  1  0.22854397  0.02315611  0.12719672  1
  Mn  Mn4  1  0.28446548  0.57382886  0.58416447  1
  Mn  Mn5  1  0.70634336  0.44736183  0.39567929  1
  Mn  Mn6  1  0.99925583  0.95425772  0.99799258  1
  Mn  Mn7  1  0.79822860  0.00225468  0.61083586  1
  Mn  Mn8  1  0.18640456  0.97185239  0.40111448  1
  Mn  Mn9  1  0.51754893  0.54483444  0.02039464  1
  Sb  Sb10  1  0.89800260  0.03298600  0.46000983  1
  Sb  Sb11  1  0.11546617  0.99380762  0.55617307  1
  Sb  Sb12  1  0.03509965  0.50032588  0.80946373  1
  Sb  Sb13  1  0.96866632  0.49554265  0.19852788  1
  Sb  Sb14  1  0.39544652  0.49411058  0.45164260  1
  Sb  Sb15  1  0.61873760  0.43597033  0.55687474  1
  Sb  Sb16  1  0.52795586  0.99170036  0.81733956  1
  Sb  Sb17  1  0.47022803  0.03200903  0.19561997  1
  S  S18  1  0.94051142  0.96472856  0.81426920  1
  S  S19  1  0.06541404  0.00719859  0.20903659  1
  S  S20  1  0.42032842  0.99136587  0.99454280  1
  S  S21  1  0.59253789  0.03405188  0.02550110  1
  S  S22  1  0.19461701  0.93839879  0.91930353  1
  S  S23  1  0.84090725  0.02936214  0.11729604  1
  S  S24  1  0.09960420  0.52199217  0.67031936  1
  S  S25  1  0.89803152  0.52873966  0.35112538  1
  S  S26  1  0.74057500  0.91616281  0.31043688  1
  S  S27  1  0.26590196  0.98608309  0.68986826  1
  S  S28  1  0.16313346  0.46952385  0.44904149  1
  S  S29  1  0.83923157  0.47697875  0.55519044  1
  S  S30  1  0.45483645  0.49003795  0.83874313  1
  S  S31  1  0.58687461  0.51339834  0.22194739  1
  S  S32  1  0.92824093  0.46358568  0.00056377  1
  S  S33  1  0.08783499  0.50782784  0.01067832  1
  S  S34  1  0.67012847  0.44434720  0.89425099  1
  S  S35  1  0.34944672  0.46670754  0.10974221  1
  S  S36  1  0.61005510  0.92829036  0.66307563  1
  S  S37  1  0.41531576  0.00589224  0.34835404  1
  S  S38  1  0.24088335  0.50082391  0.29310772  1
  S  S39  1  0.77041435  0.51349370  0.69277097  1
  S  S40  1  0.67829038  0.91611667  0.46044023  1
  S  S41  1  0.32743888  0.06340933  0.54278972  1
