# generated using pymatgen
data_Pr2Mn3(SbS3)4
_symmetry_space_group_name_H-M   'P 1'
_cell_length_a   20.02960800
_cell_length_b   3.90410600
_cell_length_c   14.95364829
_cell_angle_alpha   90.00000000
_cell_angle_beta   126.33350609
_cell_angle_gamma   90.00000000
_symmetry_Int_Tables_number   1
_chemical_formula_structural   Pr2Mn3(SbS3)4
_chemical_formula_sum   'Pr4 Mn6 Sb8 S24'
_cell_volume   942.00006694
_cell_formula_units_Z   2
loop_
 _symmetry_equiv_pos_site_id
 _symmetry_equiv_pos_as_xyz
  1  'x, y, z'
loop_
 _atom_site_type_symbol
 _atom_site_label
 _atom_site_symmetry_multiplicity
 _atom_site_fract_x
 _atom_site_fract_y
 _atom_site_fract_z
 _atom_site_occupancy
  Pr  Pr0  1  0.26559125  0.46029951  0.86858119  1
  Pr  Pr1  1  0.73071330  0.55713333  0.13672000  1
  Pr  Pr2  1  0.77914700  0.98154264  0.87304751  1
  Pr  Pr3  1  0.22871576  0.02285830  0.12721185  1
  Mn  Mn4  1  0.28446998  0.57402340  0.58429476  1
  Mn  Mn5  1  0.70617157  0.44755210  0.39553150  1
  Mn  Mn6  1  0.99920823  0.95399453  0.99829805  1
  Mn  Mn7  1  0.79816984  0.00092693  0.61068945  1
  Mn  Mn8  1  0.18628265  0.96977756  0.40070371  1
  Mn  Mn9  1  0.51729663  0.54425128  0.02022131  1
  Sb  Sb10  1  0.89817984  0.03322286  0.46017459  1
  Sb  Sb11  1  0.11531726  0.99314680  0.55602972  1
  Sb  Sb12  1  0.03501786  0.49967947  0.80945787  1
  Sb  Sb13  1  0.96878051  0.49557557  0.19867225  1
  Sb  Sb14  1  0.39555119  0.49407643  0.45148495  1
  Sb  Sb15  1  0.61882483  0.43641927  0.55709967  1
  Sb  Sb16  1  0.52794099  0.99155598  0.81731047  1
  Sb  Sb17  1  0.47031520  0.03225583  0.19544729  1
  S  S18  1  0.94039964  0.96380621  0.81409596  1
  S  S19  1  0.06525633  0.00745743  0.20895157  1
  S  S20  1  0.42021257  0.99104727  0.99431877  1
  S  S21  1  0.59224765  0.03438018  0.02581556  1
  S  S22  1  0.19450788  0.93814772  0.91908752  1
  S  S23  1  0.84067624  0.03074723  0.11743840  1
  S  S24  1  0.09953739  0.52218866  0.67009423  1
  S  S25  1  0.89826318  0.52941138  0.35116032  1
  S  S26  1  0.74081433  0.91590929  0.31070363  1
  S  S27  1  0.26570094  0.98445071  0.68990497  1
  S  S28  1  0.16316357  0.47012578  0.44933096  1
  S  S29  1  0.83950991  0.47735671  0.55528121  1
  S  S30  1  0.45510091  0.48960908  0.83911664  1
  S  S31  1  0.58691916  0.51308891  0.22176197  1
  S  S32  1  0.92821549  0.46307352  0.00063345  1
  S  S33  1  0.08798534  0.50761910  0.01094374  1
  S  S34  1  0.66979984  0.44570509  0.89400632  1
  S  S35  1  0.34916243  0.46660992  0.10939665  1
  S  S36  1  0.60999003  0.92846140  0.66318029  1
  S  S37  1  0.41529752  0.00583826  0.34828199  1
  S  S38  1  0.24110834  0.50205203  0.29369051  1
  S  S39  1  0.77040299  0.51376604  0.69287773  1
  S  S40  1  0.67825045  0.91480320  0.46008029  1
  S  S41  1  0.32740102  0.06249799  0.54263365  1
