# generated using pymatgen
data_Pr2Mn3(SbS3)4
_symmetry_space_group_name_H-M   'P 1'
_cell_length_a   20.02960800
_cell_length_b   3.90410600
_cell_length_c   14.95364829
_cell_angle_alpha   90.00000000
_cell_angle_beta   126.33350609
_cell_angle_gamma   90.00000000
_symmetry_Int_Tables_number   1
_chemical_formula_structural   Pr2Mn3(SbS3)4
_chemical_formula_sum   'Pr4 Mn6 Sb8 S24'
_cell_volume   942.00006694
_cell_formula_units_Z   2
loop_
 _symmetry_equiv_pos_site_id
 _symmetry_equiv_pos_as_xyz
  1  'x, y, z'
loop_
 _atom_site_type_symbol
 _atom_site_label
 _atom_site_symmetry_multiplicity
 _atom_site_fract_x
 _atom_site_fract_y
 _atom_site_fract_z
 _atom_site_occupancy
  Pr  Pr0  1  0.26544176  0.46069033  0.86850326  1
  Pr  Pr1  1  0.73068542  0.55663786  0.13681606  1
  Pr  Pr2  1  0.77927745  0.98203394  0.87339838  1
  Pr  Pr3  1  0.22893188  0.02270904  0.12728300  1
  Mn  Mn4  1  0.28457226  0.57393446  0.58451485  1
  Mn  Mn5  1  0.70592263  0.44753918  0.39529104  1
  Mn  Mn6  1  0.99917653  0.95406174  0.99860912  1
  Mn  Mn7  1  0.79798353  0.99996283  0.61052380  1
  Mn  Mn8  1  0.18607412  0.96823615  0.40035522  1
  Mn  Mn9  1  0.51716555  0.54354217  0.02023574  1
  Sb  Sb10  1  0.89842255  0.03356449  0.46035815  1
  Sb  Sb11  1  0.11514198  0.99269928  0.55584271  1
  Sb  Sb12  1  0.03482957  0.49919411  0.80933284  1
  Sb  Sb13  1  0.96891564  0.49556422  0.19883296  1
  Sb  Sb14  1  0.39574136  0.49410420  0.45138613  1
  Sb  Sb15  1  0.61887085  0.43730584  0.55726092  1
  Sb  Sb16  1  0.52790508  0.99124037  0.81728358  1
  Sb  Sb17  1  0.47037318  0.03223838  0.19527199  1
  S  S18  1  0.94024088  0.96316981  0.81394363  1
  S  S19  1  0.06506719  0.00831799  0.20878557  1
  S  S20  1  0.42006754  0.99002943  0.99428684  1
  S  S21  1  0.59206434  0.03486678  0.02625158  1
  S  S22  1  0.19431172  0.93821375  0.91861427  1
  S  S23  1  0.84040739  0.03215315  0.11746832  1
  S  S24  1  0.09947925  0.52251483  0.66993865  1
  S  S25  1  0.89857980  0.52975808  0.35120880  1
  S  S26  1  0.74112277  0.91557756  0.31102098  1
  S  S27  1  0.26545442  0.98308887  0.68983744  1
  S  S28  1  0.16310576  0.47173912  0.44945669  1
  S  S29  1  0.83984611  0.47767971  0.55544224  1
  S  S30  1  0.45543684  0.48928144  0.83960004  1
  S  S31  1  0.58703910  0.51212228  0.22174295  1
  S  S32  1  0.92817766  0.46248398  0.00073023  1
  S  S33  1  0.08804607  0.50722492  0.01105244  1
  S  S34  1  0.66940650  0.44695296  0.89369583  1
  S  S35  1  0.34884145  0.46689367  0.10907182  1
  S  S36  1  0.60987781  0.92826250  0.66349341  1
  S  S37  1  0.41497029  0.00598494  0.34774037  1
  S  S38  1  0.24138998  0.50378511  0.29403610  1
  S  S39  1  0.77043070  0.51402789  0.69293901  1
  S  S40  1  0.67831357  0.91382753  0.45987447  1
  S  S41  1  0.32745228  0.06142879  0.54247325  1
