# generated using pymatgen
data_Pr2Mn3(SbS3)4
_symmetry_space_group_name_H-M   'P 1'
_cell_length_a   20.02960800
_cell_length_b   3.90410600
_cell_length_c   14.95364829
_cell_angle_alpha   90.00000000
_cell_angle_beta   126.33350609
_cell_angle_gamma   90.00000000
_symmetry_Int_Tables_number   1
_chemical_formula_structural   Pr2Mn3(SbS3)4
_chemical_formula_sum   'Pr4 Mn6 Sb8 S24'
_cell_volume   942.00006694
_cell_formula_units_Z   2
loop_
 _symmetry_equiv_pos_site_id
 _symmetry_equiv_pos_as_xyz
  1  'x, y, z'
loop_
 _atom_site_type_symbol
 _atom_site_label
 _atom_site_symmetry_multiplicity
 _atom_site_fract_x
 _atom_site_fract_y
 _atom_site_fract_z
 _atom_site_occupancy
  Pr  Pr0  1  0.26529478  0.46110575  0.86833720  1
  Pr  Pr1  1  0.73066421  0.55615202  0.13693523  1
  Pr  Pr2  1  0.77936924  0.98251617  0.87366682  1
  Pr  Pr3  1  0.22920282  0.02233253  0.12733934  1
  Mn  Mn4  1  0.28470390  0.57420029  0.58481472  1
  Mn  Mn5  1  0.70559381  0.44754664  0.39497404  1
  Mn  Mn6  1  0.99912936  0.95427623  0.99899346  1
  Mn  Mn7  1  0.79788261  0.99898379  0.61051223  1
  Mn  Mn8  1  0.18590895  0.96708613  0.39992686  1
  Mn  Mn9  1  0.51708988  0.54282820  0.02026813  1
  Sb  Sb10  1  0.89865847  0.03373612  0.46048187  1
  Sb  Sb11  1  0.11501356  0.99244957  0.55578029  1
  Sb  Sb12  1  0.03457321  0.49820398  0.80910751  1
  Sb  Sb13  1  0.96903918  0.49560914  0.19900191  1
  Sb  Sb14  1  0.39582688  0.49419578  0.45119584  1
  Sb  Sb15  1  0.61895659  0.43777106  0.55746096  1
  Sb  Sb16  1  0.52784394  0.99084335  0.81723322  1
  Sb  Sb17  1  0.47045624  0.03233065  0.19505269  1
  S  S18  1  0.94012720  0.96271492  0.81379571  1
  S  S19  1  0.06483842  0.00884060  0.20851367  1
  S  S20  1  0.41990955  0.98824240  0.99437786  1
  S  S21  1  0.59185878  0.03575593  0.02660889  1
  S  S22  1  0.19418875  0.93822211  0.91809102  1
  S  S23  1  0.84022770  0.03281355  0.11746629  1
  S  S24  1  0.09930204  0.52300973  0.66968384  1
  S  S25  1  0.89879324  0.52937115  0.35109222  1
  S  S26  1  0.74141906  0.91497244  0.31153183  1
  S  S27  1  0.26517158  0.98228340  0.68967653  1
  S  S28  1  0.16279997  0.47275574  0.44928103  1
  S  S29  1  0.84011429  0.47846640  0.55569315  1
  S  S30  1  0.45580836  0.48923960  0.84021237  1
  S  S31  1  0.58697669  0.51065706  0.22178574  1
  S  S32  1  0.92812698  0.46226443  0.00099224  1
  S  S33  1  0.08804677  0.50721389  0.01092964  1
  S  S34  1  0.66920023  0.44788138  0.89361116  1
  S  S35  1  0.34857738  0.46657396  0.10869372  1
  S  S36  1  0.60973907  0.92815151  0.66393530  1
  S  S37  1  0.41457737  0.00624243  0.34730335  1
  S  S38  1  0.24164641  0.50491921  0.29446862  1
  S  S39  1  0.77060011  0.51441558  0.69327707  1
  S  S40  1  0.67835938  0.91275808  0.45969402  1
  S  S41  1  0.32752351  0.05975629  0.54244674  1
