# generated using pymatgen
data_Pr2Mn3(SbS3)4
_symmetry_space_group_name_H-M   'P 1'
_cell_length_a   20.02960800
_cell_length_b   3.90410600
_cell_length_c   14.95364829
_cell_angle_alpha   90.00000000
_cell_angle_beta   126.33350609
_cell_angle_gamma   90.00000000
_symmetry_Int_Tables_number   1
_chemical_formula_structural   Pr2Mn3(SbS3)4
_chemical_formula_sum   'Pr4 Mn6 Sb8 S24'
_cell_volume   942.00006694
_cell_formula_units_Z   2
loop_
 _symmetry_equiv_pos_site_id
 _symmetry_equiv_pos_as_xyz
  1  'x, y, z'
loop_
 _atom_site_type_symbol
 _atom_site_label
 _atom_site_symmetry_multiplicity
 _atom_site_fract_x
 _atom_site_fract_y
 _atom_site_fract_z
 _atom_site_occupancy
  Pr  Pr0  1  0.26508772  0.46122600  0.86814982  1
  Pr  Pr1  1  0.73064143  0.55578124  0.13709642  1
  Pr  Pr2  1  0.77934644  0.98291451  0.87374653  1
  Pr  Pr3  1  0.22942099  0.02179547  0.12741139  1
  Mn  Mn4  1  0.28489554  0.57447281  0.58507458  1
  Mn  Mn5  1  0.70521458  0.44722879  0.39469630  1
  Mn  Mn6  1  0.99901336  0.95445771  0.99930914  1
  Mn  Mn7  1  0.79780393  0.99862556  0.61052377  1
  Mn  Mn8  1  0.18567932  0.96602154  0.39936302  1
  Mn  Mn9  1  0.51716093  0.54141528  0.02044060  1
  Sb  Sb10  1  0.89881989  0.03383900  0.46042270  1
  Sb  Sb11  1  0.11494611  0.99239681  0.55572896  1
  Sb  Sb12  1  0.03431244  0.49732663  0.80887165  1
  Sb  Sb13  1  0.96912200  0.49580777  0.19917408  1
  Sb  Sb14  1  0.39590267  0.49433660  0.45093656  1
  Sb  Sb15  1  0.61906136  0.43810366  0.55760248  1
  Sb  Sb16  1  0.52782685  0.99037716  0.81722584  1
  Sb  Sb17  1  0.47045127  0.03225433  0.19476107  1
  S  S18  1  0.93989867  0.96285532  0.81352192  1
  S  S19  1  0.06449715  0.00942502  0.20790195  1
  S  S20  1  0.41979913  0.98669485  0.99445014  1
  S  S21  1  0.59166270  0.03627120  0.02694788  1
  S  S22  1  0.19407310  0.93787461  0.91756517  1
  S  S23  1  0.84013121  0.03365594  0.11744221  1
  S  S24  1  0.09902679  0.52317436  0.66959089  1
  S  S25  1  0.89893241  0.52858323  0.35094775  1
  S  S26  1  0.74163999  0.91457612  0.31203567  1
  S  S27  1  0.26498706  0.98164545  0.68963364  1
  S  S28  1  0.16234091  0.47371752  0.44889837  1
  S  S29  1  0.84035987  0.47834256  0.55583549  1
  S  S30  1  0.45621112  0.48975889  0.84073590  1
  S  S31  1  0.58676971  0.50877362  0.22191071  1
  S  S32  1  0.92790134  0.46203659  0.00118223  1
  S  S33  1  0.08792607  0.50699176  0.01064627  1
  S  S34  1  0.66906436  0.44865566  0.89355202  1
  S  S35  1  0.34835689  0.46589502  0.10811152  1
  S  S36  1  0.60961683  0.92802738  0.66443663  1
  S  S37  1  0.41414536  0.00633453  0.34687910  1
  S  S38  1  0.24203616  0.50619343  0.29487379  1
  S  S39  1  0.77089066  0.51551479  0.69368191  1
  S  S40  1  0.67830945  0.91245658  0.45933810  1
  S  S41  1  0.32751132  0.05753621  0.54238765  1
