# generated using pymatgen
data_Pr2Mn3(SbS3)4
_symmetry_space_group_name_H-M   'P 1'
_cell_length_a   20.02960800
_cell_length_b   3.90410600
_cell_length_c   14.95364829
_cell_angle_alpha   90.00000000
_cell_angle_beta   126.33350609
_cell_angle_gamma   90.00000000
_symmetry_Int_Tables_number   1
_chemical_formula_structural   Pr2Mn3(SbS3)4
_chemical_formula_sum   'Pr4 Mn6 Sb8 S24'
_cell_volume   942.00006694
_cell_formula_units_Z   2
loop_
 _symmetry_equiv_pos_site_id
 _symmetry_equiv_pos_as_xyz
  1  'x, y, z'
loop_
 _atom_site_type_symbol
 _atom_site_label
 _atom_site_symmetry_multiplicity
 _atom_site_fract_x
 _atom_site_fract_y
 _atom_site_fract_z
 _atom_site_occupancy
  Pr  Pr0  1  0.26491644  0.46120527  0.86795214  1
  Pr  Pr1  1  0.73066834  0.55563593  0.13727583  1
  Pr  Pr2  1  0.77935057  0.98353132  0.87378777  1
  Pr  Pr3  1  0.22959828  0.02146467  0.12748424  1
  Mn  Mn4  1  0.28497055  0.57444962  0.58512633  1
  Mn  Mn5  1  0.70504461  0.44718145  0.39461931  1
  Mn  Mn6  1  0.99879746  0.95452695  0.99948181  1
  Mn  Mn7  1  0.79772942  0.99810461  0.61057263  1
  Mn  Mn8  1  0.18551506  0.96535164  0.39885358  1
  Mn  Mn9  1  0.51733941  0.53993383  0.02077937  1
  Sb  Sb10  1  0.89898210  0.03366549  0.46046330  1
  Sb  Sb11  1  0.11490445  0.99225157  0.55566145  1
  Sb  Sb12  1  0.03405201  0.49642696  0.80861639  1
  Sb  Sb13  1  0.96926781  0.49615745  0.19932790  1
  Sb  Sb14  1  0.39584313  0.49443984  0.45075584  1
  Sb  Sb15  1  0.61923339  0.43861057  0.55779844  1
  Sb  Sb16  1  0.52779948  0.98989032  0.81721907  1
  Sb  Sb17  1  0.47040884  0.03249188  0.19449887  1
  S  S18  1  0.93960629  0.96346441  0.81315459  1
  S  S19  1  0.06430660  0.00990142  0.20738375  1
  S  S20  1  0.41968963  0.98488332  0.99449523  1
  S  S21  1  0.59166313  0.03692055  0.02736203  1
  S  S22  1  0.19402763  0.93750872  0.91712562  1
  S  S23  1  0.83999115  0.03416487  0.11742026  1
  S  S24  1  0.09874109  0.52335066  0.66950928  1
  S  S25  1  0.89899280  0.52809801  0.35081409  1
  S  S26  1  0.74181397  0.91341202  0.31253930  1
  S  S27  1  0.26490917  0.98148128  0.68963940  1
  S  S28  1  0.16186633  0.47524483  0.44840165  1
  S  S29  1  0.84061689  0.47786873  0.55617859  1
  S  S30  1  0.45659458  0.48917901  0.84129685  1
  S  S31  1  0.58651200  0.50797022  0.22197121  1
  S  S32  1  0.92769584  0.46237459  0.00131086  1
  S  S33  1  0.08776970  0.50639086  0.01046501  1
  S  S34  1  0.66898398  0.44955902  0.89348350  1
  S  S35  1  0.34804639  0.46512193  0.10744839  1
  S  S36  1  0.60954080  0.92800909  0.66496681  1
  S  S37  1  0.41372730  0.00617742  0.34631444  1
  S  S38  1  0.24238329  0.50762895  0.29521718  1
  S  S39  1  0.77108873  0.51620349  0.69404938  1
  S  S40  1  0.67812558  0.91243651  0.45889684  1
  S  S41  1  0.32738851  0.05545754  0.54238706  1
