# generated using pymatgen
data_Pr2Mn3(SbS3)4
_symmetry_space_group_name_H-M   'P 1'
_cell_length_a   20.02960800
_cell_length_b   3.90410600
_cell_length_c   14.95364829
_cell_angle_alpha   90.00000000
_cell_angle_beta   126.33350609
_cell_angle_gamma   90.00000000
_symmetry_Int_Tables_number   1
_chemical_formula_structural   Pr2Mn3(SbS3)4
_chemical_formula_sum   'Pr4 Mn6 Sb8 S24'
_cell_volume   942.00006694
_cell_formula_units_Z   2
loop_
 _symmetry_equiv_pos_site_id
 _symmetry_equiv_pos_as_xyz
  1  'x, y, z'
loop_
 _atom_site_type_symbol
 _atom_site_label
 _atom_site_symmetry_multiplicity
 _atom_site_fract_x
 _atom_site_fract_y
 _atom_site_fract_z
 _atom_site_occupancy
  Pr  Pr0  1  0.26472706  0.46114901  0.86774733  1
  Pr  Pr1  1  0.73077469  0.55575089  0.13742940  1
  Pr  Pr2  1  0.77930284  0.98399324  0.87377271  1
  Pr  Pr3  1  0.22966487  0.02130404  0.12748037  1
  Mn  Mn4  1  0.28501258  0.57377242  0.58502238  1
  Mn  Mn5  1  0.70484764  0.44723345  0.39452415  1
  Mn  Mn6  1  0.99868602  0.95492900  0.99972955  1
  Mn  Mn7  1  0.79769013  0.99751638  0.61068658  1
  Mn  Mn8  1  0.18545629  0.96451337  0.39841862  1
  Mn  Mn9  1  0.51750595  0.53838056  0.02109062  1
  Sb  Sb10  1  0.89912528  0.03312528  0.46057170  1
  Sb  Sb11  1  0.11493060  0.99246439  0.55569669  1
  Sb  Sb12  1  0.03373654  0.49556231  0.80825528  1
  Sb  Sb13  1  0.96941028  0.49657825  0.19950981  1
  Sb  Sb14  1  0.39575031  0.49473438  0.45055334  1
  Sb  Sb15  1  0.61943150  0.43926966  0.55793782  1
  Sb  Sb16  1  0.52779295  0.98929766  0.81717515  1
  Sb  Sb17  1  0.47039604  0.03248248  0.19446832  1
  S  S18  1  0.93938446  0.96329516  0.81273556  1
  S  S19  1  0.06414678  0.00979069  0.20693177  1
  S  S20  1  0.41967623  0.98306151  0.99455729  1
  S  S21  1  0.59180313  0.03672598  0.02778438  1
  S  S22  1  0.19381756  0.93678619  0.91660943  1
  S  S23  1  0.83975953  0.03413020  0.11753929  1
  S  S24  1  0.09848148  0.52312078  0.66951425  1
  S  S25  1  0.89911721  0.52751471  0.35065133  1
  S  S26  1  0.74197441  0.91235775  0.31305427  1
  S  S27  1  0.26475182  0.98129627  0.68947740  1
  S  S28  1  0.16148914  0.47643536  0.44784857  1
  S  S29  1  0.84091110  0.47687759  0.55664672  1
  S  S30  1  0.45707751  0.48898793  0.84198312  1
  S  S31  1  0.58623013  0.50709510  0.22199020  1
  S  S32  1  0.92757246  0.46263406  0.00139323  1
  S  S33  1  0.08758292  0.50571169  0.01035550  1
  S  S34  1  0.66884218  0.45057509  0.89350291  1
  S  S35  1  0.34768201  0.46418793  0.10693443  1
  S  S36  1  0.60956519  0.92916696  0.66546824  1
  S  S37  1  0.41332649  0.00603216  0.34588324  1
  S  S38  1  0.24269584  0.50904879  0.29533279  1
  S  S39  1  0.77136079  0.51678148  0.69456706  1
  S  S40  1  0.67793852  0.91289196  0.45834468  1
  S  S41  1  0.32724137  0.05340891  0.54228284  1
