# generated using pymatgen
data_Pr2Mn3(SbS3)4
_symmetry_space_group_name_H-M   'P 1'
_cell_length_a   20.02960800
_cell_length_b   3.90410600
_cell_length_c   14.95364829
_cell_angle_alpha   90.00000000
_cell_angle_beta   126.33350609
_cell_angle_gamma   90.00000000
_symmetry_Int_Tables_number   1
_chemical_formula_structural   Pr2Mn3(SbS3)4
_chemical_formula_sum   'Pr4 Mn6 Sb8 S24'
_cell_volume   942.00006694
_cell_formula_units_Z   2
loop_
 _symmetry_equiv_pos_site_id
 _symmetry_equiv_pos_as_xyz
  1  'x, y, z'
loop_
 _atom_site_type_symbol
 _atom_site_label
 _atom_site_symmetry_multiplicity
 _atom_site_fract_x
 _atom_site_fract_y
 _atom_site_fract_z
 _atom_site_occupancy
  Pr  Pr0  1  0.26459364  0.46127323  0.86764177  1
  Pr  Pr1  1  0.73090665  0.55575168  0.13757819  1
  Pr  Pr2  1  0.77934801  0.98435566  0.87376814  1
  Pr  Pr3  1  0.22972314  0.02127549  0.12745842  1
  Mn  Mn4  1  0.28503819  0.57284572  0.58497847  1
  Mn  Mn5  1  0.70478807  0.44748581  0.39456073  1
  Mn  Mn6  1  0.99860496  0.95535204  0.99997978  1
  Mn  Mn7  1  0.79758975  0.99644461  0.61069371  1
  Mn  Mn8  1  0.18544974  0.96412568  0.39803831  1
  Mn  Mn9  1  0.51768094  0.53729211  0.02143192  1
  Sb  Sb10  1  0.89930750  0.03304414  0.46080674  1
  Sb  Sb11  1  0.11497364  0.99270449  0.55580150  1
  Sb  Sb12  1  0.03342491  0.49466332  0.80787064  1
  Sb  Sb13  1  0.96952309  0.49701421  0.19966669  1
  Sb  Sb14  1  0.39567472  0.49527843  0.45033858  1
  Sb  Sb15  1  0.61970345  0.43979902  0.55810936  1
  Sb  Sb16  1  0.52781622  0.98863238  0.81713214  1
  Sb  Sb17  1  0.47040762  0.03241815  0.19442128  1
  S  S18  1  0.93916208  0.96312939  0.81234566  1
  S  S19  1  0.06404166  0.00967518  0.20681738  1
  S  S20  1  0.41988000  0.98157023  0.99470160  1
  S  S21  1  0.59197910  0.03624935  0.02807554  1
  S  S22  1  0.19369452  0.93547742  0.91617356  1
  S  S23  1  0.83958751  0.03410593  0.11772521  1
  S  S24  1  0.09824570  0.52379143  0.66948243  1
  S  S25  1  0.89927582  0.52641462  0.35067563  1
  S  S26  1  0.74207412  0.91147758  0.31356609  1
  S  S27  1  0.26455160  0.98060082  0.68947033  1
  S  S28  1  0.16106780  0.47759245  0.44725378  1
  S  S29  1  0.84111098  0.47652082  0.55696211  1
  S  S30  1  0.45756132  0.48884673  0.84295172  1
  S  S31  1  0.58594410  0.50622335  0.22212503  1
  S  S32  1  0.92735014  0.46289266  0.00130420  1
  S  S33  1  0.08742786  0.50528900  0.01035334  1
  S  S34  1  0.66874171  0.45105159  0.89356249  1
  S  S35  1  0.34736915  0.46344758  0.10649345  1
  S  S36  1  0.60951785  0.92977790  0.66586265  1
  S  S37  1  0.41318114  0.00551409  0.34577370  1
  S  S38  1  0.24300423  0.51018632  0.29531958  1
  S  S39  1  0.77155596  0.51753511  0.69524446  1
  S  S40  1  0.67766975  0.91305402  0.45788294  1
  S  S41  1  0.32694207  0.05115820  0.54204642  1
