# generated using pymatgen
data_Pr2Mn3(SbS3)4
_symmetry_space_group_name_H-M   'P 1'
_cell_length_a   20.02960800
_cell_length_b   3.90410600
_cell_length_c   14.95364829
_cell_angle_alpha   90.00000000
_cell_angle_beta   126.33350609
_cell_angle_gamma   90.00000000
_symmetry_Int_Tables_number   1
_chemical_formula_structural   Pr2Mn3(SbS3)4
_chemical_formula_sum   'Pr4 Mn6 Sb8 S24'
_cell_volume   942.00006694
_cell_formula_units_Z   2
loop_
 _symmetry_equiv_pos_site_id
 _symmetry_equiv_pos_as_xyz
  1  'x, y, z'
loop_
 _atom_site_type_symbol
 _atom_site_label
 _atom_site_symmetry_multiplicity
 _atom_site_fract_x
 _atom_site_fract_y
 _atom_site_fract_z
 _atom_site_occupancy
  Pr  Pr0  1  0.26967245  0.50644998  0.87034485  1
  Pr  Pr1  1  0.73470651  0.51389738  0.13501132  1
  Pr  Pr2  1  0.76433452  0.03222406  0.86896904  1
  Pr  Pr3  1  0.22902258  0.97427169  0.12963711  1
  Mn  Mn4  1  0.29995709  0.46632702  0.60942218  1
  Mn  Mn5  1  0.68630006  0.46591054  0.36578202  1
  Mn  Mn6  1  0.00098216  0.98393886  0.00851625  1
  Mn  Mn7  1  0.79197840  0.02962563  0.61428737  1
  Mn  Mn8  1  0.19724930  0.01371470  0.36950644  1
  Mn  Mn9  1  0.48139380  0.47055512  0.98175753  1
  Sb  Sb10  1  0.89018442  0.97985702  0.44754349  1
  Sb  Sb11  1  0.11204883  0.97930876  0.54749732  1
  Sb  Sb12  1  0.03788670  0.52684322  0.82500343  1
  Sb  Sb13  1  0.96879324  0.48709670  0.19233937  1
  Sb  Sb14  1  0.39746586  0.49788754  0.45345468  1
  Sb  Sb15  1  0.61176261  0.48234645  0.54763524  1
  Sb  Sb16  1  0.52968604  0.97117804  0.80453565  1
  Sb  Sb17  1  0.46539925  0.02647884  0.18565540  1
  S  S18  1  0.94173761  0.01672044  0.80996186  1
  S  S19  1  0.06628392  0.00219455  0.20471603  1
  S  S20  1  0.41720522  0.98135506  0.97780911  1
  S  S21  1  0.58667125  0.02022115  0.01005297  1
  S  S22  1  0.16203985  0.02831002  0.89738648  1
  S  S23  1  0.82727924  0.98805086  0.10329594  1
  S  S24  1  0.08536407  0.50172253  0.63533055  1
  S  S25  1  0.91565364  0.49081678  0.35280969  1
  S  S26  1  0.73488431  0.00765705  0.29466627  1
  S  S27  1  0.26041172  0.01472830  0.70448042  1
  S  S28  1  0.17027509  0.52115709  0.43819040  1
  S  S29  1  0.80932475  0.51612111  0.53893856  1
  S  S30  1  0.43417023  0.47836394  0.80271953  1
  S  S31  1  0.55444288  0.50143347  0.18093404  1
  S  S32  1  0.92243056  0.50785883  0.98741174  1
  S  S33  1  0.08921865  0.50075109  0.02593917  1
  S  S34  1  0.66761797  0.55680874  0.89570596  1
  S  S35  1  0.32958358  0.46051470  0.09990815  1
  S  S36  1  0.58906642  0.00229344  0.64702578  1
  S  S37  1  0.39350181  0.98734123  0.33287256  1
  S  S38  1  0.24716580  0.47592088  0.31639193  1
  S  S39  1  0.76383440  0.50464255  0.69193113  1
  S  S40  1  0.65816067  0.98477079  0.43739272  1
  S  S41  1  0.33022745  0.98840087  0.55244446  1
