# generated using pymatgen
data_Pr2Mn3(SbS3)4
_symmetry_space_group_name_H-M   'P 1'
_cell_length_a   20.02960800
_cell_length_b   3.90410600
_cell_length_c   14.95364829
_cell_angle_alpha   90.00000000
_cell_angle_beta   126.33350609
_cell_angle_gamma   90.00000000
_symmetry_Int_Tables_number   1
_chemical_formula_structural   Pr2Mn3(SbS3)4
_chemical_formula_sum   'Pr4 Mn6 Sb8 S24'
_cell_volume   942.00006694
_cell_formula_units_Z   2
loop_
 _symmetry_equiv_pos_site_id
 _symmetry_equiv_pos_as_xyz
  1  'x, y, z'
loop_
 _atom_site_type_symbol
 _atom_site_label
 _atom_site_symmetry_multiplicity
 _atom_site_fract_x
 _atom_site_fract_y
 _atom_site_fract_z
 _atom_site_occupancy
  Pr  Pr0  1  0.26439456  0.46126629  0.86752729  1
  Pr  Pr1  1  0.73107916  0.55566803  0.13767089  1
  Pr  Pr2  1  0.77940534  0.98463128  0.87366098  1
  Pr  Pr3  1  0.22978627  0.02153253  0.12744236  1
  Mn  Mn4  1  0.28505690  0.57205788  0.58511357  1
  Mn  Mn5  1  0.70482165  0.44776006  0.39482270  1
  Mn  Mn6  1  0.99849747  0.95568545  0.00021587  1
  Mn  Mn7  1  0.79743408  0.99570516  0.61055361  1
  Mn  Mn8  1  0.18544430  0.96396517  0.39773152  1
  Mn  Mn9  1  0.51778305  0.53646108  0.02164088  1
  Sb  Sb10  1  0.89947025  0.03309006  0.46106714  1
  Sb  Sb11  1  0.11494793  0.99273395  0.55582046  1
  Sb  Sb12  1  0.03316562  0.49435485  0.80753771  1
  Sb  Sb13  1  0.96965003  0.49747236  0.19979575  1
  Sb  Sb14  1  0.39560898  0.49636898  0.45014772  1
  Sb  Sb15  1  0.62001620  0.44016230  0.55830051  1
  Sb  Sb16  1  0.52780470  0.98748713  0.81705957  1
  Sb  Sb17  1  0.47045537  0.03202128  0.19440826  1
  S  S18  1  0.93909245  0.96331172  0.81206436  1
  S  S19  1  0.06390525  0.00912555  0.20675219  1
  S  S20  1  0.42011990  0.98019923  0.99499617  1
  S  S21  1  0.59231232  0.03560494  0.02858803  1
  S  S22  1  0.19371477  0.93503214  0.91591018  1
  S  S23  1  0.83934355  0.03503088  0.11777418  1
  S  S24  1  0.09803812  0.52404478  0.66951171  1
  S  S25  1  0.89945811  0.52570203  0.35069588  1
  S  S26  1  0.74203695  0.91060669  0.31395620  1
  S  S27  1  0.26437422  0.97920235  0.68950491  1
  S  S28  1  0.16065626  0.47821543  0.44678237  1
  S  S29  1  0.84132721  0.47598107  0.55722805  1
  S  S30  1  0.45801101  0.48871532  0.84375876  1
  S  S31  1  0.58569804  0.50473795  0.22226379  1
  S  S32  1  0.92715691  0.46378533  0.00130642  1
  S  S33  1  0.08743170  0.50584553  0.01048903  1
  S  S34  1  0.66864472  0.45159610  0.89370059  1
  S  S35  1  0.34686314  0.46320042  0.10605363  1
  S  S36  1  0.60945639  0.93075036  0.66601891  1
  S  S37  1  0.41302404  0.00475158  0.34560108  1
  S  S38  1  0.24321527  0.51120834  0.29531414  1
  S  S39  1  0.77183473  0.51812457  0.69593616  1
  S  S40  1  0.67738791  0.91343429  0.45735061  1
  S  S41  1  0.32662970  0.04960040  0.54184170  1
