# generated using pymatgen
data_Pr2Mn3(SbS3)4
_symmetry_space_group_name_H-M   'P 1'
_cell_length_a   20.02960800
_cell_length_b   3.90410600
_cell_length_c   14.95364829
_cell_angle_alpha   90.00000000
_cell_angle_beta   126.33350609
_cell_angle_gamma   90.00000000
_symmetry_Int_Tables_number   1
_chemical_formula_structural   Pr2Mn3(SbS3)4
_chemical_formula_sum   'Pr4 Mn6 Sb8 S24'
_cell_volume   942.00006694
_cell_formula_units_Z   2
loop_
 _symmetry_equiv_pos_site_id
 _symmetry_equiv_pos_as_xyz
  1  'x, y, z'
loop_
 _atom_site_type_symbol
 _atom_site_label
 _atom_site_symmetry_multiplicity
 _atom_site_fract_x
 _atom_site_fract_y
 _atom_site_fract_z
 _atom_site_occupancy
  Pr  Pr0  1  0.26418674  0.46127272  0.86748114  1
  Pr  Pr1  1  0.73131567  0.55542706  0.13776484  1
  Pr  Pr2  1  0.77953260  0.98470314  0.87364062  1
  Pr  Pr3  1  0.22986238  0.02169544  0.12751072  1
  Mn  Mn4  1  0.28518372  0.57150674  0.58532533  1
  Mn  Mn5  1  0.70493488  0.44797888  0.39525389  1
  Mn  Mn6  1  0.99846806  0.95630818  0.00049660  1
  Mn  Mn7  1  0.79731667  0.99512336  0.61040655  1
  Mn  Mn8  1  0.18546258  0.96441063  0.39759820  1
  Mn  Mn9  1  0.51793796  0.53595705  0.02210584  1
  Sb  Sb10  1  0.89966528  0.03339671  0.46132756  1
  Sb  Sb11  1  0.11479757  0.99296695  0.55575754  1
  Sb  Sb12  1  0.03290774  0.49441153  0.80724813  1
  Sb  Sb13  1  0.96974675  0.49799852  0.19987715  1
  Sb  Sb14  1  0.39553682  0.49709844  0.44997039  1
  Sb  Sb15  1  0.62028755  0.44050498  0.55847250  1
  Sb  Sb16  1  0.52779692  0.98633529  0.81700251  1
  Sb  Sb17  1  0.47046745  0.03191476  0.19436645  1
  S  S18  1  0.93908253  0.96319913  0.81186251  1
  S  S19  1  0.06375580  0.00872649  0.20656035  1
  S  S20  1  0.42019368  0.97878589  0.99499795  1
  S  S21  1  0.59252777  0.03529032  0.02890276  1
  S  S22  1  0.19362835  0.93452721  0.91563629  1
  S  S23  1  0.83900037  0.03581436  0.11781438  1
  S  S24  1  0.09781075  0.52478430  0.66931729  1
  S  S25  1  0.89959951  0.52425424  0.35065490  1
  S  S26  1  0.74201170  0.90994894  0.31436958  1
  S  S27  1  0.26442903  0.97807065  0.68955442  1
  S  S28  1  0.16009916  0.47859315  0.44630103  1
  S  S29  1  0.84146728  0.47506603  0.55736051  1
  S  S30  1  0.45849918  0.48871675  0.84453611  1
  S  S31  1  0.58539697  0.50364915  0.22206799  1
  S  S32  1  0.92701536  0.46474080  0.00144122  1
  S  S33  1  0.08744560  0.50609090  0.01049695  1
  S  S34  1  0.66871293  0.45174583  0.89388696  1
  S  S35  1  0.34636166  0.46268501  0.10562142  1
  S  S36  1  0.60933518  0.93179770  0.66618485  1
  S  S37  1  0.41260725  0.00426090  0.34537805  1
  S  S38  1  0.24350395  0.51178443  0.29539310  1
  S  S39  1  0.77202248  0.51855185  0.69647363  1
  S  S40  1  0.67724646  0.91426111  0.45695655  1
  S  S41  1  0.32624750  0.04883911  0.54159536  1
