# generated using pymatgen
data_Pr2Mn3(SbS3)4
_symmetry_space_group_name_H-M   'P 1'
_cell_length_a   20.02960800
_cell_length_b   3.90410600
_cell_length_c   14.95364829
_cell_angle_alpha   90.00000000
_cell_angle_beta   126.33350609
_cell_angle_gamma   90.00000000
_symmetry_Int_Tables_number   1
_chemical_formula_structural   Pr2Mn3(SbS3)4
_chemical_formula_sum   'Pr4 Mn6 Sb8 S24'
_cell_volume   942.00006694
_cell_formula_units_Z   2
loop_
 _symmetry_equiv_pos_site_id
 _symmetry_equiv_pos_as_xyz
  1  'x, y, z'
loop_
 _atom_site_type_symbol
 _atom_site_label
 _atom_site_symmetry_multiplicity
 _atom_site_fract_x
 _atom_site_fract_y
 _atom_site_fract_z
 _atom_site_occupancy
  Pr  Pr0  1  0.26398590  0.46135354  0.86748686  1
  Pr  Pr1  1  0.73151249  0.55527884  0.13769027  1
  Pr  Pr2  1  0.77952777  0.98475871  0.87355211  1
  Pr  Pr3  1  0.22995202  0.02173136  0.12766787  1
  Mn  Mn4  1  0.28519096  0.57078244  0.58538996  1
  Mn  Mn5  1  0.70504954  0.44828240  0.39565504  1
  Mn  Mn6  1  0.99838288  0.95708128  0.00063538  1
  Mn  Mn7  1  0.79723983  0.99476380  0.61045895  1
  Mn  Mn8  1  0.18542631  0.96500263  0.39728933  1
  Mn  Mn9  1  0.51802453  0.53536934  0.02253890  1
  Sb  Sb10  1  0.89984830  0.03389769  0.46157734  1
  Sb  Sb11  1  0.11459403  0.99306938  0.55576752  1
  Sb  Sb12  1  0.03268546  0.49436779  0.80687985  1
  Sb  Sb13  1  0.96987323  0.49827092  0.20009747  1
  Sb  Sb14  1  0.39546545  0.49779305  0.44980657  1
  Sb  Sb15  1  0.62054851  0.44091350  0.55865482  1
  Sb  Sb16  1  0.52778863  0.98519546  0.81697092  1
  Sb  Sb17  1  0.47044236  0.03197457  0.19429345  1
  S  S18  1  0.93912654  0.96364598  0.81176317  1
  S  S19  1  0.06349233  0.00885653  0.20624645  1
  S  S20  1  0.42028096  0.97753173  0.99520744  1
  S  S21  1  0.59267767  0.03556145  0.02909792  1
  S  S22  1  0.19342803  0.93358826  0.91538501  1
  S  S23  1  0.83857367  0.03600941  0.11748555  1
  S  S24  1  0.09752751  0.52583972  0.66907438  1
  S  S25  1  0.89982882  0.52331225  0.35060186  1
  S  S26  1  0.74204190  0.90946398  0.31486265  1
  S  S27  1  0.26458458  0.97676257  0.68978631  1
  S  S28  1  0.15956347  0.47893277  0.44585730  1
  S  S29  1  0.84154944  0.47400622  0.55733264  1
  S  S30  1  0.45895402  0.48868310  0.84522942  1
  S  S31  1  0.58496193  0.50279764  0.22196891  1
  S  S32  1  0.92691256  0.46552772  0.00138126  1
  S  S33  1  0.08726138  0.50639669  0.01025114  1
  S  S34  1  0.66878658  0.45147336  0.89404385  1
  S  S35  1  0.34575793  0.46218645  0.10512916  1
  S  S36  1  0.60911426  0.93237536  0.66639592  1
  S  S37  1  0.41231289  0.00320087  0.34529395  1
  S  S38  1  0.24372527  0.51209128  0.29542397  1
  S  S39  1  0.77223828  0.51924787  0.69690794  1
  S  S40  1  0.67725695  0.91533213  0.45659095  1
  S  S41  1  0.32606910  0.04851080  0.54142452  1
