# generated using pymatgen
data_Pr2Mn3(SbS3)4
_symmetry_space_group_name_H-M   'P 1'
_cell_length_a   20.02960800
_cell_length_b   3.90410600
_cell_length_c   14.95364829
_cell_angle_alpha   90.00000000
_cell_angle_beta   126.33350609
_cell_angle_gamma   90.00000000
_symmetry_Int_Tables_number   1
_chemical_formula_structural   Pr2Mn3(SbS3)4
_chemical_formula_sum   'Pr4 Mn6 Sb8 S24'
_cell_volume   942.00006694
_cell_formula_units_Z   2
loop_
 _symmetry_equiv_pos_site_id
 _symmetry_equiv_pos_as_xyz
  1  'x, y, z'
loop_
 _atom_site_type_symbol
 _atom_site_label
 _atom_site_symmetry_multiplicity
 _atom_site_fract_x
 _atom_site_fract_y
 _atom_site_fract_z
 _atom_site_occupancy
  Pr  Pr0  1  0.26389036  0.46146836  0.86749119  1
  Pr  Pr1  1  0.73157340  0.55514278  0.13746062  1
  Pr  Pr2  1  0.77950658  0.98454486  0.87345773  1
  Pr  Pr3  1  0.23000771  0.02135442  0.12788752  1
  Mn  Mn4  1  0.28517721  0.57009204  0.58542186  1
  Mn  Mn5  1  0.70522617  0.44830277  0.39594095  1
  Mn  Mn6  1  0.99841694  0.95777133  0.00091571  1
  Mn  Mn7  1  0.79720770  0.99480966  0.61046173  1
  Mn  Mn8  1  0.18538709  0.96580994  0.39694141  1
  Mn  Mn9  1  0.51804829  0.53485159  0.02280293  1
  Sb  Sb10  1  0.90003264  0.03431505  0.46191109  1
  Sb  Sb11  1  0.11441504  0.99277159  0.55570942  1
  Sb  Sb12  1  0.03242786  0.49465964  0.80646756  1
  Sb  Sb13  1  0.97000677  0.49844801  0.20032342  1
  Sb  Sb14  1  0.39543750  0.49858837  0.44965686  1
  Sb  Sb15  1  0.62076173  0.44126407  0.55874925  1
  Sb  Sb16  1  0.52784420  0.98423784  0.81696540  1
  Sb  Sb17  1  0.47044476  0.03242781  0.19430229  1
  S  S18  1  0.93914046  0.96346691  0.81144540  1
  S  S19  1  0.06329962  0.00938955  0.20598494  1
  S  S20  1  0.42012271  0.97694167  0.99537752  1
  S  S21  1  0.59282884  0.03637059  0.02939504  1
  S  S22  1  0.19311829  0.93301203  0.91501204  1
  S  S23  1  0.83812291  0.03617845  0.11692094  1
  S  S24  1  0.09731649  0.52682146  0.66883034  1
  S  S25  1  0.89984334  0.52234487  0.35047475  1
  S  S26  1  0.74211023  0.90913036  0.31530492  1
  S  S27  1  0.26470548  0.97610661  0.69007610  1
  S  S28  1  0.15888039  0.47902100  0.44519075  1
  S  S29  1  0.84184914  0.47337879  0.55724113  1
  S  S30  1  0.45934445  0.48867210  0.84601091  1
  S  S31  1  0.58458796  0.50180771  0.22190272  1
  S  S32  1  0.92679923  0.46657405  0.00133071  1
  S  S33  1  0.08716301  0.50726205  0.01015142  1
  S  S34  1  0.66895774  0.45177008  0.89421554  1
  S  S35  1  0.34524072  0.46224891  0.10479703  1
  S  S36  1  0.60889933  0.93268104  0.66669526  1
  S  S37  1  0.41203572  0.00304990  0.34530203  1
  S  S38  1  0.24385005  0.51211495  0.29533922  1
  S  S39  1  0.77240930  0.51999589  0.69724031  1
  S  S40  1  0.67726600  0.91632943  0.45616711  1
  S  S41  1  0.32603391  0.04760643  0.54143584  1
