# generated using pymatgen
data_Pr2Mn3(SbS3)4
_symmetry_space_group_name_H-M   'P 1'
_cell_length_a   20.02960800
_cell_length_b   3.90410600
_cell_length_c   14.95364829
_cell_angle_alpha   90.00000000
_cell_angle_beta   126.33350609
_cell_angle_gamma   90.00000000
_symmetry_Int_Tables_number   1
_chemical_formula_structural   Pr2Mn3(SbS3)4
_chemical_formula_sum   'Pr4 Mn6 Sb8 S24'
_cell_volume   942.00006694
_cell_formula_units_Z   2
loop_
 _symmetry_equiv_pos_site_id
 _symmetry_equiv_pos_as_xyz
  1  'x, y, z'
loop_
 _atom_site_type_symbol
 _atom_site_label
 _atom_site_symmetry_multiplicity
 _atom_site_fract_x
 _atom_site_fract_y
 _atom_site_fract_z
 _atom_site_occupancy
  Pr  Pr0  1  0.26388162  0.46155756  0.86751674  1
  Pr  Pr1  1  0.73159685  0.55499918  0.13722074  1
  Pr  Pr2  1  0.77940529  0.98462118  0.87327897  1
  Pr  Pr3  1  0.23016450  0.02105720  0.12818553  1
  Mn  Mn4  1  0.28523126  0.56959337  0.58557524  1
  Mn  Mn5  1  0.70549490  0.44850745  0.39635353  1
  Mn  Mn6  1  0.99847478  0.95878757  0.00109662  1
  Mn  Mn7  1  0.79721073  0.99478275  0.61064318  1
  Mn  Mn8  1  0.18528336  0.96581926  0.39652983  1
  Mn  Mn9  1  0.51804951  0.53392982  0.02307975  1
  Sb  Sb10  1  0.90024105  0.03454369  0.46232701  1
  Sb  Sb11  1  0.11423652  0.99251558  0.55563667  1
  Sb  Sb12  1  0.03215478  0.49509460  0.80608201  1
  Sb  Sb13  1  0.97014629  0.49836509  0.20052469  1
  Sb  Sb14  1  0.39546860  0.49871484  0.44953869  1
  Sb  Sb15  1  0.62098149  0.44162964  0.55888028  1
  Sb  Sb16  1  0.52784100  0.98349550  0.81697794  1
  Sb  Sb17  1  0.47037970  0.03276833  0.19430935  1
  S  S18  1  0.93916991  0.96312379  0.81124057  1
  S  S19  1  0.06306853  0.00931184  0.20562020  1
  S  S20  1  0.41996742  0.97669078  0.99553252  1
  S  S21  1  0.59294215  0.03683698  0.02960026  1
  S  S22  1  0.19269447  0.93271432  0.91433976  1
  S  S23  1  0.83762302  0.03573982  0.11640507  1
  S  S24  1  0.09714513  0.52778613  0.66856615  1
  S  S25  1  0.89994252  0.52186820  0.35022729  1
  S  S26  1  0.74216254  0.90890682  0.31548143  1
  S  S27  1  0.26494447  0.97560628  0.69050999  1
  S  S28  1  0.15852657  0.47897337  0.44482547  1
  S  S29  1  0.84213193  0.47302553  0.55722261  1
  S  S30  1  0.45979230  0.48883417  0.84680177  1
  S  S31  1  0.58410551  0.50072046  0.22173961  1
  S  S32  1  0.92687232  0.46763622  0.00134416  1
  S  S33  1  0.08696109  0.50832801  0.00999363  1
  S  S34  1  0.66899974  0.45196290  0.89422319  1
  S  S35  1  0.34484602  0.46286872  0.10453047  1
  S  S36  1  0.60879973  0.93290219  0.66697786  1
  S  S37  1  0.41171065  0.00252467  0.34539441  1
  S  S38  1  0.24397254  0.51201704  0.29528367  1
  S  S39  1  0.77262454  0.52067149  0.69763337  1
  S  S40  1  0.67731513  0.91711967  0.45577282  1
  S  S41  1  0.32582378  0.04617910  0.54131297  1
