# generated using pymatgen
data_Pr2Mn3(SbS3)4
_symmetry_space_group_name_H-M   'P 1'
_cell_length_a   20.02960800
_cell_length_b   3.90410600
_cell_length_c   14.95364829
_cell_angle_alpha   90.00000000
_cell_angle_beta   126.33350609
_cell_angle_gamma   90.00000000
_symmetry_Int_Tables_number   1
_chemical_formula_structural   Pr2Mn3(SbS3)4
_chemical_formula_sum   'Pr4 Mn6 Sb8 S24'
_cell_volume   942.00006694
_cell_formula_units_Z   2
loop_
 _symmetry_equiv_pos_site_id
 _symmetry_equiv_pos_as_xyz
  1  'x, y, z'
loop_
 _atom_site_type_symbol
 _atom_site_label
 _atom_site_symmetry_multiplicity
 _atom_site_fract_x
 _atom_site_fract_y
 _atom_site_fract_z
 _atom_site_occupancy
  Pr  Pr0  1  0.26389001  0.46180895  0.86755572  1
  Pr  Pr1  1  0.73166835  0.55472910  0.13710592  1
  Pr  Pr2  1  0.77927029  0.98469911  0.87310635  1
  Pr  Pr3  1  0.23026261  0.02070887  0.12842425  1
  Mn  Mn4  1  0.28526646  0.56941818  0.58557443  1
  Mn  Mn5  1  0.70581247  0.44897782  0.39677740  1
  Mn  Mn6  1  0.99846250  0.95928906  0.00131848  1
  Mn  Mn7  1  0.79713785  0.99448826  0.61085541  1
  Mn  Mn8  1  0.18520316  0.96631944  0.39615012  1
  Mn  Mn9  1  0.51817609  0.53298888  0.02351866  1
  Sb  Sb10  1  0.90040908  0.03462639  0.46260277  1
  Sb  Sb11  1  0.11408169  0.99208661  0.55554577  1
  Sb  Sb12  1  0.03196828  0.49561806  0.80580821  1
  Sb  Sb13  1  0.97027160  0.49836936  0.20055324  1
  Sb  Sb14  1  0.39555971  0.49876651  0.44948421  1
  Sb  Sb15  1  0.62118576  0.44207783  0.55898515  1
  Sb  Sb16  1  0.52776253  0.98279069  0.81690281  1
  Sb  Sb17  1  0.47023033  0.03283288  0.19420509  1
  S  S18  1  0.93899527  0.96273738  0.81086339  1
  S  S19  1  0.06281098  0.00886007  0.20514962  1
  S  S20  1  0.41997317  0.97673790  0.99561949  1
  S  S21  1  0.59313772  0.03728416  0.02971778  1
  S  S22  1  0.19237054  0.93373986  0.91369712  1
  S  S23  1  0.83707003  0.03521982  0.11580700  1
  S  S24  1  0.09687852  0.52877009  0.66806743  1
  S  S25  1  0.90023882  0.52177476  0.35028735  1
  S  S26  1  0.74205349  0.90956295  0.31556077  1
  S  S27  1  0.26514330  0.97520475  0.69085410  1
  S  S28  1  0.15805716  0.47815644  0.44437554  1
  S  S29  1  0.84231915  0.47281642  0.55718184  1
  S  S30  1  0.46012040  0.48890858  0.84749341  1
  S  S31  1  0.58372663  0.49976568  0.22165564  1
  S  S32  1  0.92701926  0.46904415  0.00132352  1
  S  S33  1  0.08673727  0.50880627  0.00992124  1
  S  S34  1  0.66900386  0.45245823  0.89428614  1
  S  S35  1  0.34469593  0.46290434  0.10457285  1
  S  S36  1  0.60871975  0.93342377  0.66725694  1
  S  S37  1  0.41161036  0.00129790  0.34566955  1
  S  S38  1  0.24411475  0.51190245  0.29517277  1
  S  S39  1  0.77271990  0.52061527  0.69790058  1
  S  S40  1  0.67735353  0.91827554  0.45551402  1
  S  S41  1  0.32552813  0.04475788  0.54120293  1
