# generated using pymatgen
data_Pr2Mn3(SbS3)4
_symmetry_space_group_name_H-M   'P 1'
_cell_length_a   20.02960800
_cell_length_b   3.90410600
_cell_length_c   14.95364829
_cell_angle_alpha   90.00000000
_cell_angle_beta   126.33350609
_cell_angle_gamma   90.00000000
_symmetry_Int_Tables_number   1
_chemical_formula_structural   Pr2Mn3(SbS3)4
_chemical_formula_sum   'Pr4 Mn6 Sb8 S24'
_cell_volume   942.00006694
_cell_formula_units_Z   2
loop_
 _symmetry_equiv_pos_site_id
 _symmetry_equiv_pos_as_xyz
  1  'x, y, z'
loop_
 _atom_site_type_symbol
 _atom_site_label
 _atom_site_symmetry_multiplicity
 _atom_site_fract_x
 _atom_site_fract_y
 _atom_site_fract_z
 _atom_site_occupancy
  Pr  Pr0  1  0.26389068  0.46193007  0.86759131  1
  Pr  Pr1  1  0.73173093  0.55418075  0.13698897  1
  Pr  Pr2  1  0.77913737  0.98462288  0.87287883  1
  Pr  Pr3  1  0.23037817  0.02037916  0.12867498  1
  Mn  Mn4  1  0.28542097  0.56869655  0.58552331  1
  Mn  Mn5  1  0.70626562  0.44964658  0.39735242  1
  Mn  Mn6  1  0.99842060  0.95973298  0.00151166  1
  Mn  Mn7  1  0.79705319  0.99472622  0.61098361  1
  Mn  Mn8  1  0.18514857  0.96682091  0.39575889  1
  Mn  Mn9  1  0.51827827  0.53194828  0.02407740  1
  Sb  Sb10  1  0.90057999  0.03471787  0.46272769  1
  Sb  Sb11  1  0.11390113  0.99198535  0.55532976  1
  Sb  Sb12  1  0.03180957  0.49615577  0.80555576  1
  Sb  Sb13  1  0.97043723  0.49806632  0.20063572  1
  Sb  Sb14  1  0.39561044  0.49882602  0.44950008  1
  Sb  Sb15  1  0.62134628  0.44268366  0.55908828  1
  Sb  Sb16  1  0.52775952  0.98191452  0.81683961  1
  Sb  Sb17  1  0.47005452  0.03262279  0.19419104  1
  S  S18  1  0.93892617  0.96291252  0.81066402  1
  S  S19  1  0.06256292  0.00797281  0.20463498  1
  S  S20  1  0.41983684  0.97658915  0.99541860  1
  S  S21  1  0.59330474  0.03755441  0.02966318  1
  S  S22  1  0.19217751  0.93492467  0.91325519  1
  S  S23  1  0.83654591  0.03466371  0.11544224  1
  S  S24  1  0.09663774  0.52933005  0.66763744  1
  S  S25  1  0.90047116  0.52168266  0.35043469  1
  S  S26  1  0.74194407  0.91002922  0.31576509  1
  S  S27  1  0.26534245  0.97434318  0.69119309  1
  S  S28  1  0.15788269  0.47837869  0.44426520  1
  S  S29  1  0.84251006  0.47246003  0.55709565  1
  S  S30  1  0.46045299  0.48935779  0.84827881  1
  S  S31  1  0.58334318  0.49862711  0.22153463  1
  S  S32  1  0.92715883  0.47020643  0.00143451  1
  S  S33  1  0.08638318  0.50942149  0.00955352  1
  S  S34  1  0.66898620  0.45289154  0.89421838  1
  S  S35  1  0.34475289  0.46334749  0.10480297  1
  S  S36  1  0.60869288  0.93397439  0.66756564  1
  S  S37  1  0.41156264  0.00055799  0.34588774  1
  S  S38  1  0.24416136  0.51199994  0.29510662  1
  S  S39  1  0.77284502  0.52041258  0.69790506  1
  S  S40  1  0.67736797  0.91929451  0.45504962  1
  S  S41  1  0.32543461  0.04310515  0.54139437  1
