# generated using pymatgen
data_Pr2Mn3(SbS3)4
_symmetry_space_group_name_H-M   'P 1'
_cell_length_a   20.02960800
_cell_length_b   3.90410600
_cell_length_c   14.95364829
_cell_angle_alpha   90.00000000
_cell_angle_beta   126.33350609
_cell_angle_gamma   90.00000000
_symmetry_Int_Tables_number   1
_chemical_formula_structural   Pr2Mn3(SbS3)4
_chemical_formula_sum   'Pr4 Mn6 Sb8 S24'
_cell_volume   942.00006694
_cell_formula_units_Z   2
loop_
 _symmetry_equiv_pos_site_id
 _symmetry_equiv_pos_as_xyz
  1  'x, y, z'
loop_
 _atom_site_type_symbol
 _atom_site_label
 _atom_site_symmetry_multiplicity
 _atom_site_fract_x
 _atom_site_fract_y
 _atom_site_fract_z
 _atom_site_occupancy
  Pr  Pr0  1  0.26389931  0.46222853  0.86759427  1
  Pr  Pr1  1  0.73180082  0.55367641  0.13692842  1
  Pr  Pr2  1  0.77903149  0.98460214  0.87268942  1
  Pr  Pr3  1  0.23048822  0.02017220  0.12896380  1
  Mn  Mn4  1  0.28561126  0.56738009  0.58539291  1
  Mn  Mn5  1  0.70679227  0.45017590  0.39790261  1
  Mn  Mn6  1  0.99835035  0.96080706  0.00174633  1
  Mn  Mn7  1  0.79702626  0.99487961  0.61113805  1
  Mn  Mn8  1  0.18507257  0.96734627  0.39553374  1
  Mn  Mn9  1  0.51837679  0.53154607  0.02472345  1
  Sb  Sb10  1  0.90069378  0.03476355  0.46279811  1
  Sb  Sb11  1  0.11380667  0.99203703  0.55514530  1
  Sb  Sb12  1  0.03168346  0.49669495  0.80521732  1
  Sb  Sb13  1  0.97058347  0.49802359  0.20074687  1
  Sb  Sb14  1  0.39567692  0.49896543  0.44949613  1
  Sb  Sb15  1  0.62156869  0.44329191  0.55918006  1
  Sb  Sb16  1  0.52793394  0.98113982  0.81692740  1
  Sb  Sb17  1  0.46995432  0.03229944  0.19430775  1
  S  S18  1  0.93896386  0.96275721  0.81068151  1
  S  S19  1  0.06232685  0.00727113  0.20425654  1
  S  S20  1  0.41968543  0.97676881  0.99514937  1
  S  S21  1  0.59353222  0.03718775  0.02964143  1
  S  S22  1  0.19210674  0.93614794  0.91290635  1
  S  S23  1  0.83587011  0.03328063  0.11483963  1
  S  S24  1  0.09652696  0.52933075  0.66730180  1
  S  S25  1  0.90064815  0.52143930  0.35078228  1
  S  S26  1  0.74179798  0.91020290  0.31583747  1
  S  S27  1  0.26535184  0.97361844  0.69146202  1
  S  S28  1  0.15755819  0.47910841  0.44412010  1
  S  S29  1  0.84273783  0.47228753  0.55713851  1
  S  S30  1  0.46087359  0.48946651  0.84906840  1
  S  S31  1  0.58287235  0.49796918  0.22122976  1
  S  S32  1  0.92733538  0.47135542  0.00162080  1
  S  S33  1  0.08600148  0.51046792  0.00928693  1
  S  S34  1  0.66910575  0.45342500  0.89430398  1
  S  S35  1  0.34488836  0.46349367  0.10519840  1
  S  S36  1  0.60848474  0.93413477  0.66766637  1
  S  S37  1  0.41153266  0.00002722  0.34604648  1
  S  S38  1  0.24428389  0.51196500  0.29520767  1
  S  S39  1  0.77296400  0.51948924  0.69787153  1
  S  S40  1  0.67727688  0.92009389  0.45446115  1
  S  S41  1  0.32529114  0.04184560  0.54167570  1
