# generated using pymatgen
data_Pr2Mn3(SbS3)4
_symmetry_space_group_name_H-M   'P 1'
_cell_length_a   20.02960800
_cell_length_b   3.90410600
_cell_length_c   14.95364829
_cell_angle_alpha   90.00000000
_cell_angle_beta   126.33350609
_cell_angle_gamma   90.00000000
_symmetry_Int_Tables_number   1
_chemical_formula_structural   Pr2Mn3(SbS3)4
_chemical_formula_sum   'Pr4 Mn6 Sb8 S24'
_cell_volume   942.00006694
_cell_formula_units_Z   2
loop_
 _symmetry_equiv_pos_site_id
 _symmetry_equiv_pos_as_xyz
  1  'x, y, z'
loop_
 _atom_site_type_symbol
 _atom_site_label
 _atom_site_symmetry_multiplicity
 _atom_site_fract_x
 _atom_site_fract_y
 _atom_site_fract_z
 _atom_site_occupancy
  Pr  Pr0  1  0.26391341  0.46237323  0.86758568  1
  Pr  Pr1  1  0.73184744  0.55327770  0.13687995  1
  Pr  Pr2  1  0.77893225  0.98425771  0.87245000  1
  Pr  Pr3  1  0.23061246  0.01964610  0.12930014  1
  Mn  Mn4  1  0.28584554  0.56639178  0.58530694  1
  Mn  Mn5  1  0.70723248  0.45054654  0.39830636  1
  Mn  Mn6  1  0.99816055  0.96187325  0.00179860  1
  Mn  Mn7  1  0.79688540  0.99522762  0.61122559  1
  Mn  Mn8  1  0.18495207  0.96777615  0.39517045  1
  Mn  Mn9  1  0.51847325  0.53130772  0.02539525  1
  Sb  Sb10  1  0.90077246  0.03478781  0.46285077  1
  Sb  Sb11  1  0.11372335  0.99238174  0.55491026  1
  Sb  Sb12  1  0.03166543  0.49703219  0.80492227  1
  Sb  Sb13  1  0.97075087  0.49787805  0.20084412  1
  Sb  Sb14  1  0.39573458  0.49887034  0.44952677  1
  Sb  Sb15  1  0.62172644  0.44372255  0.55906748  1
  Sb  Sb16  1  0.52810334  0.98039988  0.81699918  1
  Sb  Sb17  1  0.46979829  0.03190387  0.19432900  1
  S  S18  1  0.93890152  0.96206973  0.81049699  1
  S  S19  1  0.06215115  0.00607773  0.20396580  1
  S  S20  1  0.41972239  0.97772648  0.99492754  1
  S  S21  1  0.59358047  0.03633782  0.02962701  1
  S  S22  1  0.19211596  0.93706929  0.91267706  1
  S  S23  1  0.83540078  0.03202896  0.11428649  1
  S  S24  1  0.09646909  0.53002907  0.66700754  1
  S  S25  1  0.90082321  0.52055709  0.35119231  1
  S  S26  1  0.74167556  0.91050756  0.31605577  1
  S  S27  1  0.26533958  0.97271294  0.69175151  1
  S  S28  1  0.15729762  0.47954762  0.44407453  1
  S  S29  1  0.84309795  0.47197599  0.55735812  1
  S  S30  1  0.46147349  0.49002965  0.84991666  1
  S  S31  1  0.58229083  0.49723961  0.22072598  1
  S  S32  1  0.92743217  0.47244765  0.00183017  1
  S  S33  1  0.08575347  0.51172841  0.00908427  1
  S  S34  1  0.66928595  0.45352162  0.89458364  1
  S  S35  1  0.34495881  0.46354597  0.10551089  1
  S  S36  1  0.60827808  0.93384960  0.66766339  1
  S  S37  1  0.41150275  0.99953342  0.34595340  1
  S  S38  1  0.24450058  0.51173963  0.29538086  1
  S  S39  1  0.77305756  0.51855909  0.69765196  1
  S  S40  1  0.67728018  0.92144039  0.45395193  1
  S  S41  1  0.32526699  0.04109393  0.54199471  1
