# generated using pymatgen
data_Pr2Mn3(SbS3)4
_symmetry_space_group_name_H-M   'P 1'
_cell_length_a   20.02960800
_cell_length_b   3.90410600
_cell_length_c   14.95364829
_cell_angle_alpha   90.00000000
_cell_angle_beta   126.33350609
_cell_angle_gamma   90.00000000
_symmetry_Int_Tables_number   1
_chemical_formula_structural   Pr2Mn3(SbS3)4
_chemical_formula_sum   'Pr4 Mn6 Sb8 S24'
_cell_volume   942.00006694
_cell_formula_units_Z   2
loop_
 _symmetry_equiv_pos_site_id
 _symmetry_equiv_pos_as_xyz
  1  'x, y, z'
loop_
 _atom_site_type_symbol
 _atom_site_label
 _atom_site_symmetry_multiplicity
 _atom_site_fract_x
 _atom_site_fract_y
 _atom_site_fract_z
 _atom_site_occupancy
  Pr  Pr0  1  0.26392132  0.46218881  0.86754619  1
  Pr  Pr1  1  0.73191607  0.55310934  0.13681160  1
  Pr  Pr2  1  0.77881172  0.98399913  0.87218679  1
  Pr  Pr3  1  0.23063186  0.01959899  0.12953557  1
  Mn  Mn4  1  0.28609284  0.56504920  0.58528787  1
  Mn  Mn5  1  0.70760722  0.45067697  0.39865876  1
  Mn  Mn6  1  0.99782994  0.96331296  0.00180055  1
  Mn  Mn7  1  0.79672162  0.99577048  0.61139140  1
  Mn  Mn8  1  0.18480048  0.96813782  0.39479706  1
  Mn  Mn9  1  0.51866880  0.53080507  0.02611795  1
  Sb  Sb10  1  0.90089432  0.03465540  0.46290629  1
  Sb  Sb11  1  0.11365649  0.99270681  0.55476904  1
  Sb  Sb12  1  0.03163460  0.49729350  0.80465377  1
  Sb  Sb13  1  0.97095763  0.49748156  0.20087417  1
  Sb  Sb14  1  0.39570631  0.49869861  0.44953161  1
  Sb  Sb15  1  0.62188372  0.44426877  0.55902889  1
  Sb  Sb16  1  0.52823032  0.97978895  0.81696520  1
  Sb  Sb17  1  0.46959313  0.03156820  0.19416801  1
  S  S18  1  0.93883730  0.96255266  0.81027310  1
  S  S19  1  0.06200957  0.00490246  0.20379671  1
  S  S20  1  0.41983914  0.97850927  0.99487623  1
  S  S21  1  0.59345437  0.03599442  0.02948172  1
  S  S22  1  0.19213000  0.93857329  0.91250547  1
  S  S23  1  0.83502058  0.03052130  0.11370960  1
  S  S24  1  0.09645327  0.53087229  0.66688926  1
  S  S25  1  0.90096057  0.52013922  0.35153951  1
  S  S26  1  0.74177342  0.91138136  0.31637030  1
  S  S27  1  0.26542263  0.97164726  0.69211394  1
  S  S28  1  0.15709343  0.47998110  0.44403224  1
  S  S29  1  0.84333911  0.47129614  0.55753432  1
  S  S30  1  0.46203014  0.49051234  0.85069324  1
  S  S31  1  0.58182056  0.49638093  0.22026864  1
  S  S32  1  0.92752345  0.47356188  0.00202647  1
  S  S33  1  0.08540138  0.51246090  0.00874544  1
  S  S34  1  0.66942576  0.45404289  0.89477938  1
  S  S35  1  0.34508761  0.46290211  0.10570606  1
  S  S36  1  0.60823779  0.93426290  0.66784745  1
  S  S37  1  0.41155983  0.99920060  0.34584228  1
  S  S38  1  0.24468205  0.51172479  0.29537238  1
  S  S39  1  0.77313869  0.51730670  0.69749662  1
  S  S40  1  0.67724077  0.92313564  0.45345485  1
  S  S41  1  0.32533354  0.04039899  0.54242450  1
