# generated using pymatgen
data_Pr2Mn3(SbS3)4
_symmetry_space_group_name_H-M   'P 1'
_cell_length_a   20.02960800
_cell_length_b   3.90410600
_cell_length_c   14.95364829
_cell_angle_alpha   90.00000000
_cell_angle_beta   126.33350609
_cell_angle_gamma   90.00000000
_symmetry_Int_Tables_number   1
_chemical_formula_structural   Pr2Mn3(SbS3)4
_chemical_formula_sum   'Pr4 Mn6 Sb8 S24'
_cell_volume   942.00006694
_cell_formula_units_Z   2
loop_
 _symmetry_equiv_pos_site_id
 _symmetry_equiv_pos_as_xyz
  1  'x, y, z'
loop_
 _atom_site_type_symbol
 _atom_site_label
 _atom_site_symmetry_multiplicity
 _atom_site_fract_x
 _atom_site_fract_y
 _atom_site_fract_z
 _atom_site_occupancy
  Pr  Pr0  1  0.26966574  0.50619902  0.87042785  1
  Pr  Pr1  1  0.73466880  0.51413395  0.13498153  1
  Pr  Pr2  1  0.76434560  0.03259004  0.86917540  1
  Pr  Pr3  1  0.22899368  0.97348872  0.12955538  1
  Mn  Mn4  1  0.29978526  0.46663174  0.60939423  1
  Mn  Mn5  1  0.68643248  0.46454665  0.36592419  1
  Mn  Mn6  1  0.00061883  0.98296550  0.00818361  1
  Mn  Mn7  1  0.79174732  0.03008109  0.61401874  1
  Mn  Mn8  1  0.19742875  0.01506311  0.36971430  1
  Mn  Mn9  1  0.48134472  0.47034419  0.98169267  1
  Sb  Sb10  1  0.89013813  0.97890488  0.44741148  1
  Sb  Sb11  1  0.11208736  0.97884112  0.54750813  1
  Sb  Sb12  1  0.03803046  0.52673710  0.82529994  1
  Sb  Sb13  1  0.96885046  0.48662357  0.19250266  1
  Sb  Sb14  1  0.39760482  0.49739307  0.45362709  1
  Sb  Sb15  1  0.61180704  0.48236749  0.54762204  1
  Sb  Sb16  1  0.52962293  0.97150183  0.80453845  1
  Sb  Sb17  1  0.46533407  0.02668863  0.18553107  1
  S  S18  1  0.94174926  0.01535680  0.80982478  1
  S  S19  1  0.06634298  0.00206774  0.20413947  1
  S  S20  1  0.41726553  0.98203207  0.97742115  1
  S  S21  1  0.58664944  0.01944791  0.00985983  1
  S  S22  1  0.16195405  0.02743812  0.89700637  1
  S  S23  1  0.82704960  0.98660093  0.10296231  1
  S  S24  1  0.08552624  0.50173443  0.63530115  1
  S  S25  1  0.91578310  0.49213196  0.35300954  1
  S  S26  1  0.73497304  0.00671504  0.29481668  1
  S  S27  1  0.26053356  0.01505078  0.70434259  1
  S  S28  1  0.17046633  0.52137370  0.43826980  1
  S  S29  1  0.80915254  0.51710205  0.53885405  1
  S  S30  1  0.43417698  0.47755866  0.80261438  1
  S  S31  1  0.55455217  0.50114339  0.18083459  1
  S  S32  1  0.92221334  0.50813292  0.98703876  1
  S  S33  1  0.08894600  0.50132171  0.02574240  1
  S  S34  1  0.66773139  0.55656284  0.89564713  1
  S  S35  1  0.32967098  0.46035053  0.10019307  1
  S  S36  1  0.58896698  0.00342094  0.64675592  1
  S  S37  1  0.39327775  0.98748728  0.33254023  1
  S  S38  1  0.24709747  0.47465524  0.31633251  1
  S  S39  1  0.76385559  0.50320196  0.69209634  1
  S  S40  1  0.65801892  0.98564863  0.43691401  1
  S  S41  1  0.33032239  0.98913270  0.55277491  1
