# generated using pymatgen
data_Pr2Mn3(SbS3)4
_symmetry_space_group_name_H-M   'P 1'
_cell_length_a   20.02960800
_cell_length_b   3.90410600
_cell_length_c   14.95364829
_cell_angle_alpha   90.00000000
_cell_angle_beta   126.33350609
_cell_angle_gamma   90.00000000
_symmetry_Int_Tables_number   1
_chemical_formula_structural   Pr2Mn3(SbS3)4
_chemical_formula_sum   'Pr4 Mn6 Sb8 S24'
_cell_volume   942.00006694
_cell_formula_units_Z   2
loop_
 _symmetry_equiv_pos_site_id
 _symmetry_equiv_pos_as_xyz
  1  'x, y, z'
loop_
 _atom_site_type_symbol
 _atom_site_label
 _atom_site_symmetry_multiplicity
 _atom_site_fract_x
 _atom_site_fract_y
 _atom_site_fract_z
 _atom_site_occupancy
  Pr  Pr0  1  0.26393011  0.46201240  0.86740419  1
  Pr  Pr1  1  0.73189267  0.55258787  0.13661845  1
  Pr  Pr2  1  0.77868008  0.98367939  0.87192903  1
  Pr  Pr3  1  0.23065272  0.01962466  0.12977944  1
  Mn  Mn4  1  0.28645586  0.56349431  0.58545402  1
  Mn  Mn5  1  0.70782957  0.45083710  0.39887555  1
  Mn  Mn6  1  0.99742269  0.96487296  0.00164012  1
  Mn  Mn7  1  0.79656727  0.99636953  0.61148653  1
  Mn  Mn8  1  0.18474450  0.96923038  0.39448815  1
  Mn  Mn9  1  0.51879624  0.53016533  0.02682697  1
  Sb  Sb10  1  0.90109094  0.03489339  0.46303938  1
  Sb  Sb11  1  0.11367188  0.99262181  0.55468165  1
  Sb  Sb12  1  0.03171493  0.49748701  0.80452965  1
  Sb  Sb13  1  0.97116293  0.49723846  0.20090514  1
  Sb  Sb14  1  0.39565038  0.49845795  0.44949090  1
  Sb  Sb15  1  0.62209033  0.44473788  0.55906002  1
  Sb  Sb16  1  0.52841302  0.97903611  0.81697397  1
  Sb  Sb17  1  0.46936760  0.03125615  0.19399251  1
  S  S18  1  0.93881151  0.96336251  0.81014585  1
  S  S19  1  0.06202297  0.00370392  0.20367758  1
  S  S20  1  0.41987189  0.97921934  0.99466720  1
  S  S21  1  0.59321499  0.03637828  0.02926279  1
  S  S22  1  0.19201526  0.94060366  0.91227885  1
  S  S23  1  0.83462631  0.02934429  0.11302954  1
  S  S24  1  0.09650728  0.53224373  0.66657381  1
  S  S25  1  0.90097006  0.51976227  0.35179463  1
  S  S26  1  0.74165785  0.91182326  0.31648116  1
  S  S27  1  0.26548194  0.97083386  0.69250720  1
  S  S28  1  0.15679713  0.47987741  0.44385547  1
  S  S29  1  0.84359728  0.47104465  0.55799536  1
  S  S30  1  0.46257572  0.49052866  0.85147804  1
  S  S31  1  0.58129738  0.49595295  0.21992811  1
  S  S32  1  0.92752986  0.47417343  0.00221151  1
  S  S33  1  0.08505205  0.51359746  0.00847901  1
  S  S34  1  0.66959757  0.45440993  0.89489847  1
  S  S35  1  0.34523212  0.46201402  0.10575022  1
  S  S36  1  0.60827303  0.93580677  0.66824231  1
  S  S37  1  0.41155363  0.99889883  0.34561270  1
  S  S38  1  0.24491904  0.51142298  0.29530671  1
  S  S39  1  0.77326782  0.51634886  0.69738838  1
  S  S40  1  0.67720405  0.92516986  0.45286554  1
  S  S41  1  0.32532993  0.03955072  0.54267481  1
