# generated using pymatgen
data_Pr2Mn3(SbS3)4
_symmetry_space_group_name_H-M   'P 1'
_cell_length_a   20.02960800
_cell_length_b   3.90410600
_cell_length_c   14.95364829
_cell_angle_alpha   90.00000000
_cell_angle_beta   126.33350609
_cell_angle_gamma   90.00000000
_symmetry_Int_Tables_number   1
_chemical_formula_structural   Pr2Mn3(SbS3)4
_chemical_formula_sum   'Pr4 Mn6 Sb8 S24'
_cell_volume   942.00006694
_cell_formula_units_Z   2
loop_
 _symmetry_equiv_pos_site_id
 _symmetry_equiv_pos_as_xyz
  1  'x, y, z'
loop_
 _atom_site_type_symbol
 _atom_site_label
 _atom_site_symmetry_multiplicity
 _atom_site_fract_x
 _atom_site_fract_y
 _atom_site_fract_z
 _atom_site_occupancy
  Pr  Pr0  1  0.26389002  0.46156686  0.86729106  1
  Pr  Pr1  1  0.73188746  0.55179911  0.13653008  1
  Pr  Pr2  1  0.77858511  0.98322538  0.87169937  1
  Pr  Pr3  1  0.23066839  0.01962298  0.13003580  1
  Mn  Mn4  1  0.28672857  0.56184590  0.58563855  1
  Mn  Mn5  1  0.70800593  0.45123792  0.39896054  1
  Mn  Mn6  1  0.99708710  0.96615069  0.00157485  1
  Mn  Mn7  1  0.79655635  0.99652941  0.61168768  1
  Mn  Mn8  1  0.18459584  0.97005331  0.39416748  1
  Mn  Mn9  1  0.51891106  0.52929989  0.02744104  1
  Sb  Sb10  1  0.90134622  0.03498481  0.46316052  1
  Sb  Sb11  1  0.11375011  0.99249631  0.55468912  1
  Sb  Sb12  1  0.03176632  0.49757074  0.80444113  1
  Sb  Sb13  1  0.97138406  0.49712131  0.20104807  1
  Sb  Sb14  1  0.39560808  0.49808633  0.44948074  1
  Sb  Sb15  1  0.62229784  0.44528451  0.55905557  1
  Sb  Sb16  1  0.52850550  0.97880681  0.81688952  1
  Sb  Sb17  1  0.46917439  0.03112595  0.19377916  1
  S  S18  1  0.93860084  0.96412080  0.80988479  1
  S  S19  1  0.06199992  0.00205946  0.20358760  1
  S  S20  1  0.41983199  0.98025236  0.99445978  1
  S  S21  1  0.59292932  0.03624200  0.02917378  1
  S  S22  1  0.19194280  0.94213634  0.91211542  1
  S  S23  1  0.83445515  0.02828295  0.11247680  1
  S  S24  1  0.09655159  0.53277898  0.66624204  1
  S  S25  1  0.90093365  0.51979532  0.35224610  1
  S  S26  1  0.74164493  0.91136128  0.31659006  1
  S  S27  1  0.26545647  0.97013718  0.69268734  1
  S  S28  1  0.15651441  0.47964156  0.44390983  1
  S  S29  1  0.84391165  0.47035008  0.55871600  1
  S  S30  1  0.46294482  0.49063039  0.85194453  1
  S  S31  1  0.58071497  0.49595486  0.21931520  1
  S  S32  1  0.92745686  0.47499746  0.00253117  1
  S  S33  1  0.08478387  0.51427330  0.00823445  1
  S  S34  1  0.66980678  0.45530247  0.89514233  1
  S  S35  1  0.34524239  0.46122366  0.10571522  1
  S  S36  1  0.60803124  0.93745526  0.66837887  1
  S  S37  1  0.41155169  0.99767808  0.34557355  1
  S  S38  1  0.24500335  0.51071749  0.29514885  1
  S  S39  1  0.77325524  0.51525750  0.69709596  1
  S  S40  1  0.67725797  0.92711287  0.45228740  1
  S  S41  1  0.32531648  0.03845931  0.54278132  1
