# generated using pymatgen
data_Pr2Mn3(SbS3)4
_symmetry_space_group_name_H-M   'P 1'
_cell_length_a   20.02960800
_cell_length_b   3.90410600
_cell_length_c   14.95364829
_cell_angle_alpha   90.00000000
_cell_angle_beta   126.33350609
_cell_angle_gamma   90.00000000
_symmetry_Int_Tables_number   1
_chemical_formula_structural   Pr2Mn3(SbS3)4
_chemical_formula_sum   'Pr4 Mn6 Sb8 S24'
_cell_volume   942.00006694
_cell_formula_units_Z   2
loop_
 _symmetry_equiv_pos_site_id
 _symmetry_equiv_pos_as_xyz
  1  'x, y, z'
loop_
 _atom_site_type_symbol
 _atom_site_label
 _atom_site_symmetry_multiplicity
 _atom_site_fract_x
 _atom_site_fract_y
 _atom_site_fract_z
 _atom_site_occupancy
  Pr  Pr0  1  0.26380487  0.46106130  0.86715655  1
  Pr  Pr1  1  0.73185025  0.55114916  0.13638426  1
  Pr  Pr2  1  0.77855838  0.98296584  0.87151496  1
  Pr  Pr3  1  0.23071434  0.01961887  0.13031405  1
  Mn  Mn4  1  0.28695705  0.56001196  0.58582779  1
  Mn  Mn5  1  0.70811457  0.45190023  0.39888446  1
  Mn  Mn6  1  0.99694117  0.96703761  0.00196923  1
  Mn  Mn7  1  0.79665762  0.99666860  0.61188022  1
  Mn  Mn8  1  0.18446637  0.97105358  0.39400889  1
  Mn  Mn9  1  0.51892742  0.52825417  0.02786306  1
  Sb  Sb10  1  0.90159554  0.03476763  0.46327675  1
  Sb  Sb11  1  0.11379416  0.99235675  0.55469140  1
  Sb  Sb12  1  0.03180957  0.49770573  0.80440391  1
  Sb  Sb13  1  0.97156026  0.49678321  0.20109426  1
  Sb  Sb14  1  0.39561368  0.49785852  0.44950093  1
  Sb  Sb15  1  0.62241775  0.44576740  0.55897193  1
  Sb  Sb16  1  0.52859766  0.97890600  0.81671922  1
  Sb  Sb17  1  0.46890314  0.03103167  0.19356092  1
  S  S18  1  0.93846053  0.96472891  0.80986508  1
  S  S19  1  0.06192143  0.00127532  0.20343466  1
  S  S20  1  0.41985124  0.98049238  0.99424420  1
  S  S21  1  0.59255647  0.03622376  0.02889701  1
  S  S22  1  0.19199646  0.94272428  0.91216592  1
  S  S23  1  0.83428443  0.02686379  0.11208155  1
  S  S24  1  0.09654126  0.53311972  0.66599566  1
  S  S25  1  0.90109208  0.51931149  0.35287797  1
  S  S26  1  0.74152673  0.91171977  0.31650064  1
  S  S27  1  0.26558497  0.96942047  0.69277522  1
  S  S28  1  0.15636969  0.47910644  0.44407697  1
  S  S29  1  0.84413928  0.47008502  0.55941195  1
  S  S30  1  0.46324604  0.49078007  0.85230494  1
  S  S31  1  0.58008733  0.49671780  0.21843804  1
  S  S32  1  0.92735761  0.47541764  0.00272669  1
  S  S33  1  0.08460569  0.51523843  0.00821104  1
  S  S34  1  0.66997398  0.45703096  0.89511678  1
  S  S35  1  0.34529281  0.46012679  0.10577661  1
  S  S36  1  0.60800482  0.93919339  0.66874697  1
  S  S37  1  0.41138726  0.99691566  0.34552107  1
  S  S38  1  0.24505133  0.51038751  0.29507624  1
  S  S39  1  0.77317447  0.51421422  0.69689484  1
  S  S40  1  0.67733566  0.92887321  0.45176389  1
  S  S41  1  0.32528923  0.03794510  0.54295118  1
