# generated using pymatgen
data_Pr2Mn3(SbS3)4
_symmetry_space_group_name_H-M   'P 1'
_cell_length_a   20.02960800
_cell_length_b   3.90410600
_cell_length_c   14.95364829
_cell_angle_alpha   90.00000000
_cell_angle_beta   126.33350609
_cell_angle_gamma   90.00000000
_symmetry_Int_Tables_number   1
_chemical_formula_structural   Pr2Mn3(SbS3)4
_chemical_formula_sum   'Pr4 Mn6 Sb8 S24'
_cell_volume   942.00006694
_cell_formula_units_Z   2
loop_
 _symmetry_equiv_pos_site_id
 _symmetry_equiv_pos_as_xyz
  1  'x, y, z'
loop_
 _atom_site_type_symbol
 _atom_site_label
 _atom_site_symmetry_multiplicity
 _atom_site_fract_x
 _atom_site_fract_y
 _atom_site_fract_z
 _atom_site_occupancy
  Pr  Pr0  1  0.26371892  0.46059423  0.86708116  1
  Pr  Pr1  1  0.73188640  0.55044787  0.13633824  1
  Pr  Pr2  1  0.77847228  0.98266105  0.87139807  1
  Pr  Pr3  1  0.23071973  0.01975908  0.13052925  1
  Mn  Mn4  1  0.28724276  0.55754851  0.58614753  1
  Mn  Mn5  1  0.70816210  0.45293024  0.39879970  1
  Mn  Mn6  1  0.99670997  0.96752955  0.00214241  1
  Mn  Mn7  1  0.79678312  0.99662747  0.61189564  1
  Mn  Mn8  1  0.18427660  0.97181215  0.39371091  1
  Mn  Mn9  1  0.51898085  0.52719134  0.02832614  1
  Sb  Sb10  1  0.90182131  0.03470447  0.46326804  1
  Sb  Sb11  1  0.11381760  0.99235877  0.55470665  1
  Sb  Sb12  1  0.03186213  0.49789632  0.80433980  1
  Sb  Sb13  1  0.97168397  0.49653886  0.20110210  1
  Sb  Sb14  1  0.39562352  0.49726869  0.44958595  1
  Sb  Sb15  1  0.62252834  0.44623310  0.55894295  1
  Sb  Sb16  1  0.52868905  0.97916181  0.81668020  1
  Sb  Sb17  1  0.46869117  0.03083740  0.19335151  1
  S  S18  1  0.93824872  0.96463718  0.80964050  1
  S  S19  1  0.06180845  0.99985009  0.20322158  1
  S  S20  1  0.41999415  0.98089597  0.99401823  1
  S  S21  1  0.59238081  0.03681150  0.02875839  1
  S  S22  1  0.19216890  0.94319952  0.91217317  1
  S  S23  1  0.83415010  0.02548146  0.11179292  1
  S  S24  1  0.09643914  0.53309853  0.66566229  1
  S  S25  1  0.90119298  0.51883354  0.35335183  1
  S  S26  1  0.74128311  0.91155582  0.31644432  1
  S  S27  1  0.26590086  0.96848979  0.69313711  1
  S  S28  1  0.15634248  0.47845985  0.44420905  1
  S  S29  1  0.84443582  0.46991859  0.56005504  1
  S  S30  1  0.46346247  0.49105278  0.85277879  1
  S  S31  1  0.57953158  0.49720638  0.21773657  1
  S  S32  1  0.92727591  0.47571024  0.00289370  1
  S  S33  1  0.08452501  0.51552257  0.00849827  1
  S  S34  1  0.67014936  0.45872480  0.89517041  1
  S  S35  1  0.34521080  0.45942979  0.10583649  1
  S  S36  1  0.60805423  0.94030102  0.66927108  1
  S  S37  1  0.41100912  0.99721358  0.34542875  1
  S  S38  1  0.24500519  0.50970406  0.29500215  1
  S  S39  1  0.77311766  0.51301011  0.69671240  1
  S  S40  1  0.67736676  0.93036835  0.45121139  1
  S  S41  1  0.32526774  0.03802812  0.54312862  1
