# generated using pymatgen
data_Pr2Mn3(SbS3)4
_symmetry_space_group_name_H-M   'P 1'
_cell_length_a   20.02960800
_cell_length_b   3.90410600
_cell_length_c   14.95364829
_cell_angle_alpha   90.00000000
_cell_angle_beta   126.33350609
_cell_angle_gamma   90.00000000
_symmetry_Int_Tables_number   1
_chemical_formula_structural   Pr2Mn3(SbS3)4
_chemical_formula_sum   'Pr4 Mn6 Sb8 S24'
_cell_volume   942.00006694
_cell_formula_units_Z   2
loop_
 _symmetry_equiv_pos_site_id
 _symmetry_equiv_pos_as_xyz
  1  'x, y, z'
loop_
 _atom_site_type_symbol
 _atom_site_label
 _atom_site_symmetry_multiplicity
 _atom_site_fract_x
 _atom_site_fract_y
 _atom_site_fract_z
 _atom_site_occupancy
  Pr  Pr0  1  0.26366436  0.46011522  0.86713823  1
  Pr  Pr1  1  0.73185956  0.54971893  0.13622101  1
  Pr  Pr2  1  0.77843259  0.98233906  0.87132821  1
  Pr  Pr3  1  0.23071595  0.01999439  0.13072610  1
  Mn  Mn4  1  0.28742924  0.55554242  0.58643687  1
  Mn  Mn5  1  0.70822631  0.45314590  0.39862938  1
  Mn  Mn6  1  0.99642937  0.96837120  0.00233646  1
  Mn  Mn7  1  0.79690861  0.99648089  0.61197952  1
  Mn  Mn8  1  0.18415384  0.97265241  0.39339955  1
  Mn  Mn9  1  0.51892459  0.52648921  0.02861928  1
  Sb  Sb10  1  0.90207316  0.03487528  0.46329346  1
  Sb  Sb11  1  0.11388043  0.99212015  0.55472534  1
  Sb  Sb12  1  0.03195946  0.49792256  0.80419822  1
  Sb  Sb13  1  0.97183719  0.49639239  0.20110048  1
  Sb  Sb14  1  0.39561411  0.49663993  0.44961889  1
  Sb  Sb15  1  0.62254704  0.44665531  0.55878834  1
  Sb  Sb16  1  0.52879576  0.97961179  0.81675410  1
  Sb  Sb17  1  0.46850180  0.03078252  0.19323053  1
  S  S18  1  0.93809670  0.96458176  0.80954216  1
  S  S19  1  0.06172688  0.99869499  0.20321366  1
  S  S20  1  0.42029437  0.98102208  0.99393307  1
  S  S21  1  0.59230695  0.03728191  0.02858490  1
  S  S22  1  0.19239909  0.94364256  0.91229406  1
  S  S23  1  0.83392301  0.02423199  0.11156444  1
  S  S24  1  0.09641444  0.53276916  0.66535401  1
  S  S25  1  0.90133437  0.51902440  0.35378468  1
  S  S26  1  0.74111069  0.91178078  0.31636607  1
  S  S27  1  0.26630082  0.96804586  0.69358918  1
  S  S28  1  0.15630351  0.47814969  0.44434602  1
  S  S29  1  0.84471145  0.46978376  0.56057261  1
  S  S30  1  0.46361510  0.49125699  0.85327873  1
  S  S31  1  0.57895722  0.49767199  0.21706014  1
  S  S32  1  0.92737361  0.47587013  0.00303438  1
  S  S33  1  0.08452661  0.51532394  0.00897371  1
  S  S34  1  0.67015455  0.45935526  0.89526746  1
  S  S35  1  0.34508416  0.45837672  0.10586750  1
  S  S36  1  0.60816139  0.94136875  0.66958510  1
  S  S37  1  0.41061912  0.99734659  0.34524597  1
  S  S38  1  0.24485816  0.50880261  0.29493620  1
  S  S39  1  0.77312175  0.51197364  0.69657200  1
  S  S40  1  0.67729393  0.93213009  0.45055652  1
  S  S41  1  0.32533698  0.03836421  0.54330526  1
