# generated using pymatgen
data_Pr2Mn3(SbS3)4
_symmetry_space_group_name_H-M   'P 1'
_cell_length_a   20.02960800
_cell_length_b   3.90410600
_cell_length_c   14.95364829
_cell_angle_alpha   90.00000000
_cell_angle_beta   126.33350609
_cell_angle_gamma   90.00000000
_symmetry_Int_Tables_number   1
_chemical_formula_structural   Pr2Mn3(SbS3)4
_chemical_formula_sum   'Pr4 Mn6 Sb8 S24'
_cell_volume   942.00006694
_cell_formula_units_Z   2
loop_
 _symmetry_equiv_pos_site_id
 _symmetry_equiv_pos_as_xyz
  1  'x, y, z'
loop_
 _atom_site_type_symbol
 _atom_site_label
 _atom_site_symmetry_multiplicity
 _atom_site_fract_x
 _atom_site_fract_y
 _atom_site_fract_z
 _atom_site_occupancy
  Pr  Pr0  1  0.26355001  0.45981541  0.86716081  1
  Pr  Pr1  1  0.73176345  0.54882478  0.13608729  1
  Pr  Pr2  1  0.77842997  0.98203969  0.87129792  1
  Pr  Pr3  1  0.23075058  0.02037209  0.13092731  1
  Mn  Mn4  1  0.28774427  0.55402853  0.58681835  1
  Mn  Mn5  1  0.70822283  0.45307833  0.39830128  1
  Mn  Mn6  1  0.99620132  0.96860416  0.00253895  1
  Mn  Mn7  1  0.79700419  0.99602453  0.61212513  1
  Mn  Mn8  1  0.18400990  0.97338584  0.39305587  1
  Mn  Mn9  1  0.51889236  0.52561146  0.02872173  1
  Sb  Sb10  1  0.90235029  0.03488516  0.46334829  1
  Sb  Sb11  1  0.11384879  0.99198832  0.55467386  1
  Sb  Sb12  1  0.03202572  0.49781261  0.80405186  1
  Sb  Sb13  1  0.97201769  0.49620515  0.20108585  1
  Sb  Sb14  1  0.39566915  0.49609267  0.44962601  1
  Sb  Sb15  1  0.62259525  0.44710281  0.55863202  1
  Sb  Sb16  1  0.52882947  0.97960591  0.81679551  1
  Sb  Sb17  1  0.46837645  0.03082317  0.19313096  1
  S  S18  1  0.93783788  0.96451956  0.80935100  1
  S  S19  1  0.06163921  0.99796686  0.20332093  1
  S  S20  1  0.42038503  0.98144716  0.99349662  1
  S  S21  1  0.59216370  0.03752288  0.02833503  1
  S  S22  1  0.19250025  0.94295806  0.91249457  1
  S  S23  1  0.83374105  0.02384267  0.11125722  1
  S  S24  1  0.09633244  0.53147184  0.66483134  1
  S  S25  1  0.90157955  0.51932719  0.35427286  1
  S  S26  1  0.74090633  0.91245104  0.31630661  1
  S  S27  1  0.26677539  0.96755038  0.69431988  1
  S  S28  1  0.15618329  0.47775840  0.44456170  1
  S  S29  1  0.84489417  0.46964713  0.56086519  1
  S  S30  1  0.46355666  0.49142876  0.85355401  1
  S  S31  1  0.57843684  0.49770463  0.21638690  1
  S  S32  1  0.92751144  0.47690498  0.00320005  1
  S  S33  1  0.08453952  0.51492548  0.00941546  1
  S  S34  1  0.67028179  0.46015882  0.89534880  1
  S  S35  1  0.34512266  0.45753673  0.10606267  1
  S  S36  1  0.60829163  0.94236727  0.66990783  1
  S  S37  1  0.41027499  0.99770251  0.34507770  1
  S  S38  1  0.24455779  0.50783809  0.29474768  1
  S  S39  1  0.77309603  0.51074439  0.69653572  1
  S  S40  1  0.67719613  0.93342925  0.44988294  1
  S  S41  1  0.32553009  0.03880113  0.54363776  1
