# generated using pymatgen
data_Pr2Mn3(SbS3)4
_symmetry_space_group_name_H-M   'P 1'
_cell_length_a   20.02960800
_cell_length_b   3.90410600
_cell_length_c   14.95364829
_cell_angle_alpha   90.00000000
_cell_angle_beta   126.33350609
_cell_angle_gamma   90.00000000
_symmetry_Int_Tables_number   1
_chemical_formula_structural   Pr2Mn3(SbS3)4
_chemical_formula_sum   'Pr4 Mn6 Sb8 S24'
_cell_volume   942.00006694
_cell_formula_units_Z   2
loop_
 _symmetry_equiv_pos_site_id
 _symmetry_equiv_pos_as_xyz
  1  'x, y, z'
loop_
 _atom_site_type_symbol
 _atom_site_label
 _atom_site_symmetry_multiplicity
 _atom_site_fract_x
 _atom_site_fract_y
 _atom_site_fract_z
 _atom_site_occupancy
  Pr  Pr0  1  0.26332318  0.45927241  0.86701782  1
  Pr  Pr1  1  0.73169706  0.54791601  0.13589678  1
  Pr  Pr2  1  0.77839169  0.98181119  0.87133897  1
  Pr  Pr3  1  0.23080673  0.02061208  0.13109730  1
  Mn  Mn4  1  0.28804237  0.55335228  0.58707154  1
  Mn  Mn5  1  0.70832724  0.45299660  0.39815830  1
  Mn  Mn6  1  0.99612193  0.96869302  0.00274888  1
  Mn  Mn7  1  0.79725128  0.99580417  0.61233200  1
  Mn  Mn8  1  0.18403196  0.97422408  0.39287710  1
  Mn  Mn9  1  0.51879760  0.52474846  0.02880675  1
  Sb  Sb10  1  0.90258060  0.03483635  0.46339075  1
  Sb  Sb11  1  0.11381332  0.99174002  0.55451644  1
  Sb  Sb12  1  0.03202545  0.49779602  0.80391977  1
  Sb  Sb13  1  0.97211603  0.49591614  0.20093652  1
  Sb  Sb14  1  0.39565498  0.49586674  0.44965767  1
  Sb  Sb15  1  0.62273169  0.44744047  0.55854433  1
  Sb  Sb16  1  0.52885513  0.97972731  0.81687415  1
  Sb  Sb17  1  0.46821778  0.03074067  0.19307862  1
  S  S18  1  0.93771732  0.96503256  0.80914796  1
  S  S19  1  0.06157987  0.99716037  0.20334284  1
  S  S20  1  0.42045800  0.98192754  0.99308793  1
  S  S21  1  0.59199229  0.03730437  0.02790692  1
  S  S22  1  0.19251709  0.94229945  0.91256604  1
  S  S23  1  0.83351918  0.02392557  0.11077598  1
  S  S24  1  0.09635333  0.53015269  0.66459334  1
  S  S25  1  0.90175768  0.51950688  0.35466938  1
  S  S26  1  0.74063210  0.91274927  0.31630455  1
  S  S27  1  0.26717793  0.96716447  0.69485657  1
  S  S28  1  0.15614140  0.47749188  0.44495221  1
  S  S29  1  0.84510544  0.46933526  0.56112495  1
  S  S30  1  0.46340988  0.49121685  0.85380406  1
  S  S31  1  0.57784676  0.49750188  0.21582053  1
  S  S32  1  0.92767698  0.47755581  0.00353813  1
  S  S33  1  0.08446760  0.51466520  0.00954552  1
  S  S34  1  0.67039099  0.46033875  0.89535234  1
  S  S35  1  0.34501783  0.45729159  0.10621404  1
  S  S36  1  0.60832248  0.94363421  0.67017390  1
  S  S37  1  0.40994817  0.99786260  0.34504443  1
  S  S38  1  0.24436157  0.50680186  0.29447077  1
  S  S39  1  0.77302141  0.50932516  0.69657748  1
  S  S40  1  0.67713546  0.93531486  0.44935233  1
  S  S41  1  0.32567805  0.03858817  0.54380625  1
