# generated using pymatgen
data_Pr2Mn3(SbS3)4
_symmetry_space_group_name_H-M   'P 1'
_cell_length_a   20.02960800
_cell_length_b   3.90410600
_cell_length_c   14.95364829
_cell_angle_alpha   90.00000000
_cell_angle_beta   126.33350609
_cell_angle_gamma   90.00000000
_symmetry_Int_Tables_number   1
_chemical_formula_structural   Pr2Mn3(SbS3)4
_chemical_formula_sum   'Pr4 Mn6 Sb8 S24'
_cell_volume   942.00006694
_cell_formula_units_Z   2
loop_
 _symmetry_equiv_pos_site_id
 _symmetry_equiv_pos_as_xyz
  1  'x, y, z'
loop_
 _atom_site_type_symbol
 _atom_site_label
 _atom_site_symmetry_multiplicity
 _atom_site_fract_x
 _atom_site_fract_y
 _atom_site_fract_z
 _atom_site_occupancy
  Pr  Pr0  1  0.26309915  0.45893937  0.86686601  1
  Pr  Pr1  1  0.73171282  0.54669278  0.13572532  1
  Pr  Pr2  1  0.77830204  0.98165816  0.87128490  1
  Pr  Pr3  1  0.23080427  0.02055330  0.13126344  1
  Mn  Mn4  1  0.28824466  0.55258633  0.58720106  1
  Mn  Mn5  1  0.70845777  0.45227419  0.39814554  1
  Mn  Mn6  1  0.99602334  0.96851707  0.00286648  1
  Mn  Mn7  1  0.79745874  0.99590979  0.61244303  1
  Mn  Mn8  1  0.18401122  0.97532858  0.39277737  1
  Mn  Mn9  1  0.51874389  0.52390269  0.02909717  1
  Sb  Sb10  1  0.90274947  0.03459848  0.46329037  1
  Sb  Sb11  1  0.11384493  0.99149668  0.55439026  1
  Sb  Sb12  1  0.03197820  0.49749390  0.80371501  1
  Sb  Sb13  1  0.97219213  0.49555050  0.20075705  1
  Sb  Sb14  1  0.39561804  0.49558653  0.44959407  1
  Sb  Sb15  1  0.62282393  0.44743007  0.55849275  1
  Sb  Sb16  1  0.52881498  0.97963175  0.81698418  1
  Sb  Sb17  1  0.46806498  0.03064541  0.19305762  1
  S  S18  1  0.93761921  0.96577611  0.80896577  1
  S  S19  1  0.06159611  0.99660952  0.20343726  1
  S  S20  1  0.42041357  0.98292385  0.99267461  1
  S  S21  1  0.59201556  0.03647044  0.02756015  1
  S  S22  1  0.19231782  0.94119421  0.91253623  1
  S  S23  1  0.83335368  0.02344306  0.11031375  1
  S  S24  1  0.09625721  0.52899601  0.66444745  1
  S  S25  1  0.90199792  0.52001181  0.35506597  1
  S  S26  1  0.74052190  0.91301372  0.31636342  1
  S  S27  1  0.26751142  0.96661109  0.69530512  1
  S  S28  1  0.15610295  0.47700902  0.44528871  1
  S  S29  1  0.84542849  0.46855630  0.56145137  1
  S  S30  1  0.46326094  0.49119128  0.85399329  1
  S  S31  1  0.57750146  0.49760845  0.21552260  1
  S  S32  1  0.92772709  0.47787752  0.00372495  1
  S  S33  1  0.08464596  0.51428094  0.00988264  1
  S  S34  1  0.67045994  0.46078920  0.89525794  1
  S  S35  1  0.34485540  0.45719835  0.10623395  1
  S  S36  1  0.60841528  0.94549678  0.67061811  1
  S  S37  1  0.40959147  0.99738127  0.34490591  1
  S  S38  1  0.24423761  0.50539430  0.29424328  1
  S  S39  1  0.77307796  0.50748338  0.69687235  1
  S  S40  1  0.67690312  0.93666427  0.44875207  1
  S  S41  1  0.32557838  0.03840559  0.54371782  1
