# generated using pymatgen
data_Pr2Mn3(SbS3)4
_symmetry_space_group_name_H-M   'P 1'
_cell_length_a   20.02960800
_cell_length_b   3.90410600
_cell_length_c   14.95364829
_cell_angle_alpha   90.00000000
_cell_angle_beta   126.33350609
_cell_angle_gamma   90.00000000
_symmetry_Int_Tables_number   1
_chemical_formula_structural   Pr2Mn3(SbS3)4
_chemical_formula_sum   'Pr4 Mn6 Sb8 S24'
_cell_volume   942.00006694
_cell_formula_units_Z   2
loop_
 _symmetry_equiv_pos_site_id
 _symmetry_equiv_pos_as_xyz
  1  'x, y, z'
loop_
 _atom_site_type_symbol
 _atom_site_label
 _atom_site_symmetry_multiplicity
 _atom_site_fract_x
 _atom_site_fract_y
 _atom_site_fract_z
 _atom_site_occupancy
  Pr  Pr0  1  0.26299939  0.45856291  0.86680889  1
  Pr  Pr1  1  0.73174828  0.54517412  0.13563192  1
  Pr  Pr2  1  0.77820128  0.98159418  0.87122115  1
  Pr  Pr3  1  0.23076284  0.02004554  0.13135477  1
  Mn  Mn4  1  0.28841513  0.55190566  0.58737368  1
  Mn  Mn5  1  0.70858426  0.45154809  0.39817746  1
  Mn  Mn6  1  0.99590354  0.96863009  0.00276337  1
  Mn  Mn7  1  0.79768347  0.99574515  0.61257906  1
  Mn  Mn8  1  0.18410122  0.97643297  0.39275969  1
  Mn  Mn9  1  0.51871316  0.52363628  0.02940879  1
  Sb  Sb10  1  0.90272521  0.03417392  0.46306231  1
  Sb  Sb11  1  0.11390683  0.99122149  0.55433256  1
  Sb  Sb12  1  0.03192979  0.49679916  0.80360338  1
  Sb  Sb13  1  0.97223505  0.49528442  0.20060196  1
  Sb  Sb14  1  0.39557350  0.49503103  0.44961585  1
  Sb  Sb15  1  0.62286018  0.44764623  0.55834784  1
  Sb  Sb16  1  0.52874317  0.97930758  0.81701882  1
  Sb  Sb17  1  0.46793396  0.03033099  0.19310092  1
  S  S18  1  0.93757401  0.96655716  0.80892128  1
  S  S19  1  0.06152609  0.99585343  0.20368289  1
  S  S20  1  0.42037046  0.98386282  0.99239951  1
  S  S21  1  0.59213872  0.03534223  0.02741102  1
  S  S22  1  0.19222732  0.94008744  0.91259940  1
  S  S23  1  0.83313531  0.02288120  0.10976396  1
  S  S24  1  0.09604254  0.52875710  0.66443561  1
  S  S25  1  0.90215941  0.52024869  0.35555472  1
  S  S26  1  0.74040748  0.91314176  0.31644882  1
  S  S27  1  0.26770405  0.96677361  0.69553808  1
  S  S28  1  0.15608614  0.47663633  0.44570064  1
  S  S29  1  0.84580911  0.46695285  0.56186425  1
  S  S30  1  0.46302310  0.49104396  0.85405559  1
  S  S31  1  0.57715757  0.49731604  0.21521948  1
  S  S32  1  0.92783120  0.47852524  0.00415134  1
  S  S33  1  0.08482205  0.51421881  0.00996681  1
  S  S34  1  0.67055488  0.46191670  0.89517950  1
  S  S35  1  0.34468038  0.45740293  0.10628038  1
  S  S36  1  0.60852007  0.94655980  0.67109906  1
  S  S37  1  0.40942148  0.99712646  0.34485733  1
  S  S38  1  0.24411524  0.50330829  0.29392808  1
  S  S39  1  0.77322649  0.50578891  0.69727475  1
  S  S40  1  0.67658139  0.93756583  0.44801091  1
  S  S41  1  0.32551302  0.03855931  0.54369030  1
