# generated using pymatgen
data_Pr2Mn3(SbS3)4
_symmetry_space_group_name_H-M   'P 1'
_cell_length_a   20.02960800
_cell_length_b   3.90410600
_cell_length_c   14.95364829
_cell_angle_alpha   90.00000000
_cell_angle_beta   126.33350609
_cell_angle_gamma   90.00000000
_symmetry_Int_Tables_number   1
_chemical_formula_structural   Pr2Mn3(SbS3)4
_chemical_formula_sum   'Pr4 Mn6 Sb8 S24'
_cell_volume   942.00006694
_cell_formula_units_Z   2
loop_
 _symmetry_equiv_pos_site_id
 _symmetry_equiv_pos_as_xyz
  1  'x, y, z'
loop_
 _atom_site_type_symbol
 _atom_site_label
 _atom_site_symmetry_multiplicity
 _atom_site_fract_x
 _atom_site_fract_y
 _atom_site_fract_z
 _atom_site_occupancy
  Pr  Pr0  1  0.26286775  0.45835813  0.86674810  1
  Pr  Pr1  1  0.73174660  0.54350773  0.13550358  1
  Pr  Pr2  1  0.77814328  0.98131110  0.87120183  1
  Pr  Pr3  1  0.23070219  0.01955153  0.13138191  1
  Mn  Mn4  1  0.28876221  0.55131487  0.58776189  1
  Mn  Mn5  1  0.70872722  0.45077307  0.39818064  1
  Mn  Mn6  1  0.99572520  0.96836923  0.00269095  1
  Mn  Mn7  1  0.79791511  0.99594693  0.61269515  1
  Mn  Mn8  1  0.18409921  0.97686379  0.39265936  1
  Mn  Mn9  1  0.51878390  0.52357922  0.02976214  1
  Sb  Sb10  1  0.90269895  0.03372847  0.46282207  1
  Sb  Sb11  1  0.11400843  0.99057071  0.55433832  1
  Sb  Sb12  1  0.03189835  0.49598850  0.80353500  1
  Sb  Sb13  1  0.97233802  0.49555640  0.20056603  1
  Sb  Sb14  1  0.39552841  0.49449958  0.44960916  1
  Sb  Sb15  1  0.62289176  0.44761385  0.55815570  1
  Sb  Sb16  1  0.52870529  0.97894235  0.81706048  1
  Sb  Sb17  1  0.46778152  0.02990012  0.19316252  1
  S  S18  1  0.93766352  0.96645688  0.80896483  1
  S  S19  1  0.06163313  0.99489871  0.20404780  1
  S  S20  1  0.42036555  0.98498675  0.99222525  1
  S  S21  1  0.59208937  0.03408849  0.02711859  1
  S  S22  1  0.19224470  0.93929570  0.91268428  1
  S  S23  1  0.83296317  0.02274344  0.10936123  1
  S  S24  1  0.09585313  0.52861943  0.66456917  1
  S  S25  1  0.90243953  0.52056533  0.35613670  1
  S  S26  1  0.74052283  0.91316162  0.31670018  1
  S  S27  1  0.26801822  0.96643065  0.69595323  1
  S  S28  1  0.15605286  0.47606111  0.44604508  1
  S  S29  1  0.84629672  0.46515153  0.56229873  1
  S  S30  1  0.46302173  0.49156619  0.85405077  1
  S  S31  1  0.57685099  0.49740856  0.21496298  1
  S  S32  1  0.92798493  0.47948836  0.00459632  1
  S  S33  1  0.08501237  0.51476640  0.01006926  1
  S  S34  1  0.67049520  0.46219198  0.89489446  1
  S  S35  1  0.34456230  0.45729496  0.10637782  1
  S  S36  1  0.60855979  0.94715334  0.67145057  1
  S  S37  1  0.40926232  0.99782434  0.34488138  1
  S  S38  1  0.24412397  0.50147468  0.29381028  1
  S  S39  1  0.77326370  0.50469274  0.69752184  1
  S  S40  1  0.67616855  0.93847870  0.44733757  1
  S  S41  1  0.32533674  0.03858129  0.54354544  1
