# generated using pymatgen
data_Pr2Mn3(SbS3)4
_symmetry_space_group_name_H-M   'P 1'
_cell_length_a   20.02960800
_cell_length_b   3.90410600
_cell_length_c   14.95364829
_cell_angle_alpha   90.00000000
_cell_angle_beta   126.33350609
_cell_angle_gamma   90.00000000
_symmetry_Int_Tables_number   1
_chemical_formula_structural   Pr2Mn3(SbS3)4
_chemical_formula_sum   'Pr4 Mn6 Sb8 S24'
_cell_volume   942.00006694
_cell_formula_units_Z   2
loop_
 _symmetry_equiv_pos_site_id
 _symmetry_equiv_pos_as_xyz
  1  'x, y, z'
loop_
 _atom_site_type_symbol
 _atom_site_label
 _atom_site_symmetry_multiplicity
 _atom_site_fract_x
 _atom_site_fract_y
 _atom_site_fract_z
 _atom_site_occupancy
  Pr  Pr0  1  0.26970657  0.50607171  0.87062264  1
  Pr  Pr1  1  0.73461664  0.51429898  0.13500694  1
  Pr  Pr2  1  0.76436965  0.03277249  0.86931205  1
  Pr  Pr3  1  0.22893003  0.97239340  0.12941808  1
  Mn  Mn4  1  0.29968849  0.46686172  0.60933498  1
  Mn  Mn5  1  0.68653473  0.46296061  0.36605254  1
  Mn  Mn6  1  0.00034767  0.98208772  0.00794787  1
  Mn  Mn7  1  0.79157906  0.03053931  0.61385334  1
  Mn  Mn8  1  0.19755804  0.01630114  0.36991979  1
  Mn  Mn9  1  0.48127663  0.47001546  0.98161766  1
  Sb  Sb10  1  0.89009480  0.97790694  0.44732080  1
  Sb  Sb11  1  0.11216574  0.97838679  0.54759094  1
  Sb  Sb12  1  0.03815413  0.52646298  0.82557599  1
  Sb  Sb13  1  0.96890379  0.48630697  0.19266066  1
  Sb  Sb14  1  0.39771058  0.49688145  0.45374364  1
  Sb  Sb15  1  0.61188372  0.48245416  0.54756074  1
  Sb  Sb16  1  0.52960322  0.97197393  0.80464468  1
  Sb  Sb17  1  0.46523956  0.02729964  0.18538723  1
  S  S18  1  0.94162159  0.01449879  0.80960369  1
  S  S19  1  0.06649490  0.00226506  0.20370783  1
  S  S20  1  0.41735721  0.98298300  0.97708726  1
  S  S21  1  0.58652192  0.01900569  0.00955760  1
  S  S22  1  0.16187037  0.02661237  0.89675308  1
  S  S23  1  0.82683859  0.98517483  0.10251431  1
  S  S24  1  0.08578342  0.50135162  0.63534814  1
  S  S25  1  0.91581223  0.49304116  0.35325566  1
  S  S26  1  0.73502322  0.00601940  0.29500281  1
  S  S27  1  0.26078112  0.01548429  0.70426866  1
  S  S28  1  0.17067696  0.52142332  0.43846860  1
  S  S29  1  0.80895369  0.51800682  0.53879540  1
  S  S30  1  0.43422044  0.47675743  0.80243105  1
  S  S31  1  0.55465566  0.50091599  0.18065010  1
  S  S32  1  0.92217764  0.50869923  0.98692944  1
  S  S33  1  0.08867215  0.50200476  0.02551313  1
  S  S34  1  0.66786902  0.55628615  0.89562751  1
  S  S35  1  0.32972309  0.46001724  0.10055959  1
  S  S36  1  0.58897080  0.00436139  0.64632783  1
  S  S37  1  0.39303064  0.98792672  0.33208017  1
  S  S38  1  0.24703624  0.47342917  0.31617736  1
  S  S39  1  0.76389642  0.50178872  0.69224687  1
  S  S40  1  0.65800810  0.98627733  0.43657637  1
  S  S41  1  0.33034773  0.98934138  0.55303967  1
