# generated using pymatgen
data_Pr2Mn3(SbS3)4
_symmetry_space_group_name_H-M   'P 1'
_cell_length_a   20.02960800
_cell_length_b   3.90410600
_cell_length_c   14.95364829
_cell_angle_alpha   90.00000000
_cell_angle_beta   126.33350609
_cell_angle_gamma   90.00000000
_symmetry_Int_Tables_number   1
_chemical_formula_structural   Pr2Mn3(SbS3)4
_chemical_formula_sum   'Pr4 Mn6 Sb8 S24'
_cell_volume   942.00006694
_cell_formula_units_Z   2
loop_
 _symmetry_equiv_pos_site_id
 _symmetry_equiv_pos_as_xyz
  1  'x, y, z'
loop_
 _atom_site_type_symbol
 _atom_site_label
 _atom_site_symmetry_multiplicity
 _atom_site_fract_x
 _atom_site_fract_y
 _atom_site_fract_z
 _atom_site_occupancy
  Pr  Pr0  1  0.26275373  0.45829915  0.86673576  1
  Pr  Pr1  1  0.73172879  0.54211995  0.13540012  1
  Pr  Pr2  1  0.77809502  0.98103144  0.87120415  1
  Pr  Pr3  1  0.23066398  0.01926892  0.13150372  1
  Mn  Mn4  1  0.28898971  0.55075990  0.58807801  1
  Mn  Mn5  1  0.70882243  0.44974496  0.39824041  1
  Mn  Mn6  1  0.99561931  0.96814731  0.00262734  1
  Mn  Mn7  1  0.79806885  0.99617112  0.61280151  1
  Mn  Mn8  1  0.18390380  0.97707604  0.39239948  1
  Mn  Mn9  1  0.51894211  0.52330004  0.03025140  1
  Sb  Sb10  1  0.90267638  0.03309718  0.46258902  1
  Sb  Sb11  1  0.11405888  0.98987055  0.55424844  1
  Sb  Sb12  1  0.03185494  0.49531306  0.80355229  1
  Sb  Sb13  1  0.97248781  0.49570652  0.20053756  1
  Sb  Sb14  1  0.39552735  0.49386850  0.44956482  1
  Sb  Sb15  1  0.62297541  0.44745546  0.55803980  1
  Sb  Sb16  1  0.52863260  0.97814133  0.81706156  1
  Sb  Sb17  1  0.46760147  0.02935659  0.19320971  1
  S  S18  1  0.93785426  0.96640491  0.80920315  1
  S  S19  1  0.06185525  0.99488178  0.20457905  1
  S  S20  1  0.42052844  0.98594963  0.99221252  1
  S  S21  1  0.59211146  0.03266132  0.02671746  1
  S  S22  1  0.19215568  0.93897121  0.91281788  1
  S  S23  1  0.83284999  0.02257748  0.10900978  1
  S  S24  1  0.09555696  0.52819975  0.66449916  1
  S  S25  1  0.90277847  0.52146409  0.35670799  1
  S  S26  1  0.74060076  0.91256080  0.31705855  1
  S  S27  1  0.26822712  0.96672451  0.69639678  1
  S  S28  1  0.15597575  0.47591716  0.44631208  1
  S  S29  1  0.84681290  0.46429879  0.56280466  1
  S  S30  1  0.46298411  0.49158134  0.85392045  1
  S  S31  1  0.57653338  0.49785635  0.21488544  1
  S  S32  1  0.92805660  0.48085919  0.00496224  1
  S  S33  1  0.08532173  0.51485996  0.01030579  1
  S  S34  1  0.67031880  0.46225721  0.89451957  1
  S  S35  1  0.34469632  0.45689560  0.10670580  1
  S  S36  1  0.60875907  0.94729622  0.67195362  1
  S  S37  1  0.40909060  0.99902540  0.34489878  1
  S  S38  1  0.24411829  0.50056803  0.29354305  1
  S  S39  1  0.77325747  0.50354401  0.69763969  1
  S  S40  1  0.67586880  0.93951294  0.44659197  1
  S  S41  1  0.32507797  0.03830568  0.54324950  1
