# generated using pymatgen
data_Pr2Mn3(SbS3)4
_symmetry_space_group_name_H-M   'P 1'
_cell_length_a   20.02960800
_cell_length_b   3.90410600
_cell_length_c   14.95364829
_cell_angle_alpha   90.00000000
_cell_angle_beta   126.33350609
_cell_angle_gamma   90.00000000
_symmetry_Int_Tables_number   1
_chemical_formula_structural   Pr2Mn3(SbS3)4
_chemical_formula_sum   'Pr4 Mn6 Sb8 S24'
_cell_volume   942.00006694
_cell_formula_units_Z   2
loop_
 _symmetry_equiv_pos_site_id
 _symmetry_equiv_pos_as_xyz
  1  'x, y, z'
loop_
 _atom_site_type_symbol
 _atom_site_label
 _atom_site_symmetry_multiplicity
 _atom_site_fract_x
 _atom_site_fract_y
 _atom_site_fract_z
 _atom_site_occupancy
  Pr  Pr0  1  0.26264132  0.45811680  0.86665704  1
  Pr  Pr1  1  0.73163568  0.54057574  0.13527332  1
  Pr  Pr2  1  0.77797219  0.98075392  0.87114197  1
  Pr  Pr3  1  0.23068258  0.01937926  0.13171197  1
  Mn  Mn4  1  0.28913137  0.54979905  0.58828334  1
  Mn  Mn5  1  0.70903584  0.44905559  0.39838140  1
  Mn  Mn6  1  0.99533754  0.96836116  0.00240542  1
  Mn  Mn7  1  0.79816305  0.99601569  0.61284502  1
  Mn  Mn8  1  0.18382775  0.97682262  0.39227364  1
  Mn  Mn9  1  0.51906620  0.52285974  0.03060307  1
  Sb  Sb10  1  0.90268524  0.03276959  0.46238636  1
  Sb  Sb11  1  0.11417516  0.98897488  0.55422281  1
  Sb  Sb12  1  0.03195238  0.49477148  0.80372709  1
  Sb  Sb13  1  0.97254940  0.49575697  0.20042487  1
  Sb  Sb14  1  0.39544343  0.49323027  0.44928117  1
  Sb  Sb15  1  0.62311836  0.44715718  0.55801506  1
  Sb  Sb16  1  0.52855045  0.97741963  0.81708070  1
  Sb  Sb17  1  0.46738610  0.02911685  0.19321582  1
  S  S18  1  0.93799634  0.96657737  0.80930647  1
  S  S19  1  0.06224458  0.99493208  0.20520989  1
  S  S20  1  0.42070924  0.98553713  0.99216846  1
  S  S21  1  0.59219730  0.03109664  0.02617053  1
  S  S22  1  0.19197570  0.93916028  0.91271852  1
  S  S23  1  0.83275414  0.02231462  0.10866404  1
  S  S24  1  0.09523275  0.52843898  0.66442951  1
  S  S25  1  0.90312285  0.52230225  0.35730653  1
  S  S26  1  0.74060518  0.91222351  0.31716991  1
  S  S27  1  0.26833587  0.96676286  0.69669545  1
  S  S28  1  0.15585261  0.47632367  0.44644518  1
  S  S29  1  0.84725769  0.46422747  0.56308970  1
  S  S30  1  0.46291518  0.49167772  0.85361534  1
  S  S31  1  0.57634063  0.49793339  0.21479968  1
  S  S32  1  0.92808359  0.48207569  0.00524333  1
  S  S33  1  0.08559728  0.51440991  0.01057507  1
  S  S34  1  0.66993256  0.46242317  0.89409448  1
  S  S35  1  0.34480547  0.45671890  0.10714742  1
  S  S36  1  0.60901758  0.94734478  0.67257983  1
  S  S37  1  0.40875666  0.00045593  0.34476430  1
  S  S38  1  0.24418975  0.49973810  0.29336848  1
  S  S39  1  0.77323330  0.50214757  0.69763281  1
  S  S40  1  0.67557451  0.94083593  0.44588843  1
  S  S41  1  0.32489316  0.03827868  0.54312937  1
