# generated using pymatgen
data_Pr2Mn3(SbS3)4
_symmetry_space_group_name_H-M   'P 1'
_cell_length_a   20.02960800
_cell_length_b   3.90410600
_cell_length_c   14.95364829
_cell_angle_alpha   90.00000000
_cell_angle_beta   126.33350609
_cell_angle_gamma   90.00000000
_symmetry_Int_Tables_number   1
_chemical_formula_structural   Pr2Mn3(SbS3)4
_chemical_formula_sum   'Pr4 Mn6 Sb8 S24'
_cell_volume   942.00006694
_cell_formula_units_Z   2
loop_
 _symmetry_equiv_pos_site_id
 _symmetry_equiv_pos_as_xyz
  1  'x, y, z'
loop_
 _atom_site_type_symbol
 _atom_site_label
 _atom_site_symmetry_multiplicity
 _atom_site_fract_x
 _atom_site_fract_y
 _atom_site_fract_z
 _atom_site_occupancy
  Pr  Pr0  1  0.26252088  0.45815498  0.86654395  1
  Pr  Pr1  1  0.73164802  0.53941069  0.13519912  1
  Pr  Pr2  1  0.77773221  0.98065792  0.87098005  1
  Pr  Pr3  1  0.23069438  0.01944297  0.13184903  1
  Mn  Mn4  1  0.28921110  0.54910153  0.58834829  1
  Mn  Mn5  1  0.70918845  0.44815360  0.39854608  1
  Mn  Mn6  1  0.99512448  0.96853682  0.00218227  1
  Mn  Mn7  1  0.79830319  0.99618634  0.61291458  1
  Mn  Mn8  1  0.18378887  0.97683835  0.39212722  1
  Mn  Mn9  1  0.51917815  0.52244200  0.03087618  1
  Sb  Sb10  1  0.90268404  0.03259681  0.46217186  1
  Sb  Sb11  1  0.11426819  0.98792314  0.55423766  1
  Sb  Sb12  1  0.03202975  0.49426864  0.80387404  1
  Sb  Sb13  1  0.97260247  0.49611743  0.20020146  1
  Sb  Sb14  1  0.39540586  0.49228344  0.44904974  1
  Sb  Sb15  1  0.62323362  0.44683590  0.55799179  1
  Sb  Sb16  1  0.52847473  0.97673070  0.81711759  1
  Sb  Sb17  1  0.46716413  0.02880817  0.19325244  1
  S  S18  1  0.93821517  0.96680186  0.80944643  1
  S  S19  1  0.06270712  0.99562516  0.20573515  1
  S  S20  1  0.42092576  0.98529924  0.99217971  1
  S  S21  1  0.59220707  0.02997283  0.02572780  1
  S  S22  1  0.19178695  0.93999791  0.91268736  1
  S  S23  1  0.83274613  0.02139756  0.10853172  1
  S  S24  1  0.09504980  0.52916812  0.66448244  1
  S  S25  1  0.90339785  0.52226042  0.35776422  1
  S  S26  1  0.74059563  0.91155888  0.31713971  1
  S  S27  1  0.26845969  0.96656367  0.69700914  1
  S  S28  1  0.15587801  0.47676259  0.44687129  1
  S  S29  1  0.84754555  0.46458925  0.56344604  1
  S  S30  1  0.46287974  0.49255623  0.85335390  1
  S  S31  1  0.57632232  0.49860410  0.21492107  1
  S  S32  1  0.92799747  0.48349674  0.00543687  1
  S  S33  1  0.08565723  0.51347272  0.01060250  1
  S  S34  1  0.66966114  0.46296095  0.89384122  1
  S  S35  1  0.34476626  0.45658591  0.10724178  1
  S  S36  1  0.60925556  0.94723043  0.67310846  1
  S  S37  1  0.40846437  0.00188320  0.34472737  1
  S  S38  1  0.24425145  0.49961612  0.29310944  1
  S  S39  1  0.77323651  0.50142691  0.69754116  1
  S  S40  1  0.67519284  0.94180500  0.44525502  1
  S  S41  1  0.32464932  0.03814154  0.54309358  1
