# generated using pymatgen
data_Pr2Mn3(SbS3)4
_symmetry_space_group_name_H-M   'P 1'
_cell_length_a   20.02960800
_cell_length_b   3.90410600
_cell_length_c   14.95364829
_cell_angle_alpha   90.00000000
_cell_angle_beta   126.33350609
_cell_angle_gamma   90.00000000
_symmetry_Int_Tables_number   1
_chemical_formula_structural   Pr2Mn3(SbS3)4
_chemical_formula_sum   'Pr4 Mn6 Sb8 S24'
_cell_volume   942.00006694
_cell_formula_units_Z   2
loop_
 _symmetry_equiv_pos_site_id
 _symmetry_equiv_pos_as_xyz
  1  'x, y, z'
loop_
 _atom_site_type_symbol
 _atom_site_label
 _atom_site_symmetry_multiplicity
 _atom_site_fract_x
 _atom_site_fract_y
 _atom_site_fract_z
 _atom_site_occupancy
  Pr  Pr0  1  0.26241355  0.45802886  0.86641553  1
  Pr  Pr1  1  0.73168862  0.53822618  0.13510423  1
  Pr  Pr2  1  0.77758554  0.98081547  0.87090858  1
  Pr  Pr3  1  0.23071740  0.01959267  0.13198877  1
  Mn  Mn4  1  0.28935731  0.54880969  0.58844516  1
  Mn  Mn5  1  0.70930457  0.44724981  0.39866645  1
  Mn  Mn6  1  0.99494105  0.96871871  0.00198909  1
  Mn  Mn7  1  0.79853162  0.99597789  0.61302647  1
  Mn  Mn8  1  0.18378710  0.97669711  0.39207054  1
  Mn  Mn9  1  0.51922116  0.52165967  0.03104483  1
  Sb  Sb10  1  0.90274264  0.03251133  0.46206747  1
  Sb  Sb11  1  0.11431747  0.98690181  0.55415929  1
  Sb  Sb12  1  0.03206400  0.49405310  0.80396441  1
  Sb  Sb13  1  0.97270525  0.49649751  0.20003513  1
  Sb  Sb14  1  0.39537213  0.49134701  0.44887574  1
  Sb  Sb15  1  0.62338242  0.44682294  0.55806259  1
  Sb  Sb16  1  0.52838886  0.97585401  0.81709167  1
  Sb  Sb17  1  0.46703772  0.02846792  0.19328309  1
  S  S18  1  0.93841981  0.96609649  0.80948213  1
  S  S19  1  0.06303938  0.99636971  0.20618982  1
  S  S20  1  0.42117056  0.98538699  0.99205382  1
  S  S21  1  0.59218567  0.02916472  0.02527239  1
  S  S22  1  0.19174692  0.94023652  0.91273586  1
  S  S23  1  0.83277362  0.02101295  0.10841298  1
  S  S24  1  0.09487079  0.53032469  0.66465459  1
  S  S25  1  0.90359858  0.52265737  0.35809843  1
  S  S26  1  0.74069617  0.91103810  0.31713433  1
  S  S27  1  0.26864690  0.96626839  0.69742298  1
  S  S28  1  0.15585881  0.47787333  0.44716967  1
  S  S29  1  0.84796486  0.46413175  0.56376979  1
  S  S30  1  0.46294058  0.49339551  0.85311717  1
  S  S31  1  0.57614971  0.49942784  0.21503321  1
  S  S32  1  0.92791346  0.48494954  0.00559433  1
  S  S33  1  0.08598190  0.51262642  0.01078597  1
  S  S34  1  0.66948675  0.46325041  0.89355472  1
  S  S35  1  0.34461193  0.45554931  0.10733547  1
  S  S36  1  0.60947689  0.94708557  0.67354389  1
  S  S37  1  0.40815215  0.00313135  0.34460396  1
  S  S38  1  0.24432638  0.49953860  0.29290973  1
  S  S39  1  0.77345099  0.50163668  0.69756259  1
  S  S40  1  0.67464665  0.94273385  0.44448635  1
  S  S41  1  0.32439951  0.03739166  0.54298942  1
