# generated using pymatgen
data_Pr2Mn3(SbS3)4
_symmetry_space_group_name_H-M   'P 1'
_cell_length_a   20.02960800
_cell_length_b   3.90410600
_cell_length_c   14.95364829
_cell_angle_alpha   90.00000000
_cell_angle_beta   126.33350609
_cell_angle_gamma   90.00000000
_symmetry_Int_Tables_number   1
_chemical_formula_structural   Pr2Mn3(SbS3)4
_chemical_formula_sum   'Pr4 Mn6 Sb8 S24'
_cell_volume   942.00006694
_cell_formula_units_Z   2
loop_
 _symmetry_equiv_pos_site_id
 _symmetry_equiv_pos_as_xyz
  1  'x, y, z'
loop_
 _atom_site_type_symbol
 _atom_site_label
 _atom_site_symmetry_multiplicity
 _atom_site_fract_x
 _atom_site_fract_y
 _atom_site_fract_z
 _atom_site_occupancy
  Pr  Pr0  1  0.26234409  0.45799891  0.86639266  1
  Pr  Pr1  1  0.73182967  0.53683211  0.13516008  1
  Pr  Pr2  1  0.77749743  0.98083987  0.87085894  1
  Pr  Pr3  1  0.23073541  0.01974034  0.13204542  1
  Mn  Mn4  1  0.28946007  0.54836012  0.58850657  1
  Mn  Mn5  1  0.70934226  0.44653112  0.39857826  1
  Mn  Mn6  1  0.99477870  0.96904750  0.00178192  1
  Mn  Mn7  1  0.79881710  0.99625716  0.61328868  1
  Mn  Mn8  1  0.18386901  0.97659974  0.39216045  1
  Mn  Mn9  1  0.51935616  0.52186215  0.03130337  1
  Sb  Sb10  1  0.90276929  0.03222728  0.46199903  1
  Sb  Sb11  1  0.11434945  0.98624120  0.55408822  1
  Sb  Sb12  1  0.03216878  0.49399689  0.80409374  1
  Sb  Sb13  1  0.97267935  0.49675311  0.19982433  1
  Sb  Sb14  1  0.39530743  0.49036214  0.44875076  1
  Sb  Sb15  1  0.62353298  0.44665084  0.55810387  1
  Sb  Sb16  1  0.52833314  0.97513905  0.81710498  1
  Sb  Sb17  1  0.46701499  0.02801117  0.19335709  1
  S  S18  1  0.93851860  0.96548459  0.80948069  1
  S  S19  1  0.06330013  0.99666231  0.20654701  1
  S  S20  1  0.42130554  0.98530533  0.99179353  1
  S  S21  1  0.59206847  0.02882508  0.02491682  1
  S  S22  1  0.19175777  0.94005890  0.91282631  1
  S  S23  1  0.83288377  0.02031635  0.10849211  1
  S  S24  1  0.09477232  0.53154204  0.66460120  1
  S  S25  1  0.90379188  0.52324808  0.35829293  1
  S  S26  1  0.74073605  0.90997242  0.31725324  1
  S  S27  1  0.26891230  0.96605935  0.69780852  1
  S  S28  1  0.15568161  0.47798775  0.44721395  1
  S  S29  1  0.84844965  0.46332496  0.56422041  1
  S  S30  1  0.46307983  0.49414126  0.85291636  1
  S  S31  1  0.57587632  0.50030068  0.21518578  1
  S  S32  1  0.92799671  0.48624960  0.00578932  1
  S  S33  1  0.08626248  0.51255706  0.01105650  1
  S  S34  1  0.66943513  0.46345736  0.89338516  1
  S  S35  1  0.34444899  0.45529510  0.10759969  1
  S  S36  1  0.60956487  0.94662468  0.67385005  1
  S  S37  1  0.40788895  0.00408058  0.34442860  1
  S  S38  1  0.24438201  0.49913846  0.29270335  1
  S  S39  1  0.77362161  0.50155122  0.69759884  1
  S  S40  1  0.67418856  0.94339774  0.44390906  1
  S  S41  1  0.32403977  0.03632815  0.54278819  1
