# generated using pymatgen
data_Pr2Mn3(SbS3)4
_symmetry_space_group_name_H-M   'P 1'
_cell_length_a   20.02960800
_cell_length_b   3.90410600
_cell_length_c   14.95364829
_cell_angle_alpha   90.00000000
_cell_angle_beta   126.33350609
_cell_angle_gamma   90.00000000
_symmetry_Int_Tables_number   1
_chemical_formula_structural   Pr2Mn3(SbS3)4
_chemical_formula_sum   'Pr4 Mn6 Sb8 S24'
_cell_volume   942.00006694
_cell_formula_units_Z   2
loop_
 _symmetry_equiv_pos_site_id
 _symmetry_equiv_pos_as_xyz
  1  'x, y, z'
loop_
 _atom_site_type_symbol
 _atom_site_label
 _atom_site_symmetry_multiplicity
 _atom_site_fract_x
 _atom_site_fract_y
 _atom_site_fract_z
 _atom_site_occupancy
  Pr  Pr0  1  0.26226124  0.45800733  0.86641614  1
  Pr  Pr1  1  0.73198783  0.53532067  0.13528390  1
  Pr  Pr2  1  0.77743768  0.98072683  0.87088727  1
  Pr  Pr3  1  0.23067915  0.01969611  0.13198230  1
  Mn  Mn4  1  0.28958846  0.54809295  0.58866918  1
  Mn  Mn5  1  0.70933209  0.44577818  0.39847615  1
  Mn  Mn6  1  0.99467508  0.96953604  0.00161236  1
  Mn  Mn7  1  0.79912599  0.99671667  0.61355533  1
  Mn  Mn8  1  0.18402385  0.97611718  0.39241156  1
  Mn  Mn9  1  0.51952259  0.52169838  0.03152051  1
  Sb  Sb10  1  0.90281409  0.03201305  0.46195979  1
  Sb  Sb11  1  0.11444267  0.98544650  0.55405311  1
  Sb  Sb12  1  0.03227855  0.49407731  0.80427757  1
  Sb  Sb13  1  0.97257230  0.49711565  0.19963420  1
  Sb  Sb14  1  0.39524333  0.48901028  0.44863676  1
  Sb  Sb15  1  0.62368677  0.44611521  0.55818443  1
  Sb  Sb16  1  0.52828779  0.97466920  0.81712357  1
  Sb  Sb17  1  0.46700812  0.02756387  0.19340401  1
  S  S18  1  0.93860862  0.96508207  0.80951002  1
  S  S19  1  0.06364123  0.99645543  0.20704820  1
  S  S20  1  0.42152100  0.98462297  0.99186403  1
  S  S21  1  0.59182789  0.02894499  0.02452757  1
  S  S22  1  0.19192221  0.94018836  0.91310816  1
  S  S23  1  0.83290356  0.01987793  0.10846923  1
  S  S24  1  0.09476175  0.53293588  0.66462526  1
  S  S25  1  0.90385143  0.52444868  0.35838933  1
  S  S26  1  0.74080914  0.90926266  0.31749620  1
  S  S27  1  0.26912820  0.96493386  0.69809477  1
  S  S28  1  0.15537637  0.47819039  0.44706613  1
  S  S29  1  0.84883005  0.46300337  0.56459731  1
  S  S30  1  0.46324539  0.49461614  0.85287721  1
  S  S31  1  0.57558463  0.50136080  0.21543369  1
  S  S32  1  0.92802428  0.48822639  0.00589343  1
  S  S33  1  0.08651190  0.51232732  0.01119796  1
  S  S34  1  0.66936179  0.46389483  0.89312351  1
  S  S35  1  0.34433193  0.45446391  0.10779900  1
  S  S36  1  0.60947668  0.94672987  0.67388005  1
  S  S37  1  0.40782169  0.00538529  0.34448493  1
  S  S38  1  0.24429842  0.49933957  0.29257244  1
  S  S39  1  0.77369836  0.50125046  0.69751720  1
  S  S40  1  0.67374738  0.94402007  0.44343788  1
  S  S41  1  0.32373567  0.03484173  0.54263345  1
