# generated using pymatgen
data_Pr2Mn3(SbS3)4
_symmetry_space_group_name_H-M   'P 1'
_cell_length_a   20.02960800
_cell_length_b   3.90410600
_cell_length_c   14.95364829
_cell_angle_alpha   90.00000000
_cell_angle_beta   126.33350609
_cell_angle_gamma   90.00000000
_symmetry_Int_Tables_number   1
_chemical_formula_structural   Pr2Mn3(SbS3)4
_chemical_formula_sum   'Pr4 Mn6 Sb8 S24'
_cell_volume   942.00006694
_cell_formula_units_Z   2
loop_
 _symmetry_equiv_pos_site_id
 _symmetry_equiv_pos_as_xyz
  1  'x, y, z'
loop_
 _atom_site_type_symbol
 _atom_site_label
 _atom_site_symmetry_multiplicity
 _atom_site_fract_x
 _atom_site_fract_y
 _atom_site_fract_z
 _atom_site_occupancy
  Pr  Pr0  1  0.26217635  0.45779568  0.86639404  1
  Pr  Pr1  1  0.73214682  0.53422500  0.13538445  1
  Pr  Pr2  1  0.77733554  0.98044649  0.87090486  1
  Pr  Pr3  1  0.23070870  0.01946517  0.13206883  1
  Mn  Mn4  1  0.28961208  0.54762751  0.58878754  1
  Mn  Mn5  1  0.70941458  0.44560434  0.39834849  1
  Mn  Mn6  1  0.99457301  0.97003152  0.00134607  1
  Mn  Mn7  1  0.79935363  0.99710674  0.61385642  1
  Mn  Mn8  1  0.18416715  0.97558662  0.39269690  1
  Mn  Mn9  1  0.51966055  0.52127231  0.03164732  1
  Sb  Sb10  1  0.90289102  0.03153361  0.46194627  1
  Sb  Sb11  1  0.11458151  0.98433239  0.55408561  1
  Sb  Sb12  1  0.03237761  0.49391797  0.80435016  1
  Sb  Sb13  1  0.97242799  0.49726611  0.19944565  1
  Sb  Sb14  1  0.39514784  0.48801133  0.44846138  1
  Sb  Sb15  1  0.62380923  0.44560244  0.55812048  1
  Sb  Sb16  1  0.52820642  0.97425168  0.81719288  1
  Sb  Sb17  1  0.46694107  0.02727504  0.19337359  1
  S  S18  1  0.93859380  0.96440775  0.80951311  1
  S  S19  1  0.06400081  0.99568040  0.20754501  1
  S  S20  1  0.42184656  0.98416401  0.99199023  1
  S  S21  1  0.59162626  0.02909019  0.02427893  1
  S  S22  1  0.19191187  0.94051716  0.91316162  1
  S  S23  1  0.83284360  0.01951810  0.10825080  1
  S  S24  1  0.09489331  0.53366692  0.66491617  1
  S  S25  1  0.90394900  0.52544232  0.35849745  1
  S  S26  1  0.74076890  0.90862632  0.31762586  1
  S  S27  1  0.26924466  0.96417832  0.69818143  1
  S  S28  1  0.15511082  0.47812006  0.44690550  1
  S  S29  1  0.84903556  0.46215332  0.56497646  1
  S  S30  1  0.46339677  0.49447315  0.85290815  1
  S  S31  1  0.57526463  0.50209016  0.21567679  1
  S  S32  1  0.92796165  0.48998117  0.00595839  1
  S  S33  1  0.08685216  0.51223187  0.01126014  1
  S  S34  1  0.66925882  0.46378089  0.89272662  1
  S  S35  1  0.34421581  0.45360511  0.10797380  1
  S  S36  1  0.60936609  0.94708646  0.67364269  1
  S  S37  1  0.40767346  0.00713555  0.34462493  1
  S  S38  1  0.24404573  0.50018810  0.29234300  1
  S  S39  1  0.77375172  0.50131110  0.69718901  1
  S  S40  1  0.67331250  0.94462955  0.44304851  1
  S  S41  1  0.32353451  0.03356827  0.54263204  1
