# generated using pymatgen
data_Pr2Mn3(SbS3)4
_symmetry_space_group_name_H-M   'P 1'
_cell_length_a   20.02960800
_cell_length_b   3.90410600
_cell_length_c   14.95364829
_cell_angle_alpha   90.00000000
_cell_angle_beta   126.33350609
_cell_angle_gamma   90.00000000
_symmetry_Int_Tables_number   1
_chemical_formula_structural   Pr2Mn3(SbS3)4
_chemical_formula_sum   'Pr4 Mn6 Sb8 S24'
_cell_volume   942.00006694
_cell_formula_units_Z   2
loop_
 _symmetry_equiv_pos_site_id
 _symmetry_equiv_pos_as_xyz
  1  'x, y, z'
loop_
 _atom_site_type_symbol
 _atom_site_label
 _atom_site_symmetry_multiplicity
 _atom_site_fract_x
 _atom_site_fract_y
 _atom_site_fract_z
 _atom_site_occupancy
  Pr  Pr0  1  0.26203273  0.45764945  0.86638322  1
  Pr  Pr1  1  0.73232404  0.53316981  0.13549443  1
  Pr  Pr2  1  0.77719475  0.98024357  0.87088646  1
  Pr  Pr3  1  0.23076426  0.01913576  0.13223974  1
  Mn  Mn4  1  0.28957713  0.54735115  0.58892212  1
  Mn  Mn5  1  0.70956531  0.44536398  0.39808800  1
  Mn  Mn6  1  0.99449156  0.96990392  0.00098906  1
  Mn  Mn7  1  0.79954221  0.99732014  0.61413784  1
  Mn  Mn8  1  0.18441041  0.97522220  0.39300036  1
  Mn  Mn9  1  0.51998020  0.52075584  0.03183820  1
  Sb  Sb10  1  0.90303881  0.03121159  0.46192160  1
  Sb  Sb11  1  0.11476312  0.98319468  0.55422492  1
  Sb  Sb12  1  0.03248888  0.49360690  0.80442323  1
  Sb  Sb13  1  0.97225200  0.49717947  0.19930200  1
  Sb  Sb14  1  0.39497678  0.48703834  0.44822926  1
  Sb  Sb15  1  0.62385435  0.44553687  0.55806878  1
  Sb  Sb16  1  0.52808871  0.97353040  0.81721632  1
  Sb  Sb17  1  0.46681319  0.02718693  0.19334147  1
  S  S18  1  0.93849901  0.96374923  0.80927874  1
  S  S19  1  0.06424888  0.99558486  0.20788595  1
  S  S20  1  0.42207319  0.98422899  0.99197562  1
  S  S21  1  0.59156225  0.02894012  0.02421181  1
  S  S22  1  0.19195963  0.94060888  0.91303347  1
  S  S23  1  0.83279555  0.01916173  0.10785724  1
  S  S24  1  0.09516155  0.53469744  0.66518325  1
  S  S25  1  0.90400113  0.52603855  0.35846879  1
  S  S26  1  0.74092595  0.90897100  0.31767837  1
  S  S27  1  0.26941846  0.96319442  0.69830413  1
  S  S28  1  0.15491940  0.47801877  0.44678592  1
  S  S29  1  0.84934355  0.46168085  0.56545516  1
  S  S30  1  0.46356062  0.49431066  0.85279589  1
  S  S31  1  0.57479129  0.50306507  0.21557492  1
  S  S32  1  0.92813286  0.49157684  0.00621242  1
  S  S33  1  0.08722175  0.51136755  0.01135034  1
  S  S34  1  0.66919668  0.46408717  0.89241853  1
  S  S35  1  0.34400128  0.45283603  0.10804640  1
  S  S36  1  0.60917762  0.94834361  0.67328235  1
  S  S37  1  0.40750066  0.00885986  0.34496755  1
  S  S38  1  0.24393143  0.50061316  0.29202976  1
  S  S39  1  0.77378274  0.50120088  0.69694310  1
  S  S40  1  0.67298730  0.94547676  0.44285545  1
  S  S41  1  0.32331517  0.03281324  0.54247768  1
