# generated using pymatgen
data_Pr2Mn3(SbS3)4
_symmetry_space_group_name_H-M   'P 1'
_cell_length_a   20.02960800
_cell_length_b   3.90410600
_cell_length_c   14.95364829
_cell_angle_alpha   90.00000000
_cell_angle_beta   126.33350609
_cell_angle_gamma   90.00000000
_symmetry_Int_Tables_number   1
_chemical_formula_structural   Pr2Mn3(SbS3)4
_chemical_formula_sum   'Pr4 Mn6 Sb8 S24'
_cell_volume   942.00006694
_cell_formula_units_Z   2
loop_
 _symmetry_equiv_pos_site_id
 _symmetry_equiv_pos_as_xyz
  1  'x, y, z'
loop_
 _atom_site_type_symbol
 _atom_site_label
 _atom_site_symmetry_multiplicity
 _atom_site_fract_x
 _atom_site_fract_y
 _atom_site_fract_z
 _atom_site_occupancy
  Pr  Pr0  1  0.26190345  0.45751682  0.86648977  1
  Pr  Pr1  1  0.73250866  0.53199858  0.13559479  1
  Pr  Pr2  1  0.77706700  0.97997879  0.87091628  1
  Pr  Pr3  1  0.23082791  0.01913376  0.13237142  1
  Mn  Mn4  1  0.28943434  0.54754034  0.58891581  1
  Mn  Mn5  1  0.70972032  0.44464761  0.39781304  1
  Mn  Mn6  1  0.99448517  0.96967996  0.00070129  1
  Mn  Mn7  1  0.79961162  0.99726593  0.61430303  1
  Mn  Mn8  1  0.18463598  0.97549220  0.39330101  1
  Mn  Mn9  1  0.52026620  0.52031370  0.03196706  1
  Sb  Sb10  1  0.90322924  0.03065632  0.46190742  1
  Sb  Sb11  1  0.11488802  0.98174455  0.55422769  1
  Sb  Sb12  1  0.03260904  0.49320732  0.80450972  1
  Sb  Sb13  1  0.97214188  0.49710833  0.19918121  1
  Sb  Sb14  1  0.39474306  0.48608866  0.44795795  1
  Sb  Sb15  1  0.62382240  0.44539682  0.55800057  1
  Sb  Sb16  1  0.52797384  0.97295081  0.81716163  1
  Sb  Sb17  1  0.46672737  0.02728676  0.19334755  1
  S  S18  1  0.93823283  0.96315014  0.80893667  1
  S  S19  1  0.06469075  0.99570319  0.20816663  1
  S  S20  1  0.42224831  0.98378937  0.99189647  1
  S  S21  1  0.59149263  0.02901131  0.02414347  1
  S  S22  1  0.19199510  0.94066314  0.91287590  1
  S  S23  1  0.83274630  0.01916739  0.10749420  1
  S  S24  1  0.09551515  0.53563127  0.66558046  1
  S  S25  1  0.90398739  0.52758592  0.35851768  1
  S  S26  1  0.74121018  0.90941877  0.31800777  1
  S  S27  1  0.26970228  0.96159514  0.69864238  1
  S  S28  1  0.15460866  0.47818549  0.44661956  1
  S  S29  1  0.84965349  0.46062934  0.56593515  1
  S  S30  1  0.46363670  0.49426275  0.85286723  1
  S  S31  1  0.57439877  0.50347724  0.21562448  1
  S  S32  1  0.92819067  0.49274829  0.00643283  1
  S  S33  1  0.08763735  0.51085970  0.01143747  1
  S  S34  1  0.66909940  0.46516762  0.89217560  1
  S  S35  1  0.34389224  0.45136520  0.10801470  1
  S  S36  1  0.60898768  0.94889041  0.67285833  1
  S  S37  1  0.40729412  0.01090901  0.34507607  1
  S  S38  1  0.24383272  0.50081199  0.29184082  1
  S  S39  1  0.77382630  0.50025379  0.69674739  1
  S  S40  1  0.67271074  0.94700834  0.44255057  1
  S  S41  1  0.32312361  0.03126741  0.54230017  1
