# generated using pymatgen
data_Pr2Mn3(SbS3)4
_symmetry_space_group_name_H-M   'P 1'
_cell_length_a   20.02960800
_cell_length_b   3.90410600
_cell_length_c   14.95364829
_cell_angle_alpha   90.00000000
_cell_angle_beta   126.33350609
_cell_angle_gamma   90.00000000
_symmetry_Int_Tables_number   1
_chemical_formula_structural   Pr2Mn3(SbS3)4
_chemical_formula_sum   'Pr4 Mn6 Sb8 S24'
_cell_volume   942.00006694
_cell_formula_units_Z   2
loop_
 _symmetry_equiv_pos_site_id
 _symmetry_equiv_pos_as_xyz
  1  'x, y, z'
loop_
 _atom_site_type_symbol
 _atom_site_label
 _atom_site_symmetry_multiplicity
 _atom_site_fract_x
 _atom_site_fract_y
 _atom_site_fract_z
 _atom_site_occupancy
  Pr  Pr0  1  0.26176222  0.45728943  0.86667296  1
  Pr  Pr1  1  0.73267878  0.53092956  0.13564571  1
  Pr  Pr2  1  0.77698113  0.97983431  0.87105321  1
  Pr  Pr3  1  0.23089815  0.01928521  0.13252257  1
  Mn  Mn4  1  0.28920768  0.54751849  0.58887656  1
  Mn  Mn5  1  0.70988252  0.44394099  0.39761828  1
  Mn  Mn6  1  0.99452389  0.96936710  0.00035857  1
  Mn  Mn7  1  0.79970303  0.99659040  0.61435615  1
  Mn  Mn8  1  0.18483792  0.97615007  0.39348772  1
  Mn  Mn9  1  0.52044877  0.52000951  0.03195746  1
  Sb  Sb10  1  0.90335086  0.02991389  0.46182893  1
  Sb  Sb11  1  0.11497290  0.98063350  0.55413109  1
  Sb  Sb12  1  0.03278049  0.49316473  0.80459240  1
  Sb  Sb13  1  0.97207149  0.49716633  0.19914944  1
  Sb  Sb14  1  0.39453914  0.48518618  0.44771042  1
  Sb  Sb15  1  0.62386016  0.44550751  0.55808900  1
  Sb  Sb16  1  0.52783147  0.97273803  0.81709280  1
  Sb  Sb17  1  0.46667635  0.02760369  0.19331700  1
  S  S18  1  0.93786566  0.96241335  0.80860369  1
  S  S19  1  0.06505299  0.99557689  0.20837191  1
  S  S20  1  0.42231167  0.98344054  0.99167564  1
  S  S21  1  0.59142672  0.02906460  0.02396680  1
  S  S22  1  0.19192909  0.94104734  0.91254849  1
  S  S23  1  0.83272603  0.01914676  0.10721418  1
  S  S24  1  0.09595788  0.53684262  0.66598634  1
  S  S25  1  0.90383384  0.52880944  0.35843439  1
  S  S26  1  0.74156932  0.90990824  0.31844638  1
  S  S27  1  0.26989520  0.95984490  0.69867620  1
  S  S28  1  0.15414040  0.47899417  0.44627117  1
  S  S29  1  0.84996584  0.45955877  0.56648489  1
  S  S30  1  0.46353309  0.49420272  0.85283720  1
  S  S31  1  0.57397135  0.50307860  0.21564577  1
  S  S32  1  0.92813606  0.49401483  0.00662262  1
  S  S33  1  0.08794563  0.51015996  0.01141604  1
  S  S34  1  0.66900093  0.46603386  0.89189655  1
  S  S35  1  0.34375358  0.45014054  0.10790298  1
  S  S36  1  0.60878366  0.94898820  0.67247657  1
  S  S37  1  0.40721986  0.01226871  0.34531517  1
  S  S38  1  0.24376793  0.50113782  0.29160896  1
  S  S39  1  0.77376298  0.49931626  0.69642145  1
  S  S40  1  0.67240330  0.94863762  0.44244627  1
  S  S41  1  0.32291159  0.02981834  0.54215492  1
