# generated using pymatgen
data_Pr2Mn3(SbS3)4
_symmetry_space_group_name_H-M   'P 1'
_cell_length_a   20.02960800
_cell_length_b   3.90410600
_cell_length_c   14.95364829
_cell_angle_alpha   90.00000000
_cell_angle_beta   126.33350609
_cell_angle_gamma   90.00000000
_symmetry_Int_Tables_number   1
_chemical_formula_structural   Pr2Mn3(SbS3)4
_chemical_formula_sum   'Pr4 Mn6 Sb8 S24'
_cell_volume   942.00006694
_cell_formula_units_Z   2
loop_
 _symmetry_equiv_pos_site_id
 _symmetry_equiv_pos_as_xyz
  1  'x, y, z'
loop_
 _atom_site_type_symbol
 _atom_site_label
 _atom_site_symmetry_multiplicity
 _atom_site_fract_x
 _atom_site_fract_y
 _atom_site_fract_z
 _atom_site_occupancy
  Pr  Pr0  1  0.26978904  0.50624727  0.87083968  1
  Pr  Pr1  1  0.73460945  0.51452218  0.13509452  1
  Pr  Pr2  1  0.76440093  0.03273701  0.86953055  1
  Pr  Pr3  1  0.22884837  0.97122617  0.12931269  1
  Mn  Mn4  1  0.29962186  0.46697934  0.60932977  1
  Mn  Mn5  1  0.68661998  0.46175486  0.36617532  1
  Mn  Mn6  1  0.00014350  0.98140240  0.00777742  1
  Mn  Mn7  1  0.79130707  0.03051989  0.61362321  1
  Mn  Mn8  1  0.19759934  0.01740390  0.37003973  1
  Mn  Mn9  1  0.48118822  0.46979640  0.98140435  1
  Sb  Sb10  1  0.89010849  0.97701543  0.44728827  1
  Sb  Sb11  1  0.11219512  0.97835389  0.54766758  1
  Sb  Sb12  1  0.03825419  0.52608091  0.82574266  1
  Sb  Sb13  1  0.96894035  0.48597938  0.19279196  1
  Sb  Sb14  1  0.39782695  0.49607392  0.45389029  1
  Sb  Sb15  1  0.61196373  0.48252226  0.54747963  1
  Sb  Sb16  1  0.52953618  0.97227649  0.80461596  1
  Sb  Sb17  1  0.46521632  0.02775904  0.18527905  1
  S  S18  1  0.94151724  0.01375910  0.80922251  1
  S  S19  1  0.06669499  0.00209664  0.20337131  1
  S  S20  1  0.41736240  0.98394144  0.97663264  1
  S  S21  1  0.58641929  0.01858128  0.00933031  1
  S  S22  1  0.16180452  0.02619872  0.89650695  1
  S  S23  1  0.82670122  0.98418529  0.10213177  1
  S  S24  1  0.08608926  0.50076568  0.63545256  1
  S  S25  1  0.91586293  0.49367325  0.35352429  1
  S  S26  1  0.73505888  0.00583291  0.29520427  1
  S  S27  1  0.26104869  0.01551099  0.70423444  1
  S  S28  1  0.17078706  0.52152764  0.43872151  1
  S  S29  1  0.80867583  0.51870639  0.53864999  1
  S  S30  1  0.43423340  0.47636572  0.80231504  1
  S  S31  1  0.55467425  0.50026850  0.18033342  1
  S  S32  1  0.92206855  0.50953916  0.98685120  1
  S  S33  1  0.08838801  0.50222962  0.02522704  1
  S  S34  1  0.66805916  0.55588204  0.89561255  1
  S  S35  1  0.32963252  0.45986366  0.10088595  1
  S  S36  1  0.58889868  0.00468264  0.64581839  1
  S  S37  1  0.39286775  0.98820830  0.33177869  1
  S  S38  1  0.24706976  0.47200280  0.31630413  1
  S  S39  1  0.76394533  0.50078980  0.69236339  1
  S  S40  1  0.65805200  0.98628485  0.43632530  1
  S  S41  1  0.33039148  0.98925161  0.55343655  1
