# generated using pymatgen
data_Pr2Mn3(SbS3)4
_symmetry_space_group_name_H-M   'P 1'
_cell_length_a   20.02960800
_cell_length_b   3.90410600
_cell_length_c   14.95364829
_cell_angle_alpha   90.00000000
_cell_angle_beta   126.33350609
_cell_angle_gamma   90.00000000
_symmetry_Int_Tables_number   1
_chemical_formula_structural   Pr2Mn3(SbS3)4
_chemical_formula_sum   'Pr4 Mn6 Sb8 S24'
_cell_volume   942.00006694
_cell_formula_units_Z   2
loop_
 _symmetry_equiv_pos_site_id
 _symmetry_equiv_pos_as_xyz
  1  'x, y, z'
loop_
 _atom_site_type_symbol
 _atom_site_label
 _atom_site_symmetry_multiplicity
 _atom_site_fract_x
 _atom_site_fract_y
 _atom_site_fract_z
 _atom_site_occupancy
  Pr  Pr0  1  0.26164007  0.45661533  0.86672067  1
  Pr  Pr1  1  0.73287686  0.52976554  0.13578261  1
  Pr  Pr2  1  0.77690739  0.97918512  0.87114462  1
  Pr  Pr3  1  0.23091016  0.01932965  0.13267241  1
  Mn  Mn4  1  0.28888211  0.54792812  0.58881468  1
  Mn  Mn5  1  0.70997065  0.44346403  0.39727637  1
  Mn  Mn6  1  0.99460181  0.96917800  0.00012468  1
  Mn  Mn7  1  0.79975804  0.99603011  0.61436264  1
  Mn  Mn8  1  0.18512334  0.97678620  0.39374607  1
  Mn  Mn9  1  0.52063361  0.51989890  0.03202255  1
  Sb  Sb10  1  0.90347274  0.02941573  0.46172916  1
  Sb  Sb11  1  0.11506919  0.97987062  0.55414727  1
  Sb  Sb12  1  0.03293543  0.49329942  0.80463497  1
  Sb  Sb13  1  0.97189976  0.49723108  0.19900262  1
  Sb  Sb14  1  0.39435193  0.48468130  0.44747621  1
  Sb  Sb15  1  0.62389087  0.44569952  0.55817903  1
  Sb  Sb16  1  0.52764939  0.97259422  0.81702946  1
  Sb  Sb17  1  0.46663396  0.02814944  0.19330261  1
  S  S18  1  0.93749506  0.96175097  0.80826562  1
  S  S19  1  0.06533358  0.99560550  0.20849042  1
  S  S20  1  0.42229362  0.98353700  0.99127123  1
  S  S21  1  0.59138954  0.02868596  0.02385680  1
  S  S22  1  0.19178688  0.94135739  0.91235608  1
  S  S23  1  0.83266795  0.01916728  0.10707868  1
  S  S24  1  0.09635639  0.53823940  0.66631520  1
  S  S25  1  0.90369133  0.53008991  0.35810032  1
  S  S26  1  0.74169313  0.91051086  0.31883367  1
  S  S27  1  0.27016090  0.95828892  0.69876161  1
  S  S28  1  0.15377951  0.47959681  0.44586254  1
  S  S29  1  0.85021882  0.45846471  0.56685891  1
  S  S30  1  0.46341309  0.49375345  0.85276424  1
  S  S31  1  0.57348820  0.50267097  0.21554109  1
  S  S32  1  0.92801480  0.49443392  0.00670873  1
  S  S33  1  0.08819336  0.50974412  0.01141827  1
  S  S34  1  0.66893498  0.46711992  0.89189477  1
  S  S35  1  0.34362869  0.44909617  0.10800033  1
  S  S36  1  0.60858749  0.94862986  0.67195554  1
  S  S37  1  0.40723981  0.01340670  0.34559845  1
  S  S38  1  0.24378615  0.50142211  0.29126593  1
  S  S39  1  0.77368049  0.49880265  0.69615692  1
  S  S40  1  0.67220084  0.95015017  0.44245701  1
  S  S41  1  0.32272427  0.02849878  0.54201236  1
