# generated using pymatgen
data_Pr2Mn3(SbS3)4
_symmetry_space_group_name_H-M   'P 1'
_cell_length_a   20.02960800
_cell_length_b   3.90410600
_cell_length_c   14.95364829
_cell_angle_alpha   90.00000000
_cell_angle_beta   126.33350609
_cell_angle_gamma   90.00000000
_symmetry_Int_Tables_number   1
_chemical_formula_structural   Pr2Mn3(SbS3)4
_chemical_formula_sum   'Pr4 Mn6 Sb8 S24'
_cell_volume   942.00006694
_cell_formula_units_Z   2
loop_
 _symmetry_equiv_pos_site_id
 _symmetry_equiv_pos_as_xyz
  1  'x, y, z'
loop_
 _atom_site_type_symbol
 _atom_site_label
 _atom_site_symmetry_multiplicity
 _atom_site_fract_x
 _atom_site_fract_y
 _atom_site_fract_z
 _atom_site_occupancy
  Pr  Pr0  1  0.26151026  0.45602063  0.86679434  1
  Pr  Pr1  1  0.73303439  0.52858020  0.13587130  1
  Pr  Pr2  1  0.77684123  0.97849719  0.87127006  1
  Pr  Pr3  1  0.23090947  0.01922799  0.13278847  1
  Mn  Mn4  1  0.28867947  0.54792020  0.58892683  1
  Mn  Mn5  1  0.71008340  0.44267269  0.39701224  1
  Mn  Mn6  1  0.99475585  0.96873698  0.99992285  1
  Mn  Mn7  1  0.79974287  0.99514127  0.61435825  1
  Mn  Mn8  1  0.18540061  0.97785749  0.39409392  1
  Mn  Mn9  1  0.52076580  0.51986113  0.03196718  1
  Sb  Sb10  1  0.90354540  0.02892693  0.46171897  1
  Sb  Sb11  1  0.11525184  0.97925879  0.55428602  1
  Sb  Sb12  1  0.03312517  0.49341294  0.80474398  1
  Sb  Sb13  1  0.97177428  0.49752539  0.19887661  1
  Sb  Sb14  1  0.39420409  0.48408947  0.44718889  1
  Sb  Sb15  1  0.62390609  0.44563909  0.55818999  1
  Sb  Sb16  1  0.52750644  0.97228820  0.81695439  1
  Sb  Sb17  1  0.46654249  0.02866051  0.19314951  1
  S  S18  1  0.93708575  0.96107916  0.80804319  1
  S  S19  1  0.06552360  0.99561631  0.20843771  1
  S  S20  1  0.42216247  0.98361136  0.99077966  1
  S  S21  1  0.59146415  0.02866493  0.02387899  1
  S  S22  1  0.19175305  0.94190109  0.91221030  1
  S  S23  1  0.83260329  0.02048981  0.10694069  1
  S  S24  1  0.09680557  0.53920217  0.66666656  1
  S  S25  1  0.90363216  0.53103110  0.35790454  1
  S  S26  1  0.74175094  0.91111703  0.31924564  1
  S  S27  1  0.27043796  0.95723024  0.69877582  1
  S  S28  1  0.15351272  0.47986051  0.44560814  1
  S  S29  1  0.85039403  0.45730588  0.56700022  1
  S  S30  1  0.46319621  0.49293321  0.85260345  1
  S  S31  1  0.57309806  0.50263958  0.21544313  1
  S  S32  1  0.92800347  0.49535850  0.00692673  1
  S  S33  1  0.08841432  0.50936199  0.01160463  1
  S  S34  1  0.66888803  0.46814392  0.89197550  1
  S  S35  1  0.34359519  0.44852921  0.10815546  1
  S  S36  1  0.60843070  0.94892458  0.67153287  1
  S  S37  1  0.40736835  0.01457916  0.34612946  1
  S  S38  1  0.24380200  0.50158942  0.29088024  1
  S  S39  1  0.77350138  0.49828842  0.69591786  1
  S  S40  1  0.67206390  0.95143173  0.44258275  1
  S  S41  1  0.32258944  0.02728184  0.54199080  1
