# generated using pymatgen
data_Pr2Mn3(SbS3)4
_symmetry_space_group_name_H-M   'P 1'
_cell_length_a   20.02960800
_cell_length_b   3.90410600
_cell_length_c   14.95364829
_cell_angle_alpha   90.00000000
_cell_angle_beta   126.33350609
_cell_angle_gamma   90.00000000
_symmetry_Int_Tables_number   1
_chemical_formula_structural   Pr2Mn3(SbS3)4
_chemical_formula_sum   'Pr4 Mn6 Sb8 S24'
_cell_volume   942.00006694
_cell_formula_units_Z   2
loop_
 _symmetry_equiv_pos_site_id
 _symmetry_equiv_pos_as_xyz
  1  'x, y, z'
loop_
 _atom_site_type_symbol
 _atom_site_label
 _atom_site_symmetry_multiplicity
 _atom_site_fract_x
 _atom_site_fract_y
 _atom_site_fract_z
 _atom_site_occupancy
  Pr  Pr0  1  0.26140591  0.45542833  0.86692260  1
  Pr  Pr1  1  0.73316220  0.52751677  0.13590981  1
  Pr  Pr2  1  0.77679826  0.97780910  0.87143122  1
  Pr  Pr3  1  0.23093504  0.01905425  0.13286843  1
  Mn  Mn4  1  0.28845749  0.54777094  0.58891350  1
  Mn  Mn5  1  0.71015664  0.44219367  0.39683241  1
  Mn  Mn6  1  0.99491927  0.96853195  0.99973696  1
  Mn  Mn7  1  0.79978620  0.99419644  0.61445477  1
  Mn  Mn8  1  0.18560141  0.97834560  0.39432164  1
  Mn  Mn9  1  0.52095003  0.51946613  0.03191066  1
  Sb  Sb10  1  0.90358905  0.02849013  0.46166395  1
  Sb  Sb11  1  0.11543363  0.97841036  0.55443998  1
  Sb  Sb12  1  0.03323635  0.49348763  0.80478708  1
  Sb  Sb13  1  0.97177666  0.49766197  0.19878518  1
  Sb  Sb14  1  0.39404061  0.48350817  0.44692857  1
  Sb  Sb15  1  0.62396128  0.44609004  0.55823208  1
  Sb  Sb16  1  0.52737875  0.97196771  0.81688576  1
  Sb  Sb17  1  0.46643298  0.02889126  0.19305059  1
  S  S18  1  0.93699051  0.96059474  0.80797266  1
  S  S19  1  0.06571653  0.99569751  0.20853320  1
  S  S20  1  0.42205502  0.98348965  0.99064636  1
  S  S21  1  0.59133409  0.02859378  0.02379797  1
  S  S22  1  0.19161826  0.94268004  0.91208024  1
  S  S23  1  0.83266011  0.02149855  0.10688171  1
  S  S24  1  0.09701123  0.54069072  0.66688202  1
  S  S25  1  0.90348778  0.53176203  0.35758212  1
  S  S26  1  0.74186298  0.91184852  0.31983813  1
  S  S27  1  0.27053813  0.95605983  0.69875474  1
  S  S28  1  0.15329787  0.48036629  0.44538810  1
  S  S29  1  0.85051420  0.45637745  0.56701544  1
  S  S30  1  0.46298467  0.49241705  0.85243176  1
  S  S31  1  0.57274648  0.50203533  0.21533521  1
  S  S32  1  0.92787890  0.49604545  0.00704541  1
  S  S33  1  0.08863411  0.50940080  0.01161008  1
  S  S34  1  0.66886319  0.46901805  0.89195523  1
  S  S35  1  0.34353902  0.44823658  0.10826260  1
  S  S36  1  0.60817443  0.94898095  0.67095018  1
  S  S37  1  0.40767014  0.01574175  0.34683067  1
  S  S38  1  0.24381768  0.50145474  0.29041507  1
  S  S39  1  0.77334685  0.49796000  0.69553872  1
  S  S40  1  0.67207161  0.95253798  0.44280795  1
  S  S41  1  0.32247726  0.02560310  0.54180971  1
