# generated using pymatgen
data_Pr2Mn3(SbS3)4
_symmetry_space_group_name_H-M   'P 1'
_cell_length_a   20.02960800
_cell_length_b   3.90410600
_cell_length_c   14.95364829
_cell_angle_alpha   90.00000000
_cell_angle_beta   126.33350609
_cell_angle_gamma   90.00000000
_symmetry_Int_Tables_number   1
_chemical_formula_structural   Pr2Mn3(SbS3)4
_chemical_formula_sum   'Pr4 Mn6 Sb8 S24'
_cell_volume   942.00006694
_cell_formula_units_Z   2
loop_
 _symmetry_equiv_pos_site_id
 _symmetry_equiv_pos_as_xyz
  1  'x, y, z'
loop_
 _atom_site_type_symbol
 _atom_site_label
 _atom_site_symmetry_multiplicity
 _atom_site_fract_x
 _atom_site_fract_y
 _atom_site_fract_z
 _atom_site_occupancy
  Pr  Pr0  1  0.26133324  0.45489963  0.86702986  1
  Pr  Pr1  1  0.73324923  0.52643768  0.13592833  1
  Pr  Pr2  1  0.77676792  0.97724365  0.87163570  1
  Pr  Pr3  1  0.23083978  0.01868628  0.13286727  1
  Mn  Mn4  1  0.28827969  0.54708869  0.58884026  1
  Mn  Mn5  1  0.71022211  0.44176024  0.39656827  1
  Mn  Mn6  1  0.99510216  0.96876755  0.99962775  1
  Mn  Mn7  1  0.79984774  0.99303255  0.61466643  1
  Mn  Mn8  1  0.18578666  0.97856758  0.39449030  1
  Mn  Mn9  1  0.52103643  0.51936504  0.03164511  1
  Sb  Sb10  1  0.90363925  0.02808519  0.46162822  1
  Sb  Sb11  1  0.11555854  0.97759150  0.55453064  1
  Sb  Sb12  1  0.03332420  0.49362274  0.80476037  1
  Sb  Sb13  1  0.97184597  0.49797510  0.19874289  1
  Sb  Sb14  1  0.39385318  0.48316982  0.44665097  1
  Sb  Sb15  1  0.62403027  0.44666644  0.55832639  1
  Sb  Sb16  1  0.52732822  0.97185004  0.81689069  1
  Sb  Sb17  1  0.46644611  0.02941445  0.19295683  1
  S  S18  1  0.93669989  0.95936164  0.80785542  1
  S  S19  1  0.06590012  0.99595593  0.20862826  1
  S  S20  1  0.42203369  0.98297930  0.99046475  1
  S  S21  1  0.59125728  0.02804504  0.02372091  1
  S  S22  1  0.19154802  0.94380816  0.91199009  1
  S  S23  1  0.83257742  0.02255564  0.10666815  1
  S  S24  1  0.09704147  0.54228163  0.66706318  1
  S  S25  1  0.90346243  0.53235280  0.35738323  1
  S  S26  1  0.74213767  0.91275077  0.32049057  1
  S  S27  1  0.27051757  0.95514051  0.69853337  1
  S  S28  1  0.15331772  0.48049253  0.44538890  1
  S  S29  1  0.85054615  0.45566616  0.56695324  1
  S  S30  1  0.46265193  0.49199840  0.85214329  1
  S  S31  1  0.57237023  0.50171000  0.21519870  1
  S  S32  1  0.92764481  0.49622952  0.00697393  1
  S  S33  1  0.08894065  0.50961580  0.01171689  1
  S  S34  1  0.66884265  0.47029046  0.89194405  1
  S  S35  1  0.34343980  0.44816034  0.10831460  1
  S  S36  1  0.60784254  0.94929347  0.67030045  1
  S  S37  1  0.40801249  0.01644030  0.34756330  1
  S  S38  1  0.24394923  0.50176606  0.28999782  1
  S  S39  1  0.77317776  0.49743967  0.69515327  1
  S  S40  1  0.67203075  0.95388876  0.44301937  1
  S  S41  1  0.32238831  0.02456514  0.54151609  1
