# generated using pymatgen
data_Pr2Mn3(SbS3)4
_symmetry_space_group_name_H-M   'P 1'
_cell_length_a   20.02960800
_cell_length_b   3.90410600
_cell_length_c   14.95364829
_cell_angle_alpha   90.00000000
_cell_angle_beta   126.33350609
_cell_angle_gamma   90.00000000
_symmetry_Int_Tables_number   1
_chemical_formula_structural   Pr2Mn3(SbS3)4
_chemical_formula_sum   'Pr4 Mn6 Sb8 S24'
_cell_volume   942.00006694
_cell_formula_units_Z   2
loop_
 _symmetry_equiv_pos_site_id
 _symmetry_equiv_pos_as_xyz
  1  'x, y, z'
loop_
 _atom_site_type_symbol
 _atom_site_label
 _atom_site_symmetry_multiplicity
 _atom_site_fract_x
 _atom_site_fract_y
 _atom_site_fract_z
 _atom_site_occupancy
  Pr  Pr0  1  0.26128818  0.45470922  0.86712875  1
  Pr  Pr1  1  0.73324647  0.52550162  0.13582548  1
  Pr  Pr2  1  0.77679040  0.97659069  0.87189312  1
  Pr  Pr3  1  0.23070367  0.01820422  0.13286835  1
  Mn  Mn4  1  0.28812295  0.54681345  0.58876191  1
  Mn  Mn5  1  0.71011208  0.44105189  0.39608226  1
  Mn  Mn6  1  0.99534496  0.96873169  0.99945330  1
  Mn  Mn7  1  0.80000443  0.99217698  0.61490630  1
  Mn  Mn8  1  0.18607782  0.97895311  0.39492227  1
  Mn  Mn9  1  0.52114473  0.51927916  0.03139989  1
  Sb  Sb10  1  0.90371677  0.02745628  0.46164211  1
  Sb  Sb11  1  0.11569837  0.97698785  0.55466470  1
  Sb  Sb12  1  0.03338721  0.49402097  0.80472801  1
  Sb  Sb13  1  0.97187859  0.49846474  0.19872558  1
  Sb  Sb14  1  0.39364722  0.48257721  0.44628466  1
  Sb  Sb15  1  0.62406378  0.44720673  0.55834861  1
  Sb  Sb16  1  0.52722064  0.97190426  0.81689890  1
  Sb  Sb17  1  0.46642212  0.02976175  0.19288871  1
  S  S18  1  0.93656635  0.95926492  0.80787475  1
  S  S19  1  0.06617168  0.99634254  0.20871383  1
  S  S20  1  0.42199535  0.98306374  0.99018382  1
  S  S21  1  0.59134437  0.02704396  0.02383640  1
  S  S22  1  0.19164763  0.94541438  0.91227570  1
  S  S23  1  0.83241747  0.02361496  0.10636981  1
  S  S24  1  0.09700806  0.54400734  0.66703145  1
  S  S25  1  0.90352259  0.53324371  0.35743477  1
  S  S26  1  0.74223758  0.91303012  0.32078727  1
  S  S27  1  0.27042853  0.95415005  0.69825582  1
  S  S28  1  0.15334564  0.48008218  0.44535904  1
  S  S29  1  0.85053956  0.45541842  0.56698284  1
  S  S30  1  0.46249692  0.49166669  0.85198079  1
  S  S31  1  0.57209483  0.50144717  0.21513383  1
  S  S32  1  0.92747207  0.49629800  0.00694413  1
  S  S33  1  0.08911933  0.50918639  0.01162191  1
  S  S34  1  0.66882405  0.47123442  0.89212900  1
  S  S35  1  0.34319318  0.44837693  0.10830952  1
  S  S36  1  0.60745505  0.94999386  0.66956449  1
  S  S37  1  0.40832868  0.01679586  0.34814777  1
  S  S38  1  0.24428536  0.50191085  0.28974852  1
  S  S39  1  0.77291272  0.49754642  0.69462785  1
  S  S40  1  0.67205630  0.95564060  0.44342209  1
  S  S41  1  0.32234870  0.02345685  0.54141713  1
