# generated using pymatgen
data_Pr2Mn3(SbS3)4
_symmetry_space_group_name_H-M   'P 1'
_cell_length_a   20.02960800
_cell_length_b   3.90410600
_cell_length_c   14.95364829
_cell_angle_alpha   90.00000000
_cell_angle_beta   126.33350609
_cell_angle_gamma   90.00000000
_symmetry_Int_Tables_number   1
_chemical_formula_structural   Pr2Mn3(SbS3)4
_chemical_formula_sum   'Pr4 Mn6 Sb8 S24'
_cell_volume   942.00006694
_cell_formula_units_Z   2
loop_
 _symmetry_equiv_pos_site_id
 _symmetry_equiv_pos_as_xyz
  1  'x, y, z'
loop_
 _atom_site_type_symbol
 _atom_site_label
 _atom_site_symmetry_multiplicity
 _atom_site_fract_x
 _atom_site_fract_y
 _atom_site_fract_z
 _atom_site_occupancy
  Pr  Pr0  1  0.26117379  0.45445481  0.86720989  1
  Pr  Pr1  1  0.73312440  0.52461249  0.13568070  1
  Pr  Pr2  1  0.77687234  0.97605593  0.87222214  1
  Pr  Pr3  1  0.23054502  0.01784274  0.13274824  1
  Mn  Mn4  1  0.28791362  0.54663259  0.58864700  1
  Mn  Mn5  1  0.71006836  0.44061335  0.39570400  1
  Mn  Mn6  1  0.99552114  0.96902353  0.99928908  1
  Mn  Mn7  1  0.80013823  0.99127094  0.61505206  1
  Mn  Mn8  1  0.18628606  0.97867979  0.39525832  1
  Mn  Mn9  1  0.52131516  0.51872548  0.03123779  1
  Sb  Sb10  1  0.90381470  0.02672393  0.46163113  1
  Sb  Sb11  1  0.11587358  0.97667623  0.55471672  1
  Sb  Sb12  1  0.03338858  0.49415699  0.80463591  1
  Sb  Sb13  1  0.97190557  0.49895434  0.19876265  1
  Sb  Sb14  1  0.39345489  0.48214442  0.44592261  1
  Sb  Sb15  1  0.62403309  0.44801948  0.55833121  1
  Sb  Sb16  1  0.52715499  0.97179134  0.81688795  1
  Sb  Sb17  1  0.46638432  0.03021078  0.19273784  1
  S  S18  1  0.93643080  0.95897694  0.80799128  1
  S  S19  1  0.06636062  0.99653717  0.20882252  1
  S  S20  1  0.42190400  0.98333720  0.98987178  1
  S  S21  1  0.59157491  0.02623017  0.02415578  1
  S  S22  1  0.19162278  0.94667003  0.91246317  1
  S  S23  1  0.83218393  0.02471618  0.10593641  1
  S  S24  1  0.09701864  0.54550970  0.66707551  1
  S  S25  1  0.90357802  0.53452267  0.35734950  1
  S  S26  1  0.74244282  0.91351564  0.32114133  1
  S  S27  1  0.27037393  0.95356530  0.69798625  1
  S  S28  1  0.15351082  0.47956855  0.44542475  1
  S  S29  1  0.85051140  0.45612613  0.56683663  1
  S  S30  1  0.46243983  0.49027823  0.85187805  1
  S  S31  1  0.57185522  0.50170545  0.21509331  1
  S  S32  1  0.92727686  0.49636017  0.00688703  1
  S  S33  1  0.08923496  0.50890346  0.01137798  1
  S  S34  1  0.66897336  0.47238664  0.89231759  1
  S  S35  1  0.34293035  0.44875403  0.10817835  1
  S  S36  1  0.60708991  0.95042918  0.66899372  1
  S  S37  1  0.40866923  0.01709168  0.34876159  1
  S  S38  1  0.24443477  0.50177670  0.28930809  1
  S  S39  1  0.77281396  0.49731846  0.69423329  1
  S  S40  1  0.67209857  0.95773455  0.44387036  1
  S  S41  1  0.32222465  0.02244021  0.54105977  1
