# generated using pymatgen
data_Pr2Mn3(SbS3)4
_symmetry_space_group_name_H-M   'P 1'
_cell_length_a   20.02960800
_cell_length_b   3.90410600
_cell_length_c   14.95364829
_cell_angle_alpha   90.00000000
_cell_angle_beta   126.33350609
_cell_angle_gamma   90.00000000
_symmetry_Int_Tables_number   1
_chemical_formula_structural   Pr2Mn3(SbS3)4
_chemical_formula_sum   'Pr4 Mn6 Sb8 S24'
_cell_volume   942.00006694
_cell_formula_units_Z   2
loop_
 _symmetry_equiv_pos_site_id
 _symmetry_equiv_pos_as_xyz
  1  'x, y, z'
loop_
 _atom_site_type_symbol
 _atom_site_label
 _atom_site_symmetry_multiplicity
 _atom_site_fract_x
 _atom_site_fract_y
 _atom_site_fract_z
 _atom_site_occupancy
  Pr  Pr0  1  0.26106645  0.45432480  0.86711472  1
  Pr  Pr1  1  0.73297282  0.52391200  0.13550722  1
  Pr  Pr2  1  0.77708164  0.97573426  0.87267863  1
  Pr  Pr3  1  0.23040507  0.01769451  0.13266680  1
  Mn  Mn4  1  0.28779940  0.54657174  0.58861265  1
  Mn  Mn5  1  0.71002784  0.44086327  0.39535781  1
  Mn  Mn6  1  0.99572414  0.96924539  0.99919361  1
  Mn  Mn7  1  0.80016848  0.99036164  0.61507659  1
  Mn  Mn8  1  0.18644651  0.97858656  0.39575860  1
  Mn  Mn9  1  0.52145304  0.51858420  0.03105569  1
  Sb  Sb10  1  0.90387756  0.02608900  0.46164554  1
  Sb  Sb11  1  0.11614100  0.97622332  0.55480059  1
  Sb  Sb12  1  0.03346838  0.49396720  0.80465710  1
  Sb  Sb13  1  0.97190887  0.49961880  0.19876434  1
  Sb  Sb14  1  0.39334099  0.48180083  0.44559492  1
  Sb  Sb15  1  0.62403043  0.44876577  0.55833228  1
  Sb  Sb16  1  0.52711262  0.97167713  0.81686647  1
  Sb  Sb17  1  0.46635016  0.03045346  0.19260673  1
  S  S18  1  0.93626904  0.95828754  0.80817358  1
  S  S19  1  0.06662091  0.99701401  0.20900463  1
  S  S20  1  0.42195601  0.98322582  0.98951329  1
  S  S21  1  0.59181296  0.02594519  0.02442382  1
  S  S22  1  0.19150779  0.94754889  0.91265490  1
  S  S23  1  0.83202328  0.02572109  0.10546192  1
  S  S24  1  0.09698021  0.54641218  0.66693110  1
  S  S25  1  0.90371931  0.53574370  0.35732415  1
  S  S26  1  0.74244810  0.91402252  0.32147858  1
  S  S27  1  0.27025743  0.95269869  0.69765770  1
  S  S28  1  0.15365675  0.47916893  0.44554156  1
  S  S29  1  0.85059927  0.45657937  0.56680100  1
  S  S30  1  0.46233538  0.48855735  0.85180948  1
  S  S31  1  0.57162418  0.50229427  0.21484409  1
  S  S32  1  0.92707913  0.49648919  0.00689770  1
  S  S33  1  0.08938033  0.50853492  0.01107911  1
  S  S34  1  0.66905488  0.47356336  0.89250823  1
  S  S35  1  0.34263717  0.44916792  0.10805286  1
  S  S36  1  0.60674604  0.95051954  0.66840419  1
  S  S37  1  0.40896815  0.01709432  0.34911215  1
  S  S38  1  0.24459942  0.50217415  0.28883402  1
  S  S39  1  0.77283870  0.49704108  0.69397695  1
  S  S40  1  0.67209315  0.95949737  0.44410604  1
  S  S41  1  0.32201492  0.02157087  0.54053216  1
