# generated using pymatgen
data_Pr2Mn3(SbS3)4
_symmetry_space_group_name_H-M   'P 1'
_cell_length_a   20.02960800
_cell_length_b   3.90410600
_cell_length_c   14.95364829
_cell_angle_alpha   90.00000000
_cell_angle_beta   126.33350609
_cell_angle_gamma   90.00000000
_symmetry_Int_Tables_number   1
_chemical_formula_structural   Pr2Mn3(SbS3)4
_chemical_formula_sum   'Pr4 Mn6 Sb8 S24'
_cell_volume   942.00006694
_cell_formula_units_Z   2
loop_
 _symmetry_equiv_pos_site_id
 _symmetry_equiv_pos_as_xyz
  1  'x, y, z'
loop_
 _atom_site_type_symbol
 _atom_site_label
 _atom_site_symmetry_multiplicity
 _atom_site_fract_x
 _atom_site_fract_y
 _atom_site_fract_z
 _atom_site_occupancy
  Pr  Pr0  1  0.26100824  0.45447641  0.86699288  1
  Pr  Pr1  1  0.73288533  0.52316667  0.13533617  1
  Pr  Pr2  1  0.77734036  0.97530742  0.87310742  1
  Pr  Pr3  1  0.23020897  0.01771321  0.13247277  1
  Mn  Mn4  1  0.28773636  0.54650475  0.58855513  1
  Mn  Mn5  1  0.71003065  0.44125557  0.39507313  1
  Mn  Mn6  1  0.99584680  0.96955226  0.99900025  1
  Mn  Mn7  1  0.80025835  0.98945445  0.61524764  1
  Mn  Mn8  1  0.18664942  0.97847882  0.39634978  1
  Mn  Mn9  1  0.52156984  0.51843010  0.03084023  1
  Sb  Sb10  1  0.90389992  0.02576025  0.46167592  1
  Sb  Sb11  1  0.11644821  0.97588302  0.55492744  1
  Sb  Sb12  1  0.03354671  0.49394919  0.80472575  1
  Sb  Sb13  1  0.97190165  0.50039368  0.19873345  1
  Sb  Sb14  1  0.39316795  0.48146480  0.44517228  1
  Sb  Sb15  1  0.62406797  0.44944453  0.55838338  1
  Sb  Sb16  1  0.52710333  0.97152121  0.81695151  1
  Sb  Sb17  1  0.46637846  0.03082632  0.19256047  1
  S  S18  1  0.93610745  0.95793910  0.80838464  1
  S  S19  1  0.06690974  0.99732813  0.20921821  1
  S  S20  1  0.42206424  0.98333663  0.98934633  1
  S  S21  1  0.59210093  0.02623843  0.02476647  1
  S  S22  1  0.19134811  0.94883722  0.91273160  1
  S  S23  1  0.83192878  0.02726924  0.10496354  1
  S  S24  1  0.09689273  0.54747184  0.66667108  1
  S  S25  1  0.90376849  0.53685686  0.35713757  1
  S  S26  1  0.74250299  0.91372886  0.32182478  1
  S  S27  1  0.27018196  0.95211474  0.69743030  1
  S  S28  1  0.15369295  0.47854881  0.44546800  1
  S  S29  1  0.85054557  0.45674916  0.56665596  1
  S  S30  1  0.46220393  0.48653665  0.85174031  1
  S  S31  1  0.57144115  0.50332726  0.21460723  1
  S  S32  1  0.92685951  0.49667604  0.00701008  1
  S  S33  1  0.08965589  0.50787302  0.01092743  1
  S  S34  1  0.66917054  0.47448059  0.89252344  1
  S  S35  1  0.34224982  0.44959640  0.10780784  1
  S  S36  1  0.60631462  0.95033646  0.66764088  1
  S  S37  1  0.40921435  0.01764711  0.34952725  1
  S  S38  1  0.24485018  0.50340204  0.28857775  1
  S  S39  1  0.77291000  0.49646313  0.69381204  1
  S  S40  1  0.67201453  0.96084491  0.44432464  1
  S  S41  1  0.32178606  0.02108524  0.54008179  1
