# generated using pymatgen
data_Pr2Mn3(SbS3)4
_symmetry_space_group_name_H-M   'P 1'
_cell_length_a   20.02960800
_cell_length_b   3.90410600
_cell_length_c   14.95364829
_cell_angle_alpha   90.00000000
_cell_angle_beta   126.33350609
_cell_angle_gamma   90.00000000
_symmetry_Int_Tables_number   1
_chemical_formula_structural   Pr2Mn3(SbS3)4
_chemical_formula_sum   'Pr4 Mn6 Sb8 S24'
_cell_volume   942.00006694
_cell_formula_units_Z   2
loop_
 _symmetry_equiv_pos_site_id
 _symmetry_equiv_pos_as_xyz
  1  'x, y, z'
loop_
 _atom_site_type_symbol
 _atom_site_label
 _atom_site_symmetry_multiplicity
 _atom_site_fract_x
 _atom_site_fract_y
 _atom_site_fract_z
 _atom_site_occupancy
  Pr  Pr0  1  0.26103986  0.45465008  0.86691900  1
  Pr  Pr1  1  0.73281093  0.52237139  0.13521132  1
  Pr  Pr2  1  0.77749440  0.97475938  0.87341052  1
  Pr  Pr3  1  0.23003136  0.01792161  0.13235673  1
  Mn  Mn4  1  0.28772061  0.54664182  0.58851545  1
  Mn  Mn5  1  0.70999892  0.44208569  0.39476713  1
  Mn  Mn6  1  0.99584062  0.97019185  0.99867902  1
  Mn  Mn7  1  0.80022242  0.98832612  0.61548908  1
  Mn  Mn8  1  0.18696458  0.97846873  0.39694906  1
  Mn  Mn9  1  0.52168205  0.51801275  0.03065644  1
  Sb  Sb10  1  0.90390088  0.02549037  0.46165513  1
  Sb  Sb11  1  0.11686299  0.97586495  0.55514121  1
  Sb  Sb12  1  0.03353722  0.49414227  0.80472541  1
  Sb  Sb13  1  0.97193524  0.50110750  0.19865394  1
  Sb  Sb14  1  0.39303328  0.48126604  0.44480361  1
  Sb  Sb15  1  0.62417665  0.45022012  0.55847536  1
  Sb  Sb16  1  0.52710473  0.97163514  0.81703572  1
  Sb  Sb17  1  0.46634258  0.03121399  0.19245097  1
  S  S18  1  0.93589691  0.95706031  0.80867945  1
  S  S19  1  0.06720343  0.99803673  0.20951773  1
  S  S20  1  0.42251171  0.98307096  0.98949919  1
  S  S21  1  0.59229708  0.02610536  0.02495985  1
  S  S22  1  0.19126569  0.94936075  0.91287121  1
  S  S23  1  0.83182834  0.02846986  0.10472710  1
  S  S24  1  0.09683277  0.54783808  0.66637555  1
  S  S25  1  0.90384311  0.53763907  0.35707207  1
  S  S26  1  0.74250967  0.91385772  0.32223033  1
  S  S27  1  0.27021414  0.95204401  0.69735114  1
  S  S28  1  0.15368304  0.47857109  0.44534798  1
  S  S29  1  0.85034966  0.45693321  0.56635332  1
  S  S30  1  0.46210114  0.48464969  0.85176752  1
  S  S31  1  0.57139232  0.50448773  0.21434557  1
  S  S32  1  0.92682962  0.49756014  0.00729983  1
  S  S33  1  0.08975979  0.50783037  0.01083868  1
  S  S34  1  0.66925509  0.47502434  0.89233254  1
  S  S35  1  0.34181368  0.45070605  0.10765764  1
  S  S36  1  0.60585971  0.95041838  0.66681880  1
  S  S37  1  0.40940975  0.01825579  0.34993844  1
  S  S38  1  0.24504890  0.50407443  0.28813031  1
  S  S39  1  0.77299333  0.49542587  0.69376486  1
  S  S40  1  0.67187464  0.96277728  0.44447511  1
  S  S41  1  0.32154516  0.02092769  0.53956902  1
