# generated using pymatgen
data_Pr2Mn3(SbS3)4
_symmetry_space_group_name_H-M   'P 1'
_cell_length_a   20.02960800
_cell_length_b   3.90410600
_cell_length_c   14.95364829
_cell_angle_alpha   90.00000000
_cell_angle_beta   126.33350609
_cell_angle_gamma   90.00000000
_symmetry_Int_Tables_number   1
_chemical_formula_structural   Pr2Mn3(SbS3)4
_chemical_formula_sum   'Pr4 Mn6 Sb8 S24'
_cell_volume   942.00006694
_cell_formula_units_Z   2
loop_
 _symmetry_equiv_pos_site_id
 _symmetry_equiv_pos_as_xyz
  1  'x, y, z'
loop_
 _atom_site_type_symbol
 _atom_site_label
 _atom_site_symmetry_multiplicity
 _atom_site_fract_x
 _atom_site_fract_y
 _atom_site_fract_z
 _atom_site_occupancy
  Pr  Pr0  1  0.26104170  0.45499878  0.86677605  1
  Pr  Pr1  1  0.73276955  0.52175916  0.13513568  1
  Pr  Pr2  1  0.77761733  0.97412130  0.87367692  1
  Pr  Pr3  1  0.22980416  0.01827058  0.13224205  1
  Mn  Mn4  1  0.28769740  0.54660863  0.58848078  1
  Mn  Mn5  1  0.70994610  0.44282973  0.39440333  1
  Mn  Mn6  1  0.99582862  0.97061876  0.99829747  1
  Mn  Mn7  1  0.80021333  0.98730870  0.61566208  1
  Mn  Mn8  1  0.18726625  0.97800119  0.39748414  1
  Mn  Mn9  1  0.52178279  0.51698932  0.03053441  1
  Sb  Sb10  1  0.90381725  0.02531853  0.46152986  1
  Sb  Sb11  1  0.11726658  0.97572496  0.55536022  1
  Sb  Sb12  1  0.03343151  0.49445543  0.80465371  1
  Sb  Sb13  1  0.97191860  0.50221492  0.19850452  1
  Sb  Sb14  1  0.39292145  0.48091508  0.44453928  1
  Sb  Sb15  1  0.62429838  0.45106664  0.55861584  1
  Sb  Sb16  1  0.52709660  0.97143615  0.81705791  1
  Sb  Sb17  1  0.46623825  0.03131032  0.19230277  1
  S  S18  1  0.93565381  0.95618053  0.80891835  1
  S  S19  1  0.06750177  0.99894636  0.20998109  1
  S  S20  1  0.42287421  0.98329556  0.98973589  1
  S  S21  1  0.59233016  0.02568823  0.02509619  1
  S  S22  1  0.19122206  0.94982573  0.91298504  1
  S  S23  1  0.83172313  0.02932491  0.10450049  1
  S  S24  1  0.09676677  0.54835114  0.66608879  1
  S  S25  1  0.90405900  0.53809806  0.35698067  1
  S  S26  1  0.74257518  0.91368688  0.32253740  1
  S  S27  1  0.27020582  0.95174642  0.69712144  1
  S  S28  1  0.15374803  0.47852272  0.44544535  1
  S  S29  1  0.85011190  0.45716520  0.56599082  1
  S  S30  1  0.46192417  0.48236851  0.85186372  1
  S  S31  1  0.57140121  0.50581527  0.21400100  1
  S  S32  1  0.92668594  0.49787175  0.00767101  1
  S  S33  1  0.08999002  0.50771974  0.01101726  1
  S  S34  1  0.66906125  0.47608742  0.89204513  1
  S  S35  1  0.34142603  0.45157747  0.10753880  1
  S  S36  1  0.60537660  0.95032665  0.66587520  1
  S  S37  1  0.40966918  0.01930213  0.35031317  1
  S  S38  1  0.24519402  0.50441278  0.28765198  1
  S  S39  1  0.77299819  0.49393533  0.69367589  1
  S  S40  1  0.67168948  0.96481752  0.44454770  1
  S  S41  1  0.32142235  0.02098786  0.53928632  1
