# generated using pymatgen
data_Pr2Mn3(SbS3)4
_symmetry_space_group_name_H-M   'P 1'
_cell_length_a   20.02960800
_cell_length_b   3.90410600
_cell_length_c   14.95364829
_cell_angle_alpha   90.00000000
_cell_angle_beta   126.33350609
_cell_angle_gamma   90.00000000
_symmetry_Int_Tables_number   1
_chemical_formula_structural   Pr2Mn3(SbS3)4
_chemical_formula_sum   'Pr4 Mn6 Sb8 S24'
_cell_volume   942.00006694
_cell_formula_units_Z   2
loop_
 _symmetry_equiv_pos_site_id
 _symmetry_equiv_pos_as_xyz
  1  'x, y, z'
loop_
 _atom_site_type_symbol
 _atom_site_label
 _atom_site_symmetry_multiplicity
 _atom_site_fract_x
 _atom_site_fract_y
 _atom_site_fract_z
 _atom_site_occupancy
  Pr  Pr0  1  0.26984379  0.50630511  0.87103894  1
  Pr  Pr1  1  0.73460751  0.51505370  0.13518899  1
  Pr  Pr2  1  0.76445004  0.03272181  0.86976601  1
  Pr  Pr3  1  0.22881013  0.97009688  0.12920028  1
  Mn  Mn4  1  0.29953630  0.46713355  0.60931033  1
  Mn  Mn5  1  0.68671847  0.46047874  0.36629222  1
  Mn  Mn6  1  0.99994514  0.98098379  0.00759510  1
  Mn  Mn7  1  0.79103788  0.03022156  0.61337161  1
  Mn  Mn8  1  0.19758771  0.01870034  0.37009747  1
  Mn  Mn9  1  0.48113108  0.46953484  0.98128138  1
  Sb  Sb10  1  0.89008905  0.97595431  0.44724680  1
  Sb  Sb11  1  0.11230233  0.97824989  0.54772926  1
  Sb  Sb12  1  0.03838082  0.52565620  0.82592660  1
  Sb  Sb13  1  0.96891996  0.48567863  0.19281069  1
  Sb  Sb14  1  0.39799564  0.49540637  0.45409188  1
  Sb  Sb15  1  0.61204895  0.48274751  0.54734713  1
  Sb  Sb16  1  0.52945522  0.97239570  0.80456871  1
  Sb  Sb17  1  0.46516258  0.02817225  0.18516551  1
  S  S18  1  0.94137956  0.01315094  0.80877378  1
  S  S19  1  0.06670799  0.00179135  0.20290078  1
  S  S20  1  0.41743768  0.98435459  0.97629461  1
  S  S21  1  0.58625907  0.01913031  0.00911568  1
  S  S22  1  0.16184375  0.02565330  0.89630693  1
  S  S23  1  0.82668714  0.98362291  0.10184598  1
  S  S24  1  0.08628917  0.50041430  0.63545144  1
  S  S25  1  0.91582887  0.49416455  0.35371738  1
  S  S26  1  0.73498586  0.00525212  0.29526732  1
  S  S27  1  0.26131321  0.01509802  0.70411649  1
  S  S28  1  0.17090145  0.52194396  0.43899310  1
  S  S29  1  0.80836810  0.51955087  0.53856443  1
  S  S30  1  0.43425624  0.47619401  0.80219464  1
  S  S31  1  0.55474395  0.49956163  0.18004303  1
  S  S32  1  0.92198235  0.51087897  0.98688976  1
  S  S33  1  0.08807146  0.50248977  0.02487131  1
  S  S34  1  0.66828361  0.55620360  0.89564204  1
  S  S35  1  0.32944156  0.45966891  0.10109488  1
  S  S36  1  0.58880313  0.00462051  0.64530337  1
  S  S37  1  0.39248189  0.98892507  0.33130424  1
  S  S38  1  0.24714220  0.47030983  0.31654711  1
  S  S39  1  0.76404252  0.49983882  0.69261241  1
  S  S40  1  0.65807886  0.98610280  0.43601167  1
  S  S41  1  0.33031703  0.98892323  0.55373266  1
