# generated using pymatgen
data_Pr2Mn3(SbS3)4
_symmetry_space_group_name_H-M   'P 1'
_cell_length_a   20.02960800
_cell_length_b   3.90410600
_cell_length_c   14.95364829
_cell_angle_alpha   90.00000000
_cell_angle_beta   126.33350609
_cell_angle_gamma   90.00000000
_symmetry_Int_Tables_number   1
_chemical_formula_structural   Pr2Mn3(SbS3)4
_chemical_formula_sum   'Pr4 Mn6 Sb8 S24'
_cell_volume   942.00006694
_cell_formula_units_Z   2
loop_
 _symmetry_equiv_pos_site_id
 _symmetry_equiv_pos_as_xyz
  1  'x, y, z'
loop_
 _atom_site_type_symbol
 _atom_site_label
 _atom_site_symmetry_multiplicity
 _atom_site_fract_x
 _atom_site_fract_y
 _atom_site_fract_z
 _atom_site_occupancy
  Pr  Pr0  1  0.26097670  0.45581445  0.86660207  1
  Pr  Pr1  1  0.73272637  0.52124432  0.13513377  1
  Pr  Pr2  1  0.77776443  0.97347703  0.87396078  1
  Pr  Pr3  1  0.22961790  0.01836237  0.13212945  1
  Mn  Mn4  1  0.28766074  0.54645002  0.58836817  1
  Mn  Mn5  1  0.70991676  0.44375303  0.39423333  1
  Mn  Mn6  1  0.99574022  0.97093491  0.99791701  1
  Mn  Mn7  1  0.80024869  0.98691246  0.61595631  1
  Mn  Mn8  1  0.18737303  0.97724975  0.39783266  1
  Mn  Mn9  1  0.52187407  0.51573568  0.03052399  1
  Sb  Sb10  1  0.90378797  0.02507702  0.46142976  1
  Sb  Sb11  1  0.11763420  0.97546449  0.55560252  1
  Sb  Sb12  1  0.03327161  0.49494949  0.80457442  1
  Sb  Sb13  1  0.97195011  0.50319025  0.19852269  1
  Sb  Sb14  1  0.39281690  0.48040796  0.44438948  1
  Sb  Sb15  1  0.62434626  0.45171003  0.55870766  1
  Sb  Sb16  1  0.52704212  0.97129232  0.81699090  1
  Sb  Sb17  1  0.46605335  0.03142069  0.19211045  1
  S  S18  1  0.93545693  0.95533944  0.80926846  1
  S  S19  1  0.06783093  0.99912934  0.21037517  1
  S  S20  1  0.42320291  0.98426486  0.99012542  1
  S  S21  1  0.59252733  0.02514455  0.02536489  1
  S  S22  1  0.19091960  0.95018355  0.91302438  1
  S  S23  1  0.83172829  0.02976883  0.10448060  1
  S  S24  1  0.09672092  0.54893270  0.66585999  1
  S  S25  1  0.90416493  0.53893244  0.35693458  1
  S  S26  1  0.74259597  0.91405439  0.32280207  1
  S  S27  1  0.27032247  0.95149477  0.69697642  1
  S  S28  1  0.15386909  0.47859772  0.44557343  1
  S  S29  1  0.84958614  0.45734900  0.56556052  1
  S  S30  1  0.46161753  0.48065837  0.85167251  1
  S  S31  1  0.57143159  0.50741601  0.21382060  1
  S  S32  1  0.92653052  0.49772607  0.00793369  1
  S  S33  1  0.08998050  0.50771993  0.01104662  1
  S  S34  1  0.66909698  0.47675910  0.89199379  1
  S  S35  1  0.34132574  0.45258251  0.10756661  1
  S  S36  1  0.60491849  0.95048422  0.66492062  1
  S  S37  1  0.40987936  0.02062452  0.35064869  1
  S  S38  1  0.24540005  0.50498507  0.28721555  1
  S  S39  1  0.77307519  0.49225267  0.69377017  1
  S  S40  1  0.67181154  0.96627029  0.44514152  1
  S  S41  1  0.32128261  0.02137991  0.53893134  1
