# generated using pymatgen
data_Pr2Mn3(SbS3)4
_symmetry_space_group_name_H-M   'P 1'
_cell_length_a   20.02960800
_cell_length_b   3.90410600
_cell_length_c   14.95364829
_cell_angle_alpha   90.00000000
_cell_angle_beta   126.33350609
_cell_angle_gamma   90.00000000
_symmetry_Int_Tables_number   1
_chemical_formula_structural   Pr2Mn3(SbS3)4
_chemical_formula_sum   'Pr4 Mn6 Sb8 S24'
_cell_volume   942.00006694
_cell_formula_units_Z   2
loop_
 _symmetry_equiv_pos_site_id
 _symmetry_equiv_pos_as_xyz
  1  'x, y, z'
loop_
 _atom_site_type_symbol
 _atom_site_label
 _atom_site_symmetry_multiplicity
 _atom_site_fract_x
 _atom_site_fract_y
 _atom_site_fract_z
 _atom_site_occupancy
  Pr  Pr0  1  0.26090943  0.45663290  0.86641212  1
  Pr  Pr1  1  0.73264827  0.52059340  0.13503609  1
  Pr  Pr2  1  0.77784490  0.97283949  0.87421937  1
  Pr  Pr3  1  0.22945670  0.01850421  0.13212876  1
  Mn  Mn4  1  0.28763764  0.54627839  0.58830545  1
  Mn  Mn5  1  0.70985069  0.44445377  0.39408999  1
  Mn  Mn6  1  0.99572980  0.97110100  0.99762994  1
  Mn  Mn7  1  0.80015159  0.98650284  0.61616291  1
  Mn  Mn8  1  0.18746825  0.97645944  0.39820655  1
  Mn  Mn9  1  0.52197900  0.51487980  0.03058580  1
  Sb  Sb10  1  0.90383779  0.02478797  0.46133965  1
  Sb  Sb11  1  0.11795173  0.97488237  0.55583797  1
  Sb  Sb12  1  0.03320916  0.49559161  0.80461112  1
  Sb  Sb13  1  0.97197866  0.50408499  0.19857653  1
  Sb  Sb14  1  0.39263551  0.47972016  0.44415667  1
  Sb  Sb15  1  0.62448174  0.45243281  0.55882895  1
  Sb  Sb16  1  0.52710006  0.97149917  0.81703607  1
  Sb  Sb17  1  0.46594142  0.03105995  0.19198530  1
  S  S18  1  0.93520733  0.95493174  0.80941145  1
  S  S19  1  0.06806327  0.99951175  0.21072928  1
  S  S20  1  0.42366827  0.98533943  0.99062015  1
  S  S21  1  0.59258668  0.02553941  0.02565303  1
  S  S22  1  0.19077485  0.94974890  0.91335426  1
  S  S23  1  0.83157306  0.02988257  0.10428367  1
  S  S24  1  0.09683071  0.54974184  0.66565831  1
  S  S25  1  0.90435000  0.53976328  0.35703429  1
  S  S26  1  0.74272434  0.91349854  0.32299013  1
  S  S27  1  0.27047985  0.95124521  0.69673205  1
  S  S28  1  0.15395221  0.47809284  0.44560854  1
  S  S29  1  0.84933170  0.45762559  0.56540717  1
  S  S30  1  0.46136622  0.47874083  0.85158032  1
  S  S31  1  0.57162344  0.50904463  0.21386722  1
  S  S32  1  0.92650877  0.49740347  0.00824935  1
  S  S33  1  0.08998445  0.50799554  0.01105872  1
  S  S34  1  0.66931359  0.47678718  0.89219525  1
  S  S35  1  0.34117580  0.45360605  0.10748089  1
  S  S36  1  0.60442793  0.95029802  0.66396768  1
  S  S37  1  0.41003223  0.02083431  0.35081460  1
  S  S38  1  0.24547018  0.50607213  0.28673884  1
  S  S39  1  0.77316628  0.49042518  0.69397801  1
  S  S40  1  0.67194656  0.96738071  0.44573039  1
  S  S41  1  0.32112482  0.02189355  0.53871816  1
