# generated using pymatgen
data_Pr2Mn3(SbS3)4
_symmetry_space_group_name_H-M   'P 1'
_cell_length_a   20.02960800
_cell_length_b   3.90410600
_cell_length_c   14.95364829
_cell_angle_alpha   90.00000000
_cell_angle_beta   126.33350609
_cell_angle_gamma   90.00000000
_symmetry_Int_Tables_number   1
_chemical_formula_structural   Pr2Mn3(SbS3)4
_chemical_formula_sum   'Pr4 Mn6 Sb8 S24'
_cell_volume   942.00006694
_cell_formula_units_Z   2
loop_
 _symmetry_equiv_pos_site_id
 _symmetry_equiv_pos_as_xyz
  1  'x, y, z'
loop_
 _atom_site_type_symbol
 _atom_site_label
 _atom_site_symmetry_multiplicity
 _atom_site_fract_x
 _atom_site_fract_y
 _atom_site_fract_z
 _atom_site_occupancy
  Pr  Pr0  1  0.26078609  0.45747729  0.86618983  1
  Pr  Pr1  1  0.73257815  0.51964777  0.13494675  1
  Pr  Pr2  1  0.77797640  0.97227070  0.87457015  1
  Pr  Pr3  1  0.22938179  0.01854838  0.13212956  1
  Mn  Mn4  1  0.28752485  0.54616990  0.58829114  1
  Mn  Mn5  1  0.70976185  0.44484814  0.39389397  1
  Mn  Mn6  1  0.99590823  0.97171490  0.99746235  1
  Mn  Mn7  1  0.80011979  0.98620266  0.61637612  1
  Mn  Mn8  1  0.18749055  0.97589323  0.39848283  1
  Mn  Mn9  1  0.52203596  0.51400199  0.03061433  1
  Sb  Sb10  1  0.90389466  0.02446742  0.46128894  1
  Sb  Sb11  1  0.11829760  0.97435828  0.55597526  1
  Sb  Sb12  1  0.03311805  0.49613978  0.80461098  1
  Sb  Sb13  1  0.97206931  0.50474465  0.19857173  1
  Sb  Sb14  1  0.39243086  0.47928748  0.44385877  1
  Sb  Sb15  1  0.62457123  0.45314114  0.55899389  1
  Sb  Sb16  1  0.52716795  0.97173039  0.81701311  1
  Sb  Sb17  1  0.46594108  0.03065408  0.19194296  1
  S  S18  1  0.93504565  0.95408449  0.80953765  1
  S  S19  1  0.06801579  0.99987499  0.21072343  1
  S  S20  1  0.42420472  0.98634968  0.99103677  1
  S  S21  1  0.59272867  0.02570010  0.02585649  1
  S  S22  1  0.19065449  0.94890548  0.91374448  1
  S  S23  1  0.83149562  0.03015663  0.10407143  1
  S  S24  1  0.09696319  0.55009765  0.66565320  1
  S  S25  1  0.90464772  0.54036747  0.35721379  1
  S  S26  1  0.74273555  0.91281347  0.32311778  1
  S  S27  1  0.27054165  0.95165496  0.69637434  1
  S  S28  1  0.15403853  0.47791561  0.44562184  1
  S  S29  1  0.84920830  0.45734471  0.56530488  1
  S  S30  1  0.46126453  0.47699919  0.85169538  1
  S  S31  1  0.57179189  0.51027958  0.21390943  1
  S  S32  1  0.92639099  0.49670841  0.00843021  1
  S  S33  1  0.09000673  0.50829615  0.01095749  1
  S  S34  1  0.66948724  0.47625007  0.89233113  1
  S  S35  1  0.34102719  0.45467743  0.10741018  1
  S  S36  1  0.60414427  0.95015051  0.66325790  1
  S  S37  1  0.41005252  0.02107987  0.35082313  1
  S  S38  1  0.24551038  0.50732933  0.28622176  1
  S  S39  1  0.77315061  0.48796321  0.69409255  1
  S  S40  1  0.67210759  0.96853360  0.44634633  1
  S  S41  1  0.32104204  0.02153489  0.53855814  1
