# generated using pymatgen
data_Pr2Mn3(SbS3)4
_symmetry_space_group_name_H-M   'P 1'
_cell_length_a   20.02960800
_cell_length_b   3.90410600
_cell_length_c   14.95364829
_cell_angle_alpha   90.00000000
_cell_angle_beta   126.33350609
_cell_angle_gamma   90.00000000
_symmetry_Int_Tables_number   1
_chemical_formula_structural   Pr2Mn3(SbS3)4
_chemical_formula_sum   'Pr4 Mn6 Sb8 S24'
_cell_volume   942.00006694
_cell_formula_units_Z   2
loop_
 _symmetry_equiv_pos_site_id
 _symmetry_equiv_pos_as_xyz
  1  'x, y, z'
loop_
 _atom_site_type_symbol
 _atom_site_label
 _atom_site_symmetry_multiplicity
 _atom_site_fract_x
 _atom_site_fract_y
 _atom_site_fract_z
 _atom_site_occupancy
  Pr  Pr0  1  0.26064393  0.45839474  0.86589059  1
  Pr  Pr1  1  0.73246202  0.51837790  0.13480838  1
  Pr  Pr2  1  0.77799275  0.97195616  0.87483218  1
  Pr  Pr3  1  0.22926058  0.01862444  0.13201814  1
  Mn  Mn4  1  0.28736877  0.54553800  0.58812226  1
  Mn  Mn5  1  0.70971172  0.44599275  0.39382410  1
  Mn  Mn6  1  0.99616382  0.97188849  0.99736437  1
  Mn  Mn7  1  0.80015408  0.98617259  0.61658023  1
  Mn  Mn8  1  0.18764711  0.97556503  0.39878933  1
  Mn  Mn9  1  0.52207113  0.51321171  0.03057308  1
  Sb  Sb10  1  0.90387446  0.02444464  0.46117137  1
  Sb  Sb11  1  0.11854259  0.97380183  0.55607121  1
  Sb  Sb12  1  0.03297822  0.49681338  0.80462366  1
  Sb  Sb13  1  0.97205164  0.50533478  0.19853229  1
  Sb  Sb14  1  0.39217861  0.47895140  0.44356286  1
  Sb  Sb15  1  0.62458563  0.45386306  0.55912808  1
  Sb  Sb16  1  0.52719146  0.97230522  0.81695125  1
  Sb  Sb17  1  0.46590984  0.03057659  0.19191876  1
  S  S18  1  0.93477604  0.95279935  0.80966686  1
  S  S19  1  0.06804190  0.00012559  0.21082264  1
  S  S20  1  0.42459846  0.98735179  0.99121186  1
  S  S21  1  0.59280261  0.02576641  0.02601204  1
  S  S22  1  0.19058155  0.94817114  0.91392445  1
  S  S23  1  0.83166277  0.03031999  0.10414856  1
  S  S24  1  0.09716912  0.55065014  0.66565259  1
  S  S25  1  0.90489878  0.54102646  0.35750508  1
  S  S26  1  0.74279109  0.91268224  0.32315756  1
  S  S27  1  0.27054172  0.95195232  0.69604166  1
  S  S28  1  0.15407024  0.47793358  0.44558255  1
  S  S29  1  0.84907371  0.45705463  0.56522198  1
  S  S30  1  0.46116688  0.47532925  0.85179271  1
  S  S31  1  0.57204724  0.51151603  0.21398262  1
  S  S32  1  0.92614671  0.49587956  0.00839689  1
  S  S33  1  0.08995581  0.50803410  0.01068354  1
  S  S34  1  0.66972407  0.47552849  0.89236994  1
  S  S35  1  0.34101637  0.45566185  0.10740645  1
  S  S36  1  0.60396508  0.95037184  0.66270520  1
  S  S37  1  0.41009593  0.02111873  0.35078817  1
  S  S38  1  0.24563083  0.50906914  0.28580294  1
  S  S39  1  0.77316434  0.48600239  0.69405935  1
  S  S40  1  0.67237629  0.96945420  0.44700942  1
  S  S41  1  0.32097202  0.02095805  0.53850043  1
