# generated using pymatgen
data_Pr2Mn3(SbS3)4
_symmetry_space_group_name_H-M   'P 1'
_cell_length_a   20.02960800
_cell_length_b   3.90410600
_cell_length_c   14.95364829
_cell_angle_alpha   90.00000000
_cell_angle_beta   126.33350609
_cell_angle_gamma   90.00000000
_symmetry_Int_Tables_number   1
_chemical_formula_structural   Pr2Mn3(SbS3)4
_chemical_formula_sum   'Pr4 Mn6 Sb8 S24'
_cell_volume   942.00006694
_cell_formula_units_Z   2
loop_
 _symmetry_equiv_pos_site_id
 _symmetry_equiv_pos_as_xyz
  1  'x, y, z'
loop_
 _atom_site_type_symbol
 _atom_site_label
 _atom_site_symmetry_multiplicity
 _atom_site_fract_x
 _atom_site_fract_y
 _atom_site_fract_z
 _atom_site_occupancy
  Pr  Pr0  1  0.26053517  0.45912758  0.86563742  1
  Pr  Pr1  1  0.73235710  0.51739282  0.13468030  1
  Pr  Pr2  1  0.77803777  0.97138438  0.87508713  1
  Pr  Pr3  1  0.22914236  0.01833109  0.13182761  1
  Mn  Mn4  1  0.28724046  0.54502062  0.58795615  1
  Mn  Mn5  1  0.70955232  0.44706913  0.39372625  1
  Mn  Mn6  1  0.99652734  0.97165595  0.99733659  1
  Mn  Mn7  1  0.80012049  0.98622733  0.61658200  1
  Mn  Mn8  1  0.18770992  0.97554017  0.39908625  1
  Mn  Mn9  1  0.52213391  0.51185624  0.03058419  1
  Sb  Sb10  1  0.90392153  0.02433733  0.46114837  1
  Sb  Sb11  1  0.11875542  0.97290169  0.55616719  1
  Sb  Sb12  1  0.03268917  0.49760886  0.80451829  1
  Sb  Sb13  1  0.97201046  0.50587282  0.19852380  1
  Sb  Sb14  1  0.39195556  0.47875632  0.44328697  1
  Sb  Sb15  1  0.62466206  0.45418978  0.55925327  1
  Sb  Sb16  1  0.52729817  0.97257588  0.81708633  1
  Sb  Sb17  1  0.46582253  0.03062312  0.19177900  1
  S  S18  1  0.93469447  0.95190387  0.80993673  1
  S  S19  1  0.06835278  0.00019249  0.21121805  1
  S  S20  1  0.42483309  0.98838331  0.99127914  1
  S  S21  1  0.59278472  0.02566336  0.02604163  1
  S  S22  1  0.19055538  0.94816424  0.91399068  1
  S  S23  1  0.83179200  0.03137542  0.10428937  1
  S  S24  1  0.09732268  0.55098175  0.66561211  1
  S  S25  1  0.90528916  0.54173119  0.35796598  1
  S  S26  1  0.74302614  0.91254220  0.32339750  1
  S  S27  1  0.27058424  0.95183213  0.69564444  1
  S  S28  1  0.15419395  0.47808037  0.44543385  1
  S  S29  1  0.84895537  0.45724581  0.56501040  1
  S  S30  1  0.46102086  0.47437959  0.85159620  1
  S  S31  1  0.57216924  0.51335432  0.21398561  1
  S  S32  1  0.92594762  0.49474297  0.00831265  1
  S  S33  1  0.08989078  0.50752457  0.01042807  1
  S  S34  1  0.67007717  0.47405826  0.89249709  1
  S  S35  1  0.34094401  0.45697340  0.10723197  1
  S  S36  1  0.60372734  0.95107195  0.66225922  1
  S  S37  1  0.41018914  0.02115745  0.35075773  1
  S  S38  1  0.24582775  0.51018197  0.28550470  1
  S  S39  1  0.77327783  0.48505177  0.69424835  1
  S  S40  1  0.67255196  0.96991888  0.44747956  1
  S  S41  1  0.32083366  0.01979714  0.53821589  1
