# generated using pymatgen
data_Pr2Mn3(SbS3)4
_symmetry_space_group_name_H-M   'P 1'
_cell_length_a   20.02960800
_cell_length_b   3.90410600
_cell_length_c   14.95364829
_cell_angle_alpha   90.00000000
_cell_angle_beta   126.33350609
_cell_angle_gamma   90.00000000
_symmetry_Int_Tables_number   1
_chemical_formula_structural   Pr2Mn3(SbS3)4
_chemical_formula_sum   'Pr4 Mn6 Sb8 S24'
_cell_volume   942.00006694
_cell_formula_units_Z   2
loop_
 _symmetry_equiv_pos_site_id
 _symmetry_equiv_pos_as_xyz
  1  'x, y, z'
loop_
 _atom_site_type_symbol
 _atom_site_label
 _atom_site_symmetry_multiplicity
 _atom_site_fract_x
 _atom_site_fract_y
 _atom_site_fract_z
 _atom_site_occupancy
  Pr  Pr0  1  0.26042766  0.45955974  0.86542140  1
  Pr  Pr1  1  0.73226274  0.51632920  0.13458373  1
  Pr  Pr2  1  0.77806528  0.97126916  0.87523308  1
  Pr  Pr3  1  0.22901478  0.01807737  0.13159891  1
  Mn  Mn4  1  0.28713578  0.54441083  0.58784819  1
  Mn  Mn5  1  0.70937562  0.44820422  0.39358969  1
  Mn  Mn6  1  0.99682653  0.97165541  0.99730129  1
  Mn  Mn7  1  0.80009443  0.98617801  0.61652834  1
  Mn  Mn8  1  0.18776028  0.97571572  0.39928642  1
  Mn  Mn9  1  0.52223848  0.51048787  0.03068590  1
  Sb  Sb10  1  0.90397055  0.02412649  0.46115970  1
  Sb  Sb11  1  0.11901019  0.97192970  0.55631115  1
  Sb  Sb12  1  0.03250656  0.49848532  0.80459527  1
  Sb  Sb13  1  0.97192449  0.50629411  0.19848115  1
  Sb  Sb14  1  0.39173984  0.47931746  0.44309029  1
  Sb  Sb15  1  0.62468041  0.45443021  0.55927243  1
  Sb  Sb16  1  0.52740942  0.97245760  0.81729075  1
  Sb  Sb17  1  0.46577466  0.03075174  0.19176168  1
  S  S18  1  0.93470776  0.95039530  0.81027858  1
  S  S19  1  0.06849297  0.00026843  0.21136914  1
  S  S20  1  0.42485553  0.98893400  0.99104642  1
  S  S21  1  0.59276363  0.02594251  0.02607234  1
  S  S22  1  0.19052635  0.94853356  0.91406059  1
  S  S23  1  0.83193788  0.03243775  0.10444970  1
  S  S24  1  0.09760970  0.55100800  0.66576249  1
  S  S25  1  0.90551243  0.54330607  0.35825034  1
  S  S26  1  0.74315931  0.91265622  0.32350644  1
  S  S27  1  0.27078672  0.95167400  0.69534732  1
  S  S28  1  0.15437065  0.47844069  0.44541361  1
  S  S29  1  0.84882250  0.45734429  0.56471732  1
  S  S30  1  0.46074560  0.47382931  0.85122183  1
  S  S31  1  0.57233520  0.51482485  0.21414225  1
  S  S32  1  0.92549818  0.49313205  0.00782073  1
  S  S33  1  0.08986509  0.50683287  0.01034591  1
  S  S34  1  0.67032185  0.47264078  0.89258129  1
  S  S35  1  0.34102134  0.45710319  0.10724343  1
  S  S36  1  0.60341286  0.95166921  0.66176542  1
  S  S37  1  0.41040128  0.02055925  0.35080720  1
  S  S38  1  0.24602508  0.51138408  0.28521969  1
  S  S39  1  0.77337272  0.48418047  0.69434839  1
  S  S40  1  0.67277658  0.96967004  0.44804361  1
  S  S41  1  0.32054788  0.01868427  0.53789313  1
