# generated using pymatgen
data_Pr2Mn3(SbS3)4
_symmetry_space_group_name_H-M   'P 1'
_cell_length_a   20.02960800
_cell_length_b   3.90410600
_cell_length_c   14.95364829
_cell_angle_alpha   90.00000000
_cell_angle_beta   126.33350609
_cell_angle_gamma   90.00000000
_symmetry_Int_Tables_number   1
_chemical_formula_structural   Pr2Mn3(SbS3)4
_chemical_formula_sum   'Pr4 Mn6 Sb8 S24'
_cell_volume   942.00006694
_cell_formula_units_Z   2
loop_
 _symmetry_equiv_pos_site_id
 _symmetry_equiv_pos_as_xyz
  1  'x, y, z'
loop_
 _atom_site_type_symbol
 _atom_site_label
 _atom_site_symmetry_multiplicity
 _atom_site_fract_x
 _atom_site_fract_y
 _atom_site_fract_z
 _atom_site_occupancy
  Pr  Pr0  1  0.26032277  0.45961622  0.86524409  1
  Pr  Pr1  1  0.73216304  0.51527076  0.13449982  1
  Pr  Pr2  1  0.77805480  0.97146726  0.87531004  1
  Pr  Pr3  1  0.22885305  0.01798013  0.13135909  1
  Mn  Mn4  1  0.28709219  0.54430806  0.58777838  1
  Mn  Mn5  1  0.70930911  0.44923952  0.39357987  1
  Mn  Mn6  1  0.99705622  0.97143678  0.99733312  1
  Mn  Mn7  1  0.80006494  0.98629963  0.61629536  1
  Mn  Mn8  1  0.18793340  0.97636715  0.39965797  1
  Mn  Mn9  1  0.52230272  0.50887652  0.03078231  1
  Sb  Sb10  1  0.90403590  0.02384627  0.46128035  1
  Sb  Sb11  1  0.11929437  0.97109867  0.55651915  1
  Sb  Sb12  1  0.03240218  0.49913967  0.80481912  1
  Sb  Sb13  1  0.97176923  0.50683139  0.19836637  1
  Sb  Sb14  1  0.39159870  0.48000344  0.44300549  1
  Sb  Sb15  1  0.62467298  0.45465157  0.55925589  1
  Sb  Sb16  1  0.52755308  0.97206026  0.81748296  1
  Sb  Sb17  1  0.46567802  0.03072814  0.19164009  1
  S  S18  1  0.93481748  0.94919377  0.81061399  1
  S  S19  1  0.06848699  0.00025537  0.21141789  1
  S  S20  1  0.42490701  0.98977417  0.99098162  1
  S  S21  1  0.59277825  0.02606277  0.02618915  1
  S  S22  1  0.19040182  0.94923493  0.91417864  1
  S  S23  1  0.83207188  0.03287836  0.10455175  1
  S  S24  1  0.09771098  0.55120984  0.66584736  1
  S  S25  1  0.90575894  0.54546121  0.35853748  1
  S  S26  1  0.74329828  0.91297155  0.32359706  1
  S  S27  1  0.27106892  0.95229619  0.69506355  1
  S  S28  1  0.15464449  0.47867313  0.44557519  1
  S  S29  1  0.84868523  0.45783338  0.56447946  1
  S  S30  1  0.46029048  0.47377653  0.85084750  1
  S  S31  1  0.57237228  0.51618271  0.21420060  1
  S  S32  1  0.92524508  0.49250382  0.00756562  1
  S  S33  1  0.08989416  0.50550626  0.01027980  1
  S  S34  1  0.67087396  0.47172406  0.89310620  1
  S  S35  1  0.34086920  0.45700489  0.10699393  1
  S  S36  1  0.60300870  0.95185491  0.66145968  1
  S  S37  1  0.41058827  0.02056973  0.35090360  1
  S  S38  1  0.24610350  0.51236968  0.28513789  1
  S  S39  1  0.77348390  0.48302800  0.69440384  1
  S  S40  1  0.67292162  0.96956960  0.44861418  1
  S  S41  1  0.32026706  0.01834102  0.53756004  1
