# generated using pymatgen
data_Pr2Mn3(SbS3)4
_symmetry_space_group_name_H-M   'P 1'
_cell_length_a   20.02960800
_cell_length_b   3.90410600
_cell_length_c   14.95364829
_cell_angle_alpha   90.00000000
_cell_angle_beta   126.33350609
_cell_angle_gamma   90.00000000
_symmetry_Int_Tables_number   1
_chemical_formula_structural   Pr2Mn3(SbS3)4
_chemical_formula_sum   'Pr4 Mn6 Sb8 S24'
_cell_volume   942.00006694
_cell_formula_units_Z   2
loop_
 _symmetry_equiv_pos_site_id
 _symmetry_equiv_pos_as_xyz
  1  'x, y, z'
loop_
 _atom_site_type_symbol
 _atom_site_label
 _atom_site_symmetry_multiplicity
 _atom_site_fract_x
 _atom_site_fract_y
 _atom_site_fract_z
 _atom_site_occupancy
  Pr  Pr0  1  0.26025250  0.45979295  0.86507497  1
  Pr  Pr1  1  0.73197810  0.51452136  0.13438845  1
  Pr  Pr2  1  0.77790918  0.97146509  0.87523531  1
  Pr  Pr3  1  0.22872378  0.01765319  0.13119875  1
  Mn  Mn4  1  0.28694602  0.54432008  0.58760996  1
  Mn  Mn5  1  0.70930071  0.44995467  0.39360139  1
  Mn  Mn6  1  0.99728374  0.97079345  0.99736244  1
  Mn  Mn7  1  0.80004058  0.98645514  0.61593401  1
  Mn  Mn8  1  0.18809641  0.97695015  0.39990089  1
  Mn  Mn9  1  0.52233388  0.50716783  0.03087951  1
  Sb  Sb10  1  0.90413910  0.02363471  0.46141598  1
  Sb  Sb11  1  0.11956736  0.97014512  0.55672353  1
  Sb  Sb12  1  0.03231453  0.49990535  0.80509530  1
  Sb  Sb13  1  0.97152321  0.50774933  0.19820414  1
  Sb  Sb14  1  0.39150576  0.48087662  0.44293112  1
  Sb  Sb15  1  0.62467168  0.45511515  0.55927238  1
  Sb  Sb16  1  0.52772133  0.97186048  0.81768094  1
  Sb  Sb17  1  0.46561627  0.03073808  0.19155108  1
  S  S18  1  0.93490560  0.94852065  0.81089399  1
  S  S19  1  0.06838689  0.99993137  0.21141160  1
  S  S20  1  0.42499633  0.99033693  0.99071557  1
  S  S21  1  0.59273866  0.02565363  0.02625208  1
  S  S22  1  0.19017848  0.94934765  0.91414125  1
  S  S23  1  0.83223600  0.03391389  0.10476140  1
  S  S24  1  0.09767813  0.55110241  0.66574788  1
  S  S25  1  0.90604772  0.54788637  0.35878629  1
  S  S26  1  0.74344134  0.91345985  0.32375557  1
  S  S27  1  0.27132227  0.95240873  0.69469610  1
  S  S28  1  0.15496140  0.47892634  0.44592969  1
  S  S29  1  0.84856858  0.45733582  0.56426489  1
  S  S30  1  0.45999484  0.47415716  0.85057396  1
  S  S31  1  0.57246776  0.51716553  0.21429340  1
  S  S32  1  0.92514891  0.49189915  0.00755340  1
  S  S33  1  0.08986095  0.50493227  0.01030016  1
  S  S34  1  0.67149708  0.47129642  0.89359723  1
  S  S35  1  0.34081106  0.45728430  0.10683658  1
  S  S36  1  0.60267534  0.95191562  0.66122993  1
  S  S37  1  0.41077463  0.02018298  0.35113849  1
  S  S38  1  0.24616440  0.51336212  0.28528465  1
  S  S39  1  0.77382947  0.48181225  0.69492024  1
  S  S40  1  0.67311020  0.96959499  0.44925531  1
  S  S41  1  0.32007836  0.01802550  0.53741646  1
