# generated using pymatgen
data_Pr2Mn3(SbS3)4
_symmetry_space_group_name_H-M   'P 1'
_cell_length_a   20.02960800
_cell_length_b   3.90410600
_cell_length_c   14.95364829
_cell_angle_alpha   90.00000000
_cell_angle_beta   126.33350609
_cell_angle_gamma   90.00000000
_symmetry_Int_Tables_number   1
_chemical_formula_structural   Pr2Mn3(SbS3)4
_chemical_formula_sum   'Pr4 Mn6 Sb8 S24'
_cell_volume   942.00006694
_cell_formula_units_Z   2
loop_
 _symmetry_equiv_pos_site_id
 _symmetry_equiv_pos_as_xyz
  1  'x, y, z'
loop_
 _atom_site_type_symbol
 _atom_site_label
 _atom_site_symmetry_multiplicity
 _atom_site_fract_x
 _atom_site_fract_y
 _atom_site_fract_z
 _atom_site_occupancy
  Pr  Pr0  1  0.26019319  0.45976117  0.86493200  1
  Pr  Pr1  1  0.73173175  0.51369114  0.13416889  1
  Pr  Pr2  1  0.77775463  0.97195134  0.87508079  1
  Pr  Pr3  1  0.22859258  0.01706779  0.13101909  1
  Mn  Mn4  1  0.28691350  0.54412518  0.58751456  1
  Mn  Mn5  1  0.70922156  0.45083417  0.39347078  1
  Mn  Mn6  1  0.99752482  0.97026965  0.99750562  1
  Mn  Mn7  1  0.80001223  0.98692609  0.61558178  1
  Mn  Mn8  1  0.18836429  0.97733845  0.40020409  1
  Mn  Mn9  1  0.52239648  0.50565253  0.03099415  1
  Sb  Sb10  1  0.90422123  0.02310002  0.46150770  1
  Sb  Sb11  1  0.11983914  0.96906946  0.55688726  1
  Sb  Sb12  1  0.03219188  0.50080308  0.80534798  1
  Sb  Sb13  1  0.97129590  0.50815284  0.19807771  1
  Sb  Sb14  1  0.39135523  0.48165690  0.44284416  1
  Sb  Sb15  1  0.62458602  0.45518939  0.55930210  1
  Sb  Sb16  1  0.52799041  0.97190144  0.81790172  1
  Sb  Sb17  1  0.46554565  0.03074217  0.19141771  1
  S  S18  1  0.93496916  0.94782195  0.81111588  1
  S  S19  1  0.06844116  0.99975430  0.21154230  1
  S  S20  1  0.42502204  0.99046416  0.99037872  1
  S  S21  1  0.59288725  0.02527659  0.02648688  1
  S  S22  1  0.19006812  0.94982316  0.91419268  1
  S  S23  1  0.83234259  0.03503917  0.10478592  1
  S  S24  1  0.09782248  0.55067442  0.66586862  1
  S  S25  1  0.90625975  0.54987122  0.35929602  1
  S  S26  1  0.74351679  0.91362394  0.32367760  1
  S  S27  1  0.27149309  0.95275284  0.69432684  1
  S  S28  1  0.15543933  0.47985973  0.44619070  1
  S  S29  1  0.84840949  0.45679549  0.56402694  1
  S  S30  1  0.45966224  0.47504615  0.85048332  1
  S  S31  1  0.57250587  0.51792014  0.21438317  1
  S  S32  1  0.92508681  0.49156754  0.00750776  1
  S  S33  1  0.09003835  0.50427865  0.01050739  1
  S  S34  1  0.67201862  0.47072659  0.89389113  1
  S  S35  1  0.34065497  0.45729808  0.10661582  1
  S  S36  1  0.60239132  0.95214947  0.66100277  1
  S  S37  1  0.41110601  0.01947349  0.35149457  1
  S  S38  1  0.24619489  0.51395116  0.28552752  1
  S  S39  1  0.77419353  0.48109194  0.69545106  1
  S  S40  1  0.67335825  0.96951262  0.44973866  1
  S  S41  1  0.31973672  0.01758945  0.53710991  1
