# generated using pymatgen
data_Pr2Mn3(SbS3)4
_symmetry_space_group_name_H-M   'P 1'
_cell_length_a   20.02960800
_cell_length_b   3.90410600
_cell_length_c   14.95364829
_cell_angle_alpha   90.00000000
_cell_angle_beta   126.33350609
_cell_angle_gamma   90.00000000
_symmetry_Int_Tables_number   1
_chemical_formula_structural   Pr2Mn3(SbS3)4
_chemical_formula_sum   'Pr4 Mn6 Sb8 S24'
_cell_volume   942.00006694
_cell_formula_units_Z   2
loop_
 _symmetry_equiv_pos_site_id
 _symmetry_equiv_pos_as_xyz
  1  'x, y, z'
loop_
 _atom_site_type_symbol
 _atom_site_label
 _atom_site_symmetry_multiplicity
 _atom_site_fract_x
 _atom_site_fract_y
 _atom_site_fract_z
 _atom_site_occupancy
  Pr  Pr0  1  0.26017976  0.45997015  0.86478455  1
  Pr  Pr1  1  0.73145936  0.51312534  0.13395114  1
  Pr  Pr2  1  0.77758386  0.97242291  0.87495542  1
  Pr  Pr3  1  0.22849118  0.01656162  0.13088103  1
  Mn  Mn4  1  0.28671665  0.54379395  0.58738005  1
  Mn  Mn5  1  0.70913370  0.45180833  0.39350986  1
  Mn  Mn6  1  0.99756037  0.96951333  0.99740219  1
  Mn  Mn7  1  0.79999104  0.98760944  0.61522679  1
  Mn  Mn8  1  0.18866093  0.97768723  0.40052375  1
  Mn  Mn9  1  0.52242943  0.50417536  0.03114513  1
  Sb  Sb10  1  0.90427883  0.02251349  0.46155381  1
  Sb  Sb11  1  0.12007411  0.96784016  0.55704228  1
  Sb  Sb12  1  0.03212916  0.50136285  0.80554390  1
  Sb  Sb13  1  0.97112562  0.50859936  0.19797194  1
  Sb  Sb14  1  0.39121712  0.48228566  0.44270229  1
  Sb  Sb15  1  0.62439633  0.45524970  0.55922551  1
  Sb  Sb16  1  0.52831260  0.97189740  0.81812744  1
  Sb  Sb17  1  0.46540869  0.03080364  0.19122934  1
  S  S18  1  0.93505226  0.94777736  0.81138765  1
  S  S19  1  0.06854662  0.99957530  0.21162762  1
  S  S20  1  0.42497246  0.99095224  0.98991342  1
  S  S21  1  0.59300729  0.02460265  0.02664173  1
  S  S22  1  0.18984218  0.95052938  0.91409449  1
  S  S23  1  0.83229076  0.03619988  0.10470225  1
  S  S24  1  0.09794739  0.55061876  0.66617409  1
  S  S25  1  0.90642836  0.55097687  0.35978614  1
  S  S26  1  0.74354292  0.91367777  0.32365908  1
  S  S27  1  0.27168336  0.95263412  0.69396007  1
  S  S28  1  0.15603685  0.47988603  0.44656724  1
  S  S29  1  0.84819316  0.45675870  0.56385749  1
  S  S30  1  0.45938241  0.47572807  0.85045614  1
  S  S31  1  0.57239525  0.51825971  0.21431046  1
  S  S32  1  0.92503933  0.49162106  0.00749082  1
  S  S33  1  0.09020129  0.50349473  0.01045104  1
  S  S34  1  0.67237687  0.47021925  0.89409934  1
  S  S35  1  0.34042439  0.45718467  0.10645940  1
  S  S36  1  0.60201549  0.95223283  0.66054354  1
  S  S37  1  0.41147218  0.01868142  0.35184256  1
  S  S38  1  0.24634292  0.51383871  0.28578343  1
  S  S39  1  0.77465716  0.48023670  0.69595808  1
  S  S40  1  0.67361361  0.96937135  0.45033822  1
  S  S41  1  0.31946060  0.01729218  0.53677101  1
