# generated using pymatgen
data_Pr2Mn3(SbS3)4
_symmetry_space_group_name_H-M   'P 1'
_cell_length_a   20.02960800
_cell_length_b   3.90410600
_cell_length_c   14.95364829
_cell_angle_alpha   90.00000000
_cell_angle_beta   126.33350609
_cell_angle_gamma   90.00000000
_symmetry_Int_Tables_number   1
_chemical_formula_structural   Pr2Mn3(SbS3)4
_chemical_formula_sum   'Pr4 Mn6 Sb8 S24'
_cell_volume   942.00006694
_cell_formula_units_Z   2
loop_
 _symmetry_equiv_pos_site_id
 _symmetry_equiv_pos_as_xyz
  1  'x, y, z'
loop_
 _atom_site_type_symbol
 _atom_site_label
 _atom_site_symmetry_multiplicity
 _atom_site_fract_x
 _atom_site_fract_y
 _atom_site_fract_z
 _atom_site_occupancy
  Pr  Pr0  1  0.26150720  0.49467270  0.86599762  1
  Pr  Pr1  1  0.74034920  0.50321604  0.13730284  1
  Pr  Pr2  1  0.76068088  0.00743401  0.86156509  1
  Pr  Pr3  1  0.23999410  0.99065175  0.13878718  1
  Mn  Mn4  1  0.29925884  0.50673653  0.62025937  1
  Mn  Mn5  1  0.69784880  0.49862738  0.38071746  1
  Mn  Mn6  1  0.00148328  0.00342476  0.00030926  1
  Mn  Mn7  1  0.80276407  0.99373691  0.61825744  1
  Mn  Mn8  1  0.19900827  0.98552938  0.37874068  1
  Mn  Mn9  1  0.50105020  0.48547165  0.99972181  1
  Sb  Sb10  1  0.89492985  0.00989614  0.45440829  1
  Sb  Sb11  1  0.10721894  0.98924286  0.55049814  1
  Sb  Sb12  1  0.03810023  0.48872822  0.81502503  1
  Sb  Sb13  1  0.96232547  0.50316693  0.18816324  1
  Sb  Sb14  1  0.39427544  0.48917323  0.45554507  1
  Sb  Sb15  1  0.60643842  0.49953248  0.54874878  1
  Sb  Sb16  1  0.53751304  0.00043527  0.81372521  1
  Sb  Sb17  1  0.46276672  0.00000128  0.18354908  1
  S  S18  1  0.93846474  0.98735387  0.79829986  1
  S  S19  1  0.05806865  0.99654893  0.19226800  1
  S  S20  1  0.40314074  0.97972149  0.97945544  1
  S  S21  1  0.59655522  0.99514991  0.01723495  1
  S  S22  1  0.16976527  0.98569793  0.90240098  1
  S  S23  1  0.82776836  0.00411385  0.10470819  1
  S  S24  1  0.08739809  0.49156073  0.64640392  1
  S  S25  1  0.91129647  0.48125234  0.35314567  1
  S  S26  1  0.74403513  0.97136960  0.29581852  1
  S  S27  1  0.25589223  0.00750521  0.69969169  1
  S  S28  1  0.15981959  0.49234137  0.44705933  1
  S  S29  1  0.83269643  0.49049350  0.54765481  1
  S  S30  1  0.43684766  0.50384141  0.79827354  1
  S  S31  1  0.56100938  0.49322452  0.19723184  1
  S  S32  1  0.90189466  0.47780191  0.97815434  1
  S  S33  1  0.09229147  0.48488153  0.01774313  1
  S  S34  1  0.66504667  0.50967972  0.89531985  1
  S  S35  1  0.33343792  0.50729994  0.10479725  1
  S  S36  1  0.59159068  0.01623751  0.64976477  1
  S  S37  1  0.41305913  0.98523158  0.35763114  1
  S  S38  1  0.24227474  0.47492595  0.29457798  1
  S  S39  1  0.76459509  0.50227471  0.70509788  1
  S  S40  1  0.66259997  0.00496114  0.45988085  1
  S  S41  1  0.33652639  0.99053282  0.54205876  1
