# generated using pymatgen
data_Pr2Mn3(SbS3)4
_symmetry_space_group_name_H-M   'P 1'
_cell_length_a   20.02960800
_cell_length_b   3.90410600
_cell_length_c   14.95364829
_cell_angle_alpha   90.00000000
_cell_angle_beta   126.33350609
_cell_angle_gamma   90.00000000
_symmetry_Int_Tables_number   1
_chemical_formula_structural   Pr2Mn3(SbS3)4
_chemical_formula_sum   'Pr4 Mn6 Sb8 S24'
_cell_volume   942.00006694
_cell_formula_units_Z   2
loop_
 _symmetry_equiv_pos_site_id
 _symmetry_equiv_pos_as_xyz
  1  'x, y, z'
loop_
 _atom_site_type_symbol
 _atom_site_label
 _atom_site_symmetry_multiplicity
 _atom_site_fract_x
 _atom_site_fract_y
 _atom_site_fract_z
 _atom_site_occupancy
  Pr  Pr0  1  0.26988265  0.50632758  0.87118862  1
  Pr  Pr1  1  0.73457716  0.51552553  0.13527930  1
  Pr  Pr2  1  0.76448512  0.03287307  0.86995962  1
  Pr  Pr3  1  0.22875342  0.96908783  0.12910455  1
  Mn  Mn4  1  0.29949774  0.46708200  0.60933510  1
  Mn  Mn5  1  0.68674926  0.45958844  0.36637379  1
  Mn  Mn6  1  0.99976447  0.98073268  0.00753905  1
  Mn  Mn7  1  0.79081361  0.03009510  0.61317777  1
  Mn  Mn8  1  0.19761229  0.01951101  0.37006338  1
  Mn  Mn9  1  0.48103421  0.46914496  0.98116308  1
  Sb  Sb10  1  0.89009230  0.97518207  0.44723579  1
  Sb  Sb11  1  0.11238425  0.97811264  0.54772534  1
  Sb  Sb12  1  0.03841980  0.52525014  0.82600872  1
  Sb  Sb13  1  0.96888309  0.48550134  0.19281041  1
  Sb  Sb14  1  0.39810897  0.49461764  0.45423475  1
  Sb  Sb15  1  0.61214426  0.48286293  0.54732185  1
  Sb  Sb16  1  0.52938474  0.97221951  0.80455775  1
  Sb  Sb17  1  0.46514500  0.02871533  0.18509363  1
  S  S18  1  0.94126278  0.01201478  0.80832023  1
  S  S19  1  0.06666456  0.00087343  0.20244398  1
  S  S20  1  0.41756673  0.98451530  0.97596462  1
  S  S21  1  0.58600804  0.02007346  0.00883862  1
  S  S22  1  0.16192840  0.02530271  0.89621933  1
  S  S23  1  0.82660589  0.98318064  0.10150974  1
  S  S24  1  0.08650079  0.49973076  0.63543154  1
  S  S25  1  0.91584415  0.49452854  0.35380129  1
  S  S26  1  0.73487206  0.00416128  0.29545092  1
  S  S27  1  0.26158989  0.01496903  0.70412402  1
  S  S28  1  0.17094999  0.52246783  0.43934720  1
  S  S29  1  0.80811591  0.52000230  0.53836164  1
  S  S30  1  0.43425538  0.47594233  0.80188928  1
  S  S31  1  0.55481425  0.49916512  0.17975159  1
  S  S32  1  0.92189348  0.51205676  0.98695931  1
  S  S33  1  0.08762675  0.50287913  0.02429239  1
  S  S34  1  0.66840806  0.55705376  0.89560346  1
  S  S35  1  0.32928899  0.45988544  0.10120259  1
  S  S36  1  0.58875515  0.00417588  0.64495087  1
  S  S37  1  0.39219878  0.98956275  0.33105144  1
  S  S38  1  0.24713967  0.46881611  0.31671747  1
  S  S39  1  0.76400805  0.49828923  0.69268417  1
  S  S40  1  0.65806789  0.98624980  0.43560398  1
  S  S41  1  0.33018635  0.98834487  0.55396009  1
