# generated using pymatgen
data_Pr2Mn3(SbS3)4
_symmetry_space_group_name_H-M   'P 1'
_cell_length_a   20.02960800
_cell_length_b   3.90410600
_cell_length_c   14.95364829
_cell_angle_alpha   90.00000000
_cell_angle_beta   126.33350609
_cell_angle_gamma   90.00000000
_symmetry_Int_Tables_number   1
_chemical_formula_structural   Pr2Mn3(SbS3)4
_chemical_formula_sum   'Pr4 Mn6 Sb8 S24'
_cell_volume   942.00006694
_cell_formula_units_Z   2
loop_
 _symmetry_equiv_pos_site_id
 _symmetry_equiv_pos_as_xyz
  1  'x, y, z'
loop_
 _atom_site_type_symbol
 _atom_site_label
 _atom_site_symmetry_multiplicity
 _atom_site_fract_x
 _atom_site_fract_y
 _atom_site_fract_z
 _atom_site_occupancy
  Pr  Pr0  1  0.26019309  0.46003834  0.86472514  1
  Pr  Pr1  1  0.73133614  0.51240793  0.13383059  1
  Pr  Pr2  1  0.77747944  0.97262256  0.87489632  1
  Pr  Pr3  1  0.22842675  0.01609930  0.13075397  1
  Mn  Mn4  1  0.28650093  0.54364630  0.58711361  1
  Mn  Mn5  1  0.70912325  0.45271185  0.39350900  1
  Mn  Mn6  1  0.99761861  0.96865623  0.99728500  1
  Mn  Mn7  1  0.79995509  0.98812257  0.61491764  1
  Mn  Mn8  1  0.18894269  0.97817426  0.40085845  1
  Mn  Mn9  1  0.52242166  0.50252772  0.03124099  1
  Sb  Sb10  1  0.90437048  0.02222022  0.46171655  1
  Sb  Sb11  1  0.12021393  0.96655666  0.55709452  1
  Sb  Sb12  1  0.03206828  0.50227903  0.80580641  1
  Sb  Sb13  1  0.97096933  0.50893475  0.19784491  1
  Sb  Sb14  1  0.39099555  0.48285589  0.44243738  1
  Sb  Sb15  1  0.62427695  0.45541239  0.55922913  1
  Sb  Sb16  1  0.52862157  0.97193841  0.81838580  1
  Sb  Sb17  1  0.46531738  0.03132766  0.19102315  1
  S  S18  1  0.93515191  0.94837518  0.81172899  1
  S  S19  1  0.06873718  0.99905836  0.21179236  1
  S  S20  1  0.42497105  0.99120407  0.98935278  1
  S  S21  1  0.59300108  0.02426679  0.02681100  1
  S  S22  1  0.18982306  0.95075697  0.91418197  1
  S  S23  1  0.83238295  0.03760086  0.10478900  1
  S  S24  1  0.09790038  0.54953660  0.66635096  1
  S  S25  1  0.90639637  0.55223817  0.36006280  1
  S  S26  1  0.74356786  0.91318626  0.32369207  1
  S  S27  1  0.27179113  0.95167500  0.69357946  1
  S  S28  1  0.15670854  0.47986392  0.44695604  1
  S  S29  1  0.84795941  0.45684426  0.56375784  1
  S  S30  1  0.45911072  0.47672633  0.85052841  1
  S  S31  1  0.57213495  0.51914297  0.21408458  1
  S  S32  1  0.92501319  0.49224368  0.00734387  1
  S  S33  1  0.09033206  0.50213621  0.01033339  1
  S  S34  1  0.67274945  0.46928722  0.89430405  1
  S  S35  1  0.34034989  0.45702606  0.10647331  1
  S  S36  1  0.60157008  0.95236895  0.66009795  1
  S  S37  1  0.41183364  0.01826721  0.35234143  1
  S  S38  1  0.24638069  0.51365750  0.28608996  1
  S  S39  1  0.77520104  0.47909817  0.69641182  1
  S  S40  1  0.67391925  0.96889942  0.45077413  1
  S  S41  1  0.31922642  0.01725213  0.53654665  1
