# generated using pymatgen
data_Pr2Mn3(SbS3)4
_symmetry_space_group_name_H-M   'P 1'
_cell_length_a   20.02960800
_cell_length_b   3.90410600
_cell_length_c   14.95364829
_cell_angle_alpha   90.00000000
_cell_angle_beta   126.33350609
_cell_angle_gamma   90.00000000
_symmetry_Int_Tables_number   1
_chemical_formula_structural   Pr2Mn3(SbS3)4
_chemical_formula_sum   'Pr4 Mn6 Sb8 S24'
_cell_volume   942.00006694
_cell_formula_units_Z   2
loop_
 _symmetry_equiv_pos_site_id
 _symmetry_equiv_pos_as_xyz
  1  'x, y, z'
loop_
 _atom_site_type_symbol
 _atom_site_label
 _atom_site_symmetry_multiplicity
 _atom_site_fract_x
 _atom_site_fract_y
 _atom_site_fract_z
 _atom_site_occupancy
  Pr  Pr0  1  0.26024744  0.45996436  0.86471034  1
  Pr  Pr1  1  0.73120564  0.51158384  0.13363912  1
  Pr  Pr2  1  0.77731013  0.97256819  0.87486572  1
  Pr  Pr3  1  0.22838222  0.01561999  0.13065145  1
  Mn  Mn4  1  0.28626430  0.54368164  0.58691052  1
  Mn  Mn5  1  0.70901264  0.45327984  0.39342852  1
  Mn  Mn6  1  0.99758822  0.96784493  0.99705891  1
  Mn  Mn7  1  0.79984942  0.98861132  0.61454867  1
  Mn  Mn8  1  0.18922722  0.97864948  0.40118843  1
  Mn  Mn9  1  0.52235810  0.50105645  0.03133447  1
  Sb  Sb10  1  0.90433295  0.02203441  0.46191336  1
  Sb  Sb11  1  0.12033864  0.96546750  0.55713147  1
  Sb  Sb12  1  0.03197639  0.50319158  0.80594791  1
  Sb  Sb13  1  0.97088544  0.50930509  0.19771267  1
  Sb  Sb14  1  0.39075619  0.48317701  0.44215290  1
  Sb  Sb15  1  0.62421293  0.45578331  0.55929618  1
  Sb  Sb16  1  0.52887623  0.97201633  0.81857172  1
  Sb  Sb17  1  0.46520653  0.03192248  0.19087831  1
  S  S18  1  0.93531097  0.94925254  0.81211693  1
  S  S19  1  0.06884909  0.99867318  0.21192875  1
  S  S20  1  0.42507421  0.99146945  0.98918804  1
  S  S21  1  0.59298986  0.02434907  0.02706311  1
  S  S22  1  0.18990599  0.95088325  0.91439258  1
  S  S23  1  0.83243319  0.03897960  0.10483489  1
  S  S24  1  0.09773067  0.54849326  0.66657398  1
  S  S25  1  0.90638600  0.55343177  0.36040253  1
  S  S26  1  0.74354712  0.91305092  0.32363550  1
  S  S27  1  0.27179804  0.95130112  0.69326185  1
  S  S28  1  0.15735840  0.47955756  0.44709275  1
  S  S29  1  0.84774925  0.45659135  0.56368031  1
  S  S30  1  0.45882888  0.47765508  0.85070819  1
  S  S31  1  0.57190736  0.52038265  0.21393190  1
  S  S32  1  0.92507606  0.49312515  0.00715371  1
  S  S33  1  0.09034684  0.50085438  0.01030318  1
  S  S34  1  0.67322320  0.46867852  0.89451027  1
  S  S35  1  0.34026289  0.45746319  0.10655179  1
  S  S36  1  0.60133910  0.95270877  0.65999875  1
  S  S37  1  0.41213012  0.01805213  0.35279748  1
  S  S38  1  0.24627685  0.51400849  0.28628785  1
  S  S39  1  0.77568565  0.47776138  0.69685407  1
  S  S40  1  0.67425120  0.96852472  0.45133849  1
  S  S41  1  0.31897996  0.01715033  0.53626765  1
