# generated using pymatgen
data_Pr2Mn3(SbS3)4
_symmetry_space_group_name_H-M   'P 1'
_cell_length_a   20.02960800
_cell_length_b   3.90410600
_cell_length_c   14.95364829
_cell_angle_alpha   90.00000000
_cell_angle_beta   126.33350609
_cell_angle_gamma   90.00000000
_symmetry_Int_Tables_number   1
_chemical_formula_structural   Pr2Mn3(SbS3)4
_chemical_formula_sum   'Pr4 Mn6 Sb8 S24'
_cell_volume   942.00006694
_cell_formula_units_Z   2
loop_
 _symmetry_equiv_pos_site_id
 _symmetry_equiv_pos_as_xyz
  1  'x, y, z'
loop_
 _atom_site_type_symbol
 _atom_site_label
 _atom_site_symmetry_multiplicity
 _atom_site_fract_x
 _atom_site_fract_y
 _atom_site_fract_z
 _atom_site_occupancy
  Pr  Pr0  1  0.26030546  0.45966281  0.86460742  1
  Pr  Pr1  1  0.73107996  0.51085779  0.13340715  1
  Pr  Pr2  1  0.77716596  0.97243737  0.87485898  1
  Pr  Pr3  1  0.22838272  0.01529087  0.13065199  1
  Mn  Mn4  1  0.28592422  0.54349605  0.58659206  1
  Mn  Mn5  1  0.70893756  0.45359557  0.39337838  1
  Mn  Mn6  1  0.99768073  0.96706380  0.99693206  1
  Mn  Mn7  1  0.79986648  0.98923453  0.61421200  1
  Mn  Mn8  1  0.18947072  0.97950521  0.40136176  1
  Mn  Mn9  1  0.52236443  0.50010079  0.03141980  1
  Sb  Sb10  1  0.90433375  0.02161806  0.46215996  1
  Sb  Sb11  1  0.12046397  0.96452979  0.55725679  1
  Sb  Sb12  1  0.03185489  0.50381480  0.80601728  1
  Sb  Sb13  1  0.97085051  0.50961554  0.19763508  1
  Sb  Sb14  1  0.39053621  0.48349675  0.44195357  1
  Sb  Sb15  1  0.62406517  0.45667102  0.55931816  1
  Sb  Sb16  1  0.52918810  0.97190635  0.81884750  1
  Sb  Sb17  1  0.46516690  0.03244418  0.19080173  1
  S  S18  1  0.93564872  0.95043854  0.81255116  1
  S  S19  1  0.06895312  0.99773322  0.21210499  1
  S  S20  1  0.42509107  0.99186838  0.98879728  1
  S  S21  1  0.59297227  0.02439730  0.02719809  1
  S  S22  1  0.19018570  0.95151678  0.91480915  1
  S  S23  1  0.83247232  0.03979216  0.10478516  1
  S  S24  1  0.09772096  0.54687102  0.66675769  1
  S  S25  1  0.90639737  0.55463160  0.36066980  1
  S  S26  1  0.74356569  0.91252764  0.32357805  1
  S  S27  1  0.27169581  0.95129415  0.69305433  1
  S  S28  1  0.15796293  0.47970302  0.44736100  1
  S  S29  1  0.84749971  0.45607275  0.56357558  1
  S  S30  1  0.45848232  0.47848064  0.85085176  1
  S  S31  1  0.57166996  0.52072772  0.21378743  1
  S  S32  1  0.92512174  0.49371721  0.00675740  1
  S  S33  1  0.09030482  0.49991852  0.01046172  1
  S  S34  1  0.67356583  0.46796535  0.89472770  1
  S  S35  1  0.34025917  0.45878484  0.10677800  1
  S  S36  1  0.60117356  0.95397333  0.66000679  1
  S  S37  1  0.41220950  0.01796821  0.35296716  1
  S  S38  1  0.24611988  0.51418385  0.28643172  1
  S  S39  1  0.77598016  0.47682970  0.69716198  1
  S  S40  1  0.67442483  0.96801153  0.45168695  1
  S  S41  1  0.31885590  0.01690361  0.53587952  1
