# generated using pymatgen
data_Pr2Mn3(SbS3)4
_symmetry_space_group_name_H-M   'P 1'
_cell_length_a   20.02960800
_cell_length_b   3.90410600
_cell_length_c   14.95364829
_cell_angle_alpha   90.00000000
_cell_angle_beta   126.33350609
_cell_angle_gamma   90.00000000
_symmetry_Int_Tables_number   1
_chemical_formula_structural   Pr2Mn3(SbS3)4
_chemical_formula_sum   'Pr4 Mn6 Sb8 S24'
_cell_volume   942.00006694
_cell_formula_units_Z   2
loop_
 _symmetry_equiv_pos_site_id
 _symmetry_equiv_pos_as_xyz
  1  'x, y, z'
loop_
 _atom_site_type_symbol
 _atom_site_label
 _atom_site_symmetry_multiplicity
 _atom_site_fract_x
 _atom_site_fract_y
 _atom_site_fract_z
 _atom_site_occupancy
  Pr  Pr0  1  0.26039328  0.45934426  0.86452459  1
  Pr  Pr1  1  0.73090777  0.51040047  0.13315378  1
  Pr  Pr2  1  0.77706260  0.97221744  0.87494001  1
  Pr  Pr3  1  0.22850328  0.01509689  0.13069311  1
  Mn  Mn4  1  0.28553568  0.54287367  0.58625844  1
  Mn  Mn5  1  0.70888566  0.45431203  0.39340870  1
  Mn  Mn6  1  0.99781638  0.96658305  0.99676386  1
  Mn  Mn7  1  0.79986837  0.98961326  0.61359672  1
  Mn  Mn8  1  0.18967946  0.98042871  0.40155312  1
  Mn  Mn9  1  0.52241166  0.49930597  0.03158337  1
  Sb  Sb10  1  0.90435200  0.02115462  0.46237041  1
  Sb  Sb11  1  0.12064133  0.96350279  0.55739020  1
  Sb  Sb12  1  0.03172012  0.50432763  0.80608284  1
  Sb  Sb13  1  0.97076531  0.51001899  0.19751813  1
  Sb  Sb14  1  0.39028749  0.48387733  0.44171775  1
  Sb  Sb15  1  0.62389831  0.45751670  0.55933110  1
  Sb  Sb16  1  0.52951898  0.97177077  0.81907419  1
  Sb  Sb17  1  0.46501388  0.03281759  0.19056360  1
  S  S18  1  0.93599098  0.95163839  0.81295903  1
  S  S19  1  0.06902303  0.99723915  0.21229256  1
  S  S20  1  0.42506526  0.99178106  0.98853562  1
  S  S21  1  0.59302024  0.02396203  0.02737242  1
  S  S22  1  0.19050715  0.95165868  0.91533312  1
  S  S23  1  0.83258127  0.03980156  0.10468015  1
  S  S24  1  0.09782405  0.54485511  0.66692876  1
  S  S25  1  0.90640210  0.55587003  0.36080053  1
  S  S26  1  0.74374835  0.91200383  0.32361724  1
  S  S27  1  0.27166349  0.95111559  0.69290567  1
  S  S28  1  0.15867979  0.47944519  0.44771578  1
  S  S29  1  0.84704261  0.45607301  0.56331001  1
  S  S30  1  0.45810699  0.47985284  0.85084900  1
  S  S31  1  0.57150634  0.52121684  0.21360185  1
  S  S32  1  0.92524041  0.49420659  0.00641955  1
  S  S33  1  0.09035750  0.49918876  0.01069323  1
  S  S34  1  0.67393047  0.46737207  0.89494476  1
  S  S35  1  0.34033907  0.46034381  0.10722793  1
  S  S36  1  0.60121801  0.95483391  0.66010066  1
  S  S37  1  0.41233724  0.01814918  0.35302654  1
  S  S38  1  0.24597885  0.51404380  0.28652109  1
  S  S39  1  0.77632507  0.47616832  0.69745541  1
  S  S40  1  0.67463752  0.96815142  0.45210239  1
  S  S41  1  0.31866968  0.01646971  0.53527995  1
