# generated using pymatgen
data_Pr2Mn3(SbS3)4
_symmetry_space_group_name_H-M   'P 1'
_cell_length_a   20.02960800
_cell_length_b   3.90410600
_cell_length_c   14.95364829
_cell_angle_alpha   90.00000000
_cell_angle_beta   126.33350609
_cell_angle_gamma   90.00000000
_symmetry_Int_Tables_number   1
_chemical_formula_structural   Pr2Mn3(SbS3)4
_chemical_formula_sum   'Pr4 Mn6 Sb8 S24'
_cell_volume   942.00006694
_cell_formula_units_Z   2
loop_
 _symmetry_equiv_pos_site_id
 _symmetry_equiv_pos_as_xyz
  1  'x, y, z'
loop_
 _atom_site_type_symbol
 _atom_site_label
 _atom_site_symmetry_multiplicity
 _atom_site_fract_x
 _atom_site_fract_y
 _atom_site_fract_z
 _atom_site_occupancy
  Pr  Pr0  1  0.26050479  0.45877599  0.86451273  1
  Pr  Pr1  1  0.73077533  0.50976920  0.13290735  1
  Pr  Pr2  1  0.77700499  0.97200504  0.87508724  1
  Pr  Pr3  1  0.22863506  0.01518694  0.13074347  1
  Mn  Mn4  1  0.28520994  0.54196127  0.58588609  1
  Mn  Mn5  1  0.70880528  0.45537245  0.39352516  1
  Mn  Mn6  1  0.99792716  0.96657702  0.99655495  1
  Mn  Mn7  1  0.79981199  0.98955699  0.61290080  1
  Mn  Mn8  1  0.18982613  0.98097317  0.40172079  1
  Mn  Mn9  1  0.52249167  0.49825573  0.03176622  1
  Sb  Sb10  1  0.90437876  0.02076160  0.46265813  1
  Sb  Sb11  1  0.12080056  0.96274473  0.55755117  1
  Sb  Sb12  1  0.03173686  0.50506992  0.80623144  1
  Sb  Sb13  1  0.97077973  0.51019738  0.19746734  1
  Sb  Sb14  1  0.39008400  0.48411344  0.44154310  1
  Sb  Sb15  1  0.62380570  0.45821245  0.55949859  1
  Sb  Sb16  1  0.52989709  0.97180674  0.81929660  1
  Sb  Sb17  1  0.46476809  0.03322398  0.19022924  1
  S  S18  1  0.93626261  0.95216895  0.81315070  1
  S  S19  1  0.06917339  0.99701196  0.21250333  1
  S  S20  1  0.42507833  0.99193099  0.98810302  1
  S  S21  1  0.59313919  0.02356351  0.02753446  1
  S  S22  1  0.19072529  0.95201376  0.91563413  1
  S  S23  1  0.83258954  0.04011529  0.10457408  1
  S  S24  1  0.09805738  0.54250032  0.66724268  1
  S  S25  1  0.90653718  0.55677638  0.36087910  1
  S  S26  1  0.74378664  0.91194441  0.32358220  1
  S  S27  1  0.27187577  0.95131567  0.69280135  1
  S  S28  1  0.15941345  0.47920394  0.44805855  1
  S  S29  1  0.84656729  0.45589867  0.56311591  1
  S  S30  1  0.45761935  0.48143808  0.85063872  1
  S  S31  1  0.57137649  0.52161820  0.21351581  1
  S  S32  1  0.92529252  0.49447890  0.00613839  1
  S  S33  1  0.09052454  0.49787098  0.01103169  1
  S  S34  1  0.67432070  0.46718469  0.89529156  1
  S  S35  1  0.34028896  0.46206970  0.10737376  1
  S  S36  1  0.60115434  0.95540766  0.66009128  1
  S  S37  1  0.41249025  0.01840298  0.35306891  1
  S  S38  1  0.24576379  0.51402474  0.28659845  1
  S  S39  1  0.77680334  0.47546147  0.69769123  1
  S  S40  1  0.67461986  0.96826367  0.45220826  1
  S  S41  1  0.31853059  0.01617800  0.53466565  1
