# generated using pymatgen
data_Pr2Mn3(SbS3)4
_symmetry_space_group_name_H-M   'P 1'
_cell_length_a   20.02960800
_cell_length_b   3.90410600
_cell_length_c   14.95364829
_cell_angle_alpha   90.00000000
_cell_angle_beta   126.33350609
_cell_angle_gamma   90.00000000
_symmetry_Int_Tables_number   1
_chemical_formula_structural   Pr2Mn3(SbS3)4
_chemical_formula_sum   'Pr4 Mn6 Sb8 S24'
_cell_volume   942.00006694
_cell_formula_units_Z   2
loop_
 _symmetry_equiv_pos_site_id
 _symmetry_equiv_pos_as_xyz
  1  'x, y, z'
loop_
 _atom_site_type_symbol
 _atom_site_label
 _atom_site_symmetry_multiplicity
 _atom_site_fract_x
 _atom_site_fract_y
 _atom_site_fract_z
 _atom_site_occupancy
  Pr  Pr0  1  0.26059198  0.45824231  0.86446311  1
  Pr  Pr1  1  0.73068312  0.50922758  0.13269721  1
  Pr  Pr2  1  0.77694099  0.97192631  0.87518690  1
  Pr  Pr3  1  0.22880885  0.01530292  0.13085214  1
  Mn  Mn4  1  0.28497482  0.54096318  0.58552345  1
  Mn  Mn5  1  0.70872251  0.45676949  0.39356123  1
  Mn  Mn6  1  0.99808932  0.96737386  0.99646787  1
  Mn  Mn7  1  0.79972748  0.98890181  0.61220599  1
  Mn  Mn8  1  0.18998272  0.98122115  0.40173833  1
  Mn  Mn9  1  0.52253050  0.49700599  0.03190863  1
  Sb  Sb10  1  0.90435704  0.02042985  0.46290541  1
  Sb  Sb11  1  0.12091325  0.96194777  0.55768531  1
  Sb  Sb12  1  0.03176159  0.50571834  0.80639650  1
  Sb  Sb13  1  0.97076463  0.51023787  0.19741071  1
  Sb  Sb14  1  0.38987953  0.48431443  0.44133097  1
  Sb  Sb15  1  0.62371158  0.45878999  0.55963302  1
  Sb  Sb16  1  0.53028015  0.97179266  0.81951121  1
  Sb  Sb17  1  0.46462058  0.03380647  0.19004259  1
  S  S18  1  0.93647737  0.95277858  0.81349086  1
  S  S19  1  0.06925558  0.99651481  0.21260181  1
  S  S20  1  0.42510750  0.99227870  0.98778505  1
  S  S21  1  0.59331172  0.02307443  0.02789776  1
  S  S22  1  0.19084922  0.95280417  0.91583396  1
  S  S23  1  0.83264070  0.04066986  0.10451797  1
  S  S24  1  0.09839992  0.54061818  0.66772589  1
  S  S25  1  0.90675372  0.55769569  0.36098494  1
  S  S26  1  0.74378094  0.91126891  0.32343666  1
  S  S27  1  0.27197567  0.95133771  0.69276010  1
  S  S28  1  0.16003489  0.47895313  0.44836711  1
  S  S29  1  0.84604832  0.45593045  0.56293300  1
  S  S30  1  0.45737814  0.48290359  0.85052635  1
  S  S31  1  0.57129757  0.52282241  0.21335787  1
  S  S32  1  0.92538912  0.49482735  0.00602679  1
  S  S33  1  0.09077422  0.49639081  0.01156450  1
  S  S34  1  0.67469243  0.46758818  0.89570202  1
  S  S35  1  0.34017340  0.46432052  0.10747353  1
  S  S36  1  0.60108878  0.95530152  0.66012858  1
  S  S37  1  0.41261997  0.01849577  0.35313765  1
  S  S38  1  0.24557289  0.51426232  0.28683025  1
  S  S39  1  0.77722634  0.47523891  0.69800630  1
  S  S40  1  0.67468037  0.96780636  0.45252697  1
  S  S41  1  0.31844055  0.01625069  0.53409424  1
