# generated using pymatgen
data_Pr2Mn3(SbS3)4
_symmetry_space_group_name_H-M   'P 1'
_cell_length_a   20.02960800
_cell_length_b   3.90410600
_cell_length_c   14.95364829
_cell_angle_alpha   90.00000000
_cell_angle_beta   126.33350609
_cell_angle_gamma   90.00000000
_symmetry_Int_Tables_number   1
_chemical_formula_structural   Pr2Mn3(SbS3)4
_chemical_formula_sum   'Pr4 Mn6 Sb8 S24'
_cell_volume   942.00006694
_cell_formula_units_Z   2
loop_
 _symmetry_equiv_pos_site_id
 _symmetry_equiv_pos_as_xyz
  1  'x, y, z'
loop_
 _atom_site_type_symbol
 _atom_site_label
 _atom_site_symmetry_multiplicity
 _atom_site_fract_x
 _atom_site_fract_y
 _atom_site_fract_z
 _atom_site_occupancy
  Pr  Pr0  1  0.26066853  0.45769327  0.86441050  1
  Pr  Pr1  1  0.73059125  0.50840279  0.13246564  1
  Pr  Pr2  1  0.77681388  0.97199518  0.87518534  1
  Pr  Pr3  1  0.22903170  0.01518248  0.13092381  1
  Mn  Mn4  1  0.28469652  0.54026417  0.58500658  1
  Mn  Mn5  1  0.70868766  0.45825906  0.39364363  1
  Mn  Mn6  1  0.99822135  0.96780225  0.99640691  1
  Mn  Mn7  1  0.79971953  0.98807366  0.61152797  1
  Mn  Mn8  1  0.19006860  0.98137730  0.40173848  1
  Mn  Mn9  1  0.52253754  0.49552963  0.03197542  1
  Sb  Sb10  1  0.90435617  0.02021726  0.46325108  1
  Sb  Sb11  1  0.12093328  0.96071805  0.55779849  1
  Sb  Sb12  1  0.03173745  0.50633123  0.80652093  1
  Sb  Sb13  1  0.97076403  0.51052836  0.19734413  1
  Sb  Sb14  1  0.38971506  0.48482901  0.44123978  1
  Sb  Sb15  1  0.62360321  0.45887982  0.55972287  1
  Sb  Sb16  1  0.53063691  0.97172725  0.81966799  1
  Sb  Sb17  1  0.46451448  0.03460581  0.18984828  1
  S  S18  1  0.93666688  0.95341825  0.81376796  1
  S  S19  1  0.06927058  0.99585888  0.21262065  1
  S  S20  1  0.42526981  0.99259983  0.98760087  1
  S  S21  1  0.59335543  0.02259367  0.02813986  1
  S  S22  1  0.19114638  0.95358266  0.91620621  1
  S  S23  1  0.83265640  0.04157096  0.10456252  1
  S  S24  1  0.09882810  0.53854311  0.66837796  1
  S  S25  1  0.90693096  0.55868077  0.36104588  1
  S  S26  1  0.74365302  0.91121315  0.32327275  1
  S  S27  1  0.27204628  0.95143720  0.69278247  1
  S  S28  1  0.16057256  0.47873820  0.44857696  1
  S  S29  1  0.84567877  0.45597209  0.56298569  1
  S  S30  1  0.45707861  0.48384687  0.85040070  1
  S  S31  1  0.57132898  0.52427673  0.21324848  1
  S  S32  1  0.92546093  0.49495498  0.00593933  1
  S  S33  1  0.09084399  0.49447489  0.01201346  1
  S  S34  1  0.67501557  0.46863910  0.89601997  1
  S  S35  1  0.34003061  0.46677772  0.10758402  1
  S  S36  1  0.60106125  0.95547191  0.66010870  1
  S  S37  1  0.41283713  0.01969116  0.35306347  1
  S  S38  1  0.24548668  0.51441191  0.28703350  1
  S  S39  1  0.77753666  0.47506708  0.69827057  1
  S  S40  1  0.67497308  0.96716147  0.45333901  1
  S  S41  1  0.31839219  0.01631456  0.53363371  1
