# generated using pymatgen
data_Pr2Mn3(SbS3)4
_symmetry_space_group_name_H-M   'P 1'
_cell_length_a   20.02960800
_cell_length_b   3.90410600
_cell_length_c   14.95364829
_cell_angle_alpha   90.00000000
_cell_angle_beta   126.33350609
_cell_angle_gamma   90.00000000
_symmetry_Int_Tables_number   1
_chemical_formula_structural   Pr2Mn3(SbS3)4
_chemical_formula_sum   'Pr4 Mn6 Sb8 S24'
_cell_volume   942.00006694
_cell_formula_units_Z   2
loop_
 _symmetry_equiv_pos_site_id
 _symmetry_equiv_pos_as_xyz
  1  'x, y, z'
loop_
 _atom_site_type_symbol
 _atom_site_label
 _atom_site_symmetry_multiplicity
 _atom_site_fract_x
 _atom_site_fract_y
 _atom_site_fract_z
 _atom_site_occupancy
  Pr  Pr0  1  0.26075245  0.45733321  0.86441339  1
  Pr  Pr1  1  0.73058376  0.50759900  0.13227072  1
  Pr  Pr2  1  0.77665316  0.97217323  0.87512737  1
  Pr  Pr3  1  0.22921660  0.01506820  0.13094423  1
  Mn  Mn4  1  0.28431463  0.53957964  0.58432036  1
  Mn  Mn5  1  0.70857893  0.45977612  0.39358338  1
  Mn  Mn6  1  0.99843194  0.96789689  0.99633597  1
  Mn  Mn7  1  0.79975287  0.98788905  0.61099419  1
  Mn  Mn8  1  0.19007025  0.98126690  0.40178355  1
  Mn  Mn9  1  0.52264964  0.49388399  0.03220058  1
  Sb  Sb10  1  0.90447039  0.02017454  0.46362621  1
  Sb  Sb11  1  0.12098259  0.95971023  0.55788351  1
  Sb  Sb12  1  0.03171146  0.50685051  0.80661024  1
  Sb  Sb13  1  0.97082764  0.51076889  0.19728894  1
  Sb  Sb14  1  0.38947037  0.48531114  0.44107539  1
  Sb  Sb15  1  0.62347790  0.45883893  0.55971872  1
  Sb  Sb16  1  0.53093860  0.97170575  0.81983240  1
  Sb  Sb17  1  0.46442577  0.03581115  0.18967504  1
  S  S18  1  0.93681044  0.95406688  0.81400548  1
  S  S19  1  0.06921375  0.99509371  0.21261807  1
  S  S20  1  0.42532391  0.99303731  0.98746160  1
  S  S21  1  0.59351371  0.02154019  0.02846060  1
  S  S22  1  0.19147853  0.95474134  0.91661406  1
  S  S23  1  0.83265093  0.04281501  0.10465529  1
  S  S24  1  0.09914485  0.53685607  0.66884656  1
  S  S25  1  0.90709338  0.55932694  0.36121890  1
  S  S26  1  0.74369929  0.91111404  0.32314946  1
  S  S27  1  0.27207957  0.95196949  0.69293347  1
  S  S28  1  0.16095451  0.47908506  0.44861897  1
  S  S29  1  0.84503704  0.45619059  0.56263712  1
  S  S30  1  0.45686314  0.48478327  0.85042690  1
  S  S31  1  0.57129949  0.52556833  0.21322262  1
  S  S32  1  0.92535185  0.49508028  0.00555144  1
  S  S33  1  0.09090309  0.49322447  0.01233884  1
  S  S34  1  0.67521942  0.46991239  0.89647157  1
  S  S35  1  0.33993788  0.46933254  0.10771274  1
  S  S36  1  0.60083389  0.95586032  0.65978998  1
  S  S37  1  0.41304079  0.02092266  0.35286793  1
  S  S38  1  0.24544686  0.51457097  0.28724803  1
  S  S39  1  0.77784854  0.47547216  0.69831715  1
  S  S40  1  0.67532291  0.96654435  0.45398985  1
  S  S41  1  0.31826523  0.01620470  0.53325259  1
