# generated using pymatgen
data_Pr2Mn3(SbS3)4
_symmetry_space_group_name_H-M   'P 1'
_cell_length_a   20.02960800
_cell_length_b   3.90410600
_cell_length_c   14.95364829
_cell_angle_alpha   90.00000000
_cell_angle_beta   126.33350609
_cell_angle_gamma   90.00000000
_symmetry_Int_Tables_number   1
_chemical_formula_structural   Pr2Mn3(SbS3)4
_chemical_formula_sum   'Pr4 Mn6 Sb8 S24'
_cell_volume   942.00006694
_cell_formula_units_Z   2
loop_
 _symmetry_equiv_pos_site_id
 _symmetry_equiv_pos_as_xyz
  1  'x, y, z'
loop_
 _atom_site_type_symbol
 _atom_site_label
 _atom_site_symmetry_multiplicity
 _atom_site_fract_x
 _atom_site_fract_y
 _atom_site_fract_z
 _atom_site_occupancy
  Pr  Pr0  1  0.26079583  0.45701663  0.86441233  1
  Pr  Pr1  1  0.73057256  0.50667656  0.13210383  1
  Pr  Pr2  1  0.77657400  0.97222943  0.87518984  1
  Pr  Pr3  1  0.22939170  0.01524608  0.13091610  1
  Mn  Mn4  1  0.28385501  0.53909845  0.58360483  1
  Mn  Mn5  1  0.70851937  0.46126016  0.39347236  1
  Mn  Mn6  1  0.99870179  0.96831325  0.99631203  1
  Mn  Mn7  1  0.79988385  0.98788985  0.61055264  1
  Mn  Mn8  1  0.18996760  0.98116907  0.40180154  1
  Mn  Mn9  1  0.52269647  0.49188259  0.03228405  1
  Sb  Sb10  1  0.90457237  0.02015159  0.46394941  1
  Sb  Sb11  1  0.12102241  0.95908751  0.55794184  1
  Sb  Sb12  1  0.03167544  0.50729000  0.80665477  1
  Sb  Sb13  1  0.97088395  0.51089725  0.19719730  1
  Sb  Sb14  1  0.38929745  0.48564953  0.44095652  1
  Sb  Sb15  1  0.62339674  0.45909225  0.55978592  1
  Sb  Sb16  1  0.53125412  0.97155966  0.81991273  1
  Sb  Sb17  1  0.46429963  0.03685282  0.18955522  1
  S  S18  1  0.93696772  0.95429959  0.81440988  1
  S  S19  1  0.06908535  0.99470411  0.21246509  1
  S  S20  1  0.42541116  0.99368265  0.98727935  1
  S  S21  1  0.59375147  0.02029064  0.02883738  1
  S  S22  1  0.19206264  0.95559868  0.91730636  1
  S  S23  1  0.83273375  0.04396797  0.10476813  1
  S  S24  1  0.09949656  0.53503772  0.66936299  1
  S  S25  1  0.90712565  0.55953155  0.36131025  1
  S  S26  1  0.74373568  0.91074531  0.32296187  1
  S  S27  1  0.27208427  0.95186176  0.69306754  1
  S  S28  1  0.16138320  0.47905494  0.44884071  1
  S  S29  1  0.84449520  0.45639898  0.56229997  1
  S  S30  1  0.45659752  0.48659115  0.85029976  1
  S  S31  1  0.57128821  0.52622942  0.21335766  1
  S  S32  1  0.92526993  0.49528897  0.00517158  1
  S  S33  1  0.09095259  0.49219681  0.01259043  1
  S  S34  1  0.67551608  0.47125177  0.89712737  1
  S  S35  1  0.33983637  0.47122484  0.10774971  1
  S  S36  1  0.60063012  0.95655953  0.65953018  1
  S  S37  1  0.41334885  0.02171467  0.35283424  1
  S  S38  1  0.24534848  0.51475473  0.28740732  1
  S  S39  1  0.77807984  0.47587916  0.69834610  1
  S  S40  1  0.67550680  0.96513180  0.45446982  1
  S  S41  1  0.31803714  0.01666113  0.53277682  1
