# generated using pymatgen
data_Pr2Mn3(SbS3)4
_symmetry_space_group_name_H-M   'P 1'
_cell_length_a   20.02960800
_cell_length_b   3.90410600
_cell_length_c   14.95364829
_cell_angle_alpha   90.00000000
_cell_angle_beta   126.33350609
_cell_angle_gamma   90.00000000
_symmetry_Int_Tables_number   1
_chemical_formula_structural   Pr2Mn3(SbS3)4
_chemical_formula_sum   'Pr4 Mn6 Sb8 S24'
_cell_volume   942.00006694
_cell_formula_units_Z   2
loop_
 _symmetry_equiv_pos_site_id
 _symmetry_equiv_pos_as_xyz
  1  'x, y, z'
loop_
 _atom_site_type_symbol
 _atom_site_label
 _atom_site_symmetry_multiplicity
 _atom_site_fract_x
 _atom_site_fract_y
 _atom_site_fract_z
 _atom_site_occupancy
  Pr  Pr0  1  0.26086928  0.45679557  0.86446100  1
  Pr  Pr1  1  0.73049986  0.50606808  0.13187671  1
  Pr  Pr2  1  0.77649921  0.97224957  0.87521172  1
  Pr  Pr3  1  0.22957156  0.01546028  0.13081469  1
  Mn  Mn4  1  0.28335605  0.53859608  0.58293794  1
  Mn  Mn5  1  0.70851722  0.46271049  0.39339911  1
  Mn  Mn6  1  0.99887724  0.96884320  0.99615582  1
  Mn  Mn7  1  0.79989494  0.98781193  0.61010234  1
  Mn  Mn8  1  0.18988180  0.98124424  0.40181241  1
  Mn  Mn9  1  0.52279112  0.48995438  0.03231200  1
  Sb  Sb10  1  0.90473308  0.02019376  0.46430414  1
  Sb  Sb11  1  0.12106751  0.95844253  0.55796960  1
  Sb  Sb12  1  0.03160451  0.50751147  0.80673693  1
  Sb  Sb13  1  0.97093250  0.51074552  0.19714247  1
  Sb  Sb14  1  0.38910457  0.48586708  0.44082101  1
  Sb  Sb15  1  0.62328769  0.45922211  0.55984615  1
  Sb  Sb16  1  0.53151602  0.97158957  0.81994800  1
  Sb  Sb17  1  0.46421420  0.03776857  0.18949453  1
  S  S18  1  0.93720776  0.95406488  0.81499931  1
  S  S19  1  0.06919717  0.99480297  0.21231871  1
  S  S20  1  0.42564552  0.99357676  0.98721229  1
  S  S21  1  0.59396785  0.01945483  0.02908757  1
  S  S22  1  0.19256546  0.95616573  0.91798359  1
  S  S23  1  0.83273813  0.04527367  0.10482495  1
  S  S24  1  0.09983936  0.53361246  0.67005415  1
  S  S25  1  0.90704604  0.55902156  0.36136147  1
  S  S26  1  0.74371002  0.91103201  0.32265615  1
  S  S27  1  0.27198665  0.95174182  0.69300397  1
  S  S28  1  0.16188500  0.47944643  0.44924700  1
  S  S29  1  0.84411158  0.45616819  0.56207564  1
  S  S30  1  0.45628292  0.48915702  0.84992739  1
  S  S31  1  0.57141398  0.52640609  0.21346987  1
  S  S32  1  0.92512156  0.49507009  0.00487885  1
  S  S33  1  0.09099736  0.49113516  0.01269532  1
  S  S34  1  0.67577713  0.47234067  0.89776313  1
  S  S35  1  0.33977598  0.47290485  0.10768118  1
  S  S36  1  0.60042108  0.95737517  0.65937769  1
  S  S37  1  0.41377019  0.02224251  0.35295975  1
  S  S38  1  0.24520687  0.51503852  0.28743995  1
  S  S39  1  0.77817021  0.47582519  0.69804963  1
  S  S40  1  0.67563477  0.96385015  0.45482669  1
  S  S41  1  0.31793057  0.01718153  0.53236645  1
