# generated using pymatgen
data_Pr2Mn3(SbS3)4
_symmetry_space_group_name_H-M   'P 1'
_cell_length_a   20.02960800
_cell_length_b   3.90410600
_cell_length_c   14.95364829
_cell_angle_alpha   90.00000000
_cell_angle_beta   126.33350609
_cell_angle_gamma   90.00000000
_symmetry_Int_Tables_number   1
_chemical_formula_structural   Pr2Mn3(SbS3)4
_chemical_formula_sum   'Pr4 Mn6 Sb8 S24'
_cell_volume   942.00006694
_cell_formula_units_Z   2
loop_
 _symmetry_equiv_pos_site_id
 _symmetry_equiv_pos_as_xyz
  1  'x, y, z'
loop_
 _atom_site_type_symbol
 _atom_site_label
 _atom_site_symmetry_multiplicity
 _atom_site_fract_x
 _atom_site_fract_y
 _atom_site_fract_z
 _atom_site_occupancy
  Pr  Pr0  1  0.26989800  0.50662310  0.87128569  1
  Pr  Pr1  1  0.73455131  0.51612109  0.13534523  1
  Pr  Pr2  1  0.76448513  0.03289085  0.87009815  1
  Pr  Pr3  1  0.22873261  0.96829032  0.12902522  1
  Mn  Mn4  1  0.29938874  0.46686268  0.60932861  1
  Mn  Mn5  1  0.68673927  0.45859773  0.36639915  1
  Mn  Mn6  1  0.99963591  0.98060050  0.00750260  1
  Mn  Mn7  1  0.79056680  0.03000784  0.61307573  1
  Mn  Mn8  1  0.19771444  0.02070347  0.37015212  1
  Mn  Mn9  1  0.48088867  0.46921851  0.98086347  1
  Sb  Sb10  1  0.89010617  0.97444389  0.44730926  1
  Sb  Sb11  1  0.11253207  0.97790469  0.54777550  1
  Sb  Sb12  1  0.03848009  0.52500211  0.82615665  1
  Sb  Sb13  1  0.96884142  0.48532830  0.19278870  1
  Sb  Sb14  1  0.39820811  0.49389710  0.45426346  1
  Sb  Sb15  1  0.61222805  0.48309232  0.54735616  1
  Sb  Sb16  1  0.52932715  0.97190787  0.80454908  1
  Sb  Sb17  1  0.46516651  0.02949455  0.18506214  1
  S  S18  1  0.94109208  0.01061741  0.80788816  1
  S  S19  1  0.06658381  0.99992244  0.20212333  1
  S  S20  1  0.41759520  0.98441245  0.97557987  1
  S  S21  1  0.58584820  0.02085104  0.00863764  1
  S  S22  1  0.16191269  0.02452850  0.89615586  1
  S  S23  1  0.82653150  0.98250274  0.10123205  1
  S  S24  1  0.08678370  0.49956986  0.63536405  1
  S  S25  1  0.91571789  0.49591828  0.35391114  1
  S  S26  1  0.73480234  0.00299281  0.29555900  1
  S  S27  1  0.26190374  0.01533943  0.70414251  1
  S  S28  1  0.17113768  0.52285844  0.43993547  1
  S  S29  1  0.80777293  0.52066984  0.53811349  1
  S  S30  1  0.43415457  0.47540305  0.80153972  1
  S  S31  1  0.55481576  0.49839744  0.17946976  1
  S  S32  1  0.92185522  0.51366120  0.98705301  1
  S  S33  1  0.08723133  0.50257918  0.02373233  1
  S  S34  1  0.66846985  0.55765653  0.89540557  1
  S  S35  1  0.32920852  0.46033420  0.10132806  1
  S  S36  1  0.58875444  0.00338821  0.64461519  1
  S  S37  1  0.39204692  0.99053399  0.33096769  1
  S  S38  1  0.24720541  0.46741015  0.31703391  1
  S  S39  1  0.76393534  0.49643947  0.69281038  1
  S  S40  1  0.65814970  0.98630052  0.43531401  1
  S  S41  1  0.33009663  0.98821254  0.55417313  1
