# generated using pymatgen
data_Pr2Mn3(SbS3)4
_symmetry_space_group_name_H-M   'P 1'
_cell_length_a   20.02960800
_cell_length_b   3.90410600
_cell_length_c   14.95364829
_cell_angle_alpha   90.00000000
_cell_angle_beta   126.33350609
_cell_angle_gamma   90.00000000
_symmetry_Int_Tables_number   1
_chemical_formula_structural   Pr2Mn3(SbS3)4
_chemical_formula_sum   'Pr4 Mn6 Sb8 S24'
_cell_volume   942.00006694
_cell_formula_units_Z   2
loop_
 _symmetry_equiv_pos_site_id
 _symmetry_equiv_pos_as_xyz
  1  'x, y, z'
loop_
 _atom_site_type_symbol
 _atom_site_label
 _atom_site_symmetry_multiplicity
 _atom_site_fract_x
 _atom_site_fract_y
 _atom_site_fract_z
 _atom_site_occupancy
  Pr  Pr0  1  0.26088025  0.45654779  0.86440944  1
  Pr  Pr1  1  0.73040465  0.50558466  0.13165703  1
  Pr  Pr2  1  0.77640084  0.97211666  0.87526397  1
  Pr  Pr3  1  0.22974584  0.01586259  0.13072377  1
  Mn  Mn4  1  0.28276221  0.53825555  0.58223132  1
  Mn  Mn5  1  0.70850886  0.46396335  0.39338956  1
  Mn  Mn6  1  0.99907999  0.96957952  0.99597285  1
  Mn  Mn7  1  0.79993538  0.98714209  0.60966060  1
  Mn  Mn8  1  0.18983963  0.98114524  0.40184366  1
  Mn  Mn9  1  0.52287992  0.48847568  0.03242588  1
  Sb  Sb10  1  0.90489701  0.02014297  0.46463882  1
  Sb  Sb11  1  0.12108645  0.95776712  0.55800265  1
  Sb  Sb12  1  0.03163406  0.50768003  0.80693043  1
  Sb  Sb13  1  0.97097429  0.51081249  0.19701325  1
  Sb  Sb14  1  0.38884755  0.48619501  0.44062477  1
  Sb  Sb15  1  0.62310341  0.45904483  0.55988919  1
  Sb  Sb16  1  0.53173699  0.97179437  0.82001215  1
  Sb  Sb17  1  0.46414458  0.03862031  0.18933887  1
  S  S18  1  0.93733811  0.95401049  0.81551803  1
  S  S19  1  0.06923012  0.99486010  0.21218932  1
  S  S20  1  0.42600697  0.99273919  0.98726410  1
  S  S21  1  0.59410080  0.01895723  0.02934078  1
  S  S22  1  0.19306307  0.95651198  0.91855422  1
  S  S23  1  0.83276502  0.04637501  0.10479259  1
  S  S24  1  0.10021339  0.53245310  0.67084474  1
  S  S25  1  0.90712229  0.55912693  0.36144891  1
  S  S26  1  0.74374539  0.91119966  0.32247472  1
  S  S27  1  0.27201469  0.95173099  0.69301591  1
  S  S28  1  0.16223242  0.47976291  0.44949169  1
  S  S29  1  0.84385202  0.45578121  0.56200792  1
  S  S30  1  0.45591827  0.49075856  0.84964744  1
  S  S31  1  0.57149778  0.52652023  0.21346884  1
  S  S32  1  0.92494136  0.49493995  0.00459959  1
  S  S33  1  0.09107953  0.49019299  0.01265237  1
  S  S34  1  0.67609533  0.47345485  0.89849924  1
  S  S35  1  0.33977848  0.47451083  0.10774217  1
  S  S36  1  0.60027900  0.95814030  0.65928564  1
  S  S37  1  0.41410240  0.02241006  0.35315559  1
  S  S38  1  0.24522600  0.51447712  0.28767052  1
  S  S39  1  0.77820067  0.47501002  0.69781487  1
  S  S40  1  0.67583876  0.96282758  0.45516498  1
  S  S41  1  0.31781743  0.01726780  0.53180428  1
