# generated using pymatgen
data_Pr2Mn3(SbS3)4
_symmetry_space_group_name_H-M   'P 1'
_cell_length_a   20.02960800
_cell_length_b   3.90410600
_cell_length_c   14.95364829
_cell_angle_alpha   90.00000000
_cell_angle_beta   126.33350609
_cell_angle_gamma   90.00000000
_symmetry_Int_Tables_number   1
_chemical_formula_structural   Pr2Mn3(SbS3)4
_chemical_formula_sum   'Pr4 Mn6 Sb8 S24'
_cell_volume   942.00006694
_cell_formula_units_Z   2
loop_
 _symmetry_equiv_pos_site_id
 _symmetry_equiv_pos_as_xyz
  1  'x, y, z'
loop_
 _atom_site_type_symbol
 _atom_site_label
 _atom_site_symmetry_multiplicity
 _atom_site_fract_x
 _atom_site_fract_y
 _atom_site_fract_z
 _atom_site_occupancy
  Pr  Pr0  1  0.26095867  0.45638632  0.86435003  1
  Pr  Pr1  1  0.73033029  0.50529049  0.13141912  1
  Pr  Pr2  1  0.77630386  0.97210002  0.87526215  1
  Pr  Pr3  1  0.22986468  0.01633376  0.13063745  1
  Mn  Mn4  1  0.28227350  0.53790244  0.58163947  1
  Mn  Mn5  1  0.70859984  0.46522225  0.39338463  1
  Mn  Mn6  1  0.99939289  0.97033622  0.99597669  1
  Mn  Mn7  1  0.79988915  0.98602651  0.60915757  1
  Mn  Mn8  1  0.18968677  0.98124567  0.40169311  1
  Mn  Mn9  1  0.52283056  0.48692973  0.03243899  1
  Sb  Sb10  1  0.90505761  0.01996046  0.46495999  1
  Sb  Sb11  1  0.12111390  0.95740699  0.55805446  1
  Sb  Sb12  1  0.03166445  0.50796267  0.80706997  1
  Sb  Sb13  1  0.97094486  0.51079030  0.19676047  1
  Sb  Sb14  1  0.38864489  0.48660117  0.44040199  1
  Sb  Sb15  1  0.62287201  0.45906575  0.55987991  1
  Sb  Sb16  1  0.53200997  0.97219403  0.82012418  1
  Sb  Sb17  1  0.46417702  0.03951702  0.18917945  1
  S  S18  1  0.93739512  0.95403683  0.81597296  1
  S  S19  1  0.06925048  0.99488912  0.21194236  1
  S  S20  1  0.42630187  0.99202317  0.98723661  1
  S  S21  1  0.59434655  0.01874700  0.02955075  1
  S  S22  1  0.19336209  0.95711155  0.91887567  1
  S  S23  1  0.83282864  0.04740483  0.10487701  1
  S  S24  1  0.10069699  0.53120040  0.67175068  1
  S  S25  1  0.90723554  0.55886402  0.36147162  1
  S  S26  1  0.74379019  0.91228093  0.32236553  1
  S  S27  1  0.27210306  0.95118794  0.69308718  1
  S  S28  1  0.16253805  0.48015875  0.44968612  1
  S  S29  1  0.84355466  0.45570526  0.56183382  1
  S  S30  1  0.45558450  0.49303989  0.84932289  1
  S  S31  1  0.57150685  0.52689060  0.21332626  1
  S  S32  1  0.92478668  0.49514922  0.00434341  1
  S  S33  1  0.09104245  0.48959267  0.01251238  1
  S  S34  1  0.67642722  0.47457034  0.89902694  1
  S  S35  1  0.33988465  0.47618426  0.10768118  1
  S  S36  1  0.60029534  0.95867926  0.65930811  1
  S  S37  1  0.41440450  0.02255608  0.35315580  1
  S  S38  1  0.24525725  0.51429675  0.28760379  1
  S  S39  1  0.77815161  0.47394886  0.69753833  1
  S  S40  1  0.67603926  0.96165274  0.45529932  1
  S  S41  1  0.31758123  0.01647395  0.53125677  1
