# generated using pymatgen
data_Pr2Mn3(SbS3)4
_symmetry_space_group_name_H-M   'P 1'
_cell_length_a   20.02960800
_cell_length_b   3.90410600
_cell_length_c   14.95364829
_cell_angle_alpha   90.00000000
_cell_angle_beta   126.33350609
_cell_angle_gamma   90.00000000
_symmetry_Int_Tables_number   1
_chemical_formula_structural   Pr2Mn3(SbS3)4
_chemical_formula_sum   'Pr4 Mn6 Sb8 S24'
_cell_volume   942.00006694
_cell_formula_units_Z   2
loop_
 _symmetry_equiv_pos_site_id
 _symmetry_equiv_pos_as_xyz
  1  'x, y, z'
loop_
 _atom_site_type_symbol
 _atom_site_label
 _atom_site_symmetry_multiplicity
 _atom_site_fract_x
 _atom_site_fract_y
 _atom_site_fract_z
 _atom_site_occupancy
  Pr  Pr0  1  0.26100313  0.45628583  0.86423404  1
  Pr  Pr1  1  0.73026791  0.50503798  0.13117199  1
  Pr  Pr2  1  0.77623096  0.97235614  0.87525921  1
  Pr  Pr3  1  0.22997966  0.01692505  0.13051331  1
  Mn  Mn4  1  0.28175774  0.53732769  0.58110461  1
  Mn  Mn5  1  0.70872782  0.46600511  0.39347727  1
  Mn  Mn6  1  0.99967893  0.97192583  0.99596404  1
  Mn  Mn7  1  0.79978768  0.98507034  0.60877703  1
  Mn  Mn8  1  0.18957582  0.98130660  0.40171996  1
  Mn  Mn9  1  0.52278969  0.48579557  0.03236902  1
  Sb  Sb10  1  0.90520039  0.01959692  0.46523843  1
  Sb  Sb11  1  0.12110948  0.95730278  0.55812168  1
  Sb  Sb12  1  0.03161566  0.50814722  0.80713824  1
  Sb  Sb13  1  0.97080769  0.51061256  0.19646383  1
  Sb  Sb14  1  0.38855954  0.48695862  0.44023833  1
  Sb  Sb15  1  0.62259678  0.45936216  0.55981987  1
  Sb  Sb16  1  0.53227634  0.97266684  0.82021509  1
  Sb  Sb17  1  0.46420134  0.04041688  0.18895148  1
  S  S18  1  0.93749295  0.95395615  0.81639104  1
  S  S19  1  0.06950442  0.99538882  0.21189701  1
  S  S20  1  0.42650789  0.99128008  0.98725289  1
  S  S21  1  0.59466264  0.01874251  0.02986652  1
  S  S22  1  0.19354630  0.95826957  0.91910014  1
  S  S23  1  0.83280269  0.04856339  0.10495604  1
  S  S24  1  0.10111889  0.53001229  0.67250403  1
  S  S25  1  0.90725652  0.55879111  0.36141310  1
  S  S26  1  0.74376884  0.91362620  0.32211070  1
  S  S27  1  0.27206956  0.95143736  0.69325889  1
  S  S28  1  0.16271651  0.48086560  0.44971148  1
  S  S29  1  0.84333485  0.45570372  0.56192225  1
  S  S30  1  0.45522790  0.49544214  0.84892746  1
  S  S31  1  0.57160273  0.52756609  0.21326971  1
  S  S32  1  0.92469848  0.49459531  0.00422093  1
  S  S33  1  0.09108997  0.48872735  0.01251676  1
  S  S34  1  0.67673951  0.47615542  0.89962410  1
  S  S35  1  0.33989043  0.47776241  0.10749082  1
  S  S36  1  0.60023602  0.95913793  0.65927282  1
  S  S37  1  0.41455929  0.02254531  0.35307713  1
  S  S38  1  0.24517814  0.51422632  0.28752533  1
  S  S39  1  0.77810815  0.47302461  0.69725041  1
  S  S40  1  0.67633293  0.96046430  0.45557078  1
  S  S41  1  0.31738734  0.01555161  0.53081197  1
