# generated using pymatgen
data_Pr2Mn3(SbS3)4
_symmetry_space_group_name_H-M   'P 1'
_cell_length_a   20.02960800
_cell_length_b   3.90410600
_cell_length_c   14.95364829
_cell_angle_alpha   90.00000000
_cell_angle_beta   126.33350609
_cell_angle_gamma   90.00000000
_symmetry_Int_Tables_number   1
_chemical_formula_structural   Pr2Mn3(SbS3)4
_chemical_formula_sum   'Pr4 Mn6 Sb8 S24'
_cell_volume   942.00006694
_cell_formula_units_Z   2
loop_
 _symmetry_equiv_pos_site_id
 _symmetry_equiv_pos_as_xyz
  1  'x, y, z'
loop_
 _atom_site_type_symbol
 _atom_site_label
 _atom_site_symmetry_multiplicity
 _atom_site_fract_x
 _atom_site_fract_y
 _atom_site_fract_z
 _atom_site_occupancy
  Pr  Pr0  1  0.26105215  0.45615251  0.86413562  1
  Pr  Pr1  1  0.73022778  0.50465019  0.13094711  1
  Pr  Pr2  1  0.77612485  0.97283165  0.87521908  1
  Pr  Pr3  1  0.23012612  0.01757519  0.13048980  1
  Mn  Mn4  1  0.28129891  0.53671064  0.58059104  1
  Mn  Mn5  1  0.70877854  0.46605901  0.39355943  1
  Mn  Mn6  1  0.99990465  0.97400140  0.99600414  1
  Mn  Mn7  1  0.79973951  0.98434561  0.60848817  1
  Mn  Mn8  1  0.18937511  0.98146558  0.40159150  1
  Mn  Mn9  1  0.52273969  0.48484890  0.03223906  1
  Sb  Sb10  1  0.90519680  0.01935388  0.46540914  1
  Sb  Sb11  1  0.12104986  0.95732204  0.55822232  1
  Sb  Sb12  1  0.03154329  0.50838731  0.80715876  1
  Sb  Sb13  1  0.97064833  0.51019126  0.19621604  1
  Sb  Sb14  1  0.38841151  0.48722925  0.43996007  1
  Sb  Sb15  1  0.62226757  0.45962123  0.55968614  1
  Sb  Sb16  1  0.53249100  0.97327889  0.82010924  1
  Sb  Sb17  1  0.46422390  0.04090988  0.18873840  1
  S  S18  1  0.93750049  0.95391507  0.81660574  1
  S  S19  1  0.06973260  0.99666577  0.21166687  1
  S  S20  1  0.42665454  0.99050147  0.98730014  1
  S  S21  1  0.59505986  0.01879608  0.03032425  1
  S  S22  1  0.19370677  0.95948914  0.91938122  1
  S  S23  1  0.83273398  0.04953028  0.10510851  1
  S  S24  1  0.10162027  0.52908910  0.67328608  1
  S  S25  1  0.90737310  0.55884362  0.36142573  1
  S  S26  1  0.74369032  0.91472493  0.32199467  1
  S  S27  1  0.27197531  0.95194172  0.69336444  1
  S  S28  1  0.16296228  0.48177109  0.44982931  1
  S  S29  1  0.84317018  0.45575983  0.56184935  1
  S  S30  1  0.45472520  0.49772317  0.84843099  1
  S  S31  1  0.57175302  0.52795136  0.21332943  1
  S  S32  1  0.92449364  0.49408702  0.00390386  1
  S  S33  1  0.09115732  0.48750533  0.01254125  1
  S  S34  1  0.67692015  0.47743602  0.90002005  1
  S  S35  1  0.33978019  0.47913789  0.10731769  1
  S  S36  1  0.60034312  0.95972312  0.65934001  1
  S  S37  1  0.41487630  0.02288525  0.35327817  1
  S  S38  1  0.24500780  0.51412779  0.28754010  1
  S  S39  1  0.77828181  0.47172308  0.69717691  1
  S  S40  1  0.67651648  0.95877706  0.45576991  1
  S  S41  1  0.31725471  0.01437267  0.53049406  1
