# generated using pymatgen
data_Pr2Mn3(SbS3)4
_symmetry_space_group_name_H-M   'P 1'
_cell_length_a   20.02960800
_cell_length_b   3.90410600
_cell_length_c   14.95364829
_cell_angle_alpha   90.00000000
_cell_angle_beta   126.33350609
_cell_angle_gamma   90.00000000
_symmetry_Int_Tables_number   1
_chemical_formula_structural   Pr2Mn3(SbS3)4
_chemical_formula_sum   'Pr4 Mn6 Sb8 S24'
_cell_volume   942.00006694
_cell_formula_units_Z   2
loop_
 _symmetry_equiv_pos_site_id
 _symmetry_equiv_pos_as_xyz
  1  'x, y, z'
loop_
 _atom_site_type_symbol
 _atom_site_label
 _atom_site_symmetry_multiplicity
 _atom_site_fract_x
 _atom_site_fract_y
 _atom_site_fract_z
 _atom_site_occupancy
  Pr  Pr0  1  0.26104951  0.45602014  0.86401612  1
  Pr  Pr1  1  0.73014779  0.50441268  0.13073953  1
  Pr  Pr2  1  0.77605968  0.97330928  0.87522226  1
  Pr  Pr3  1  0.23025927  0.01804812  0.13034027  1
  Mn  Mn4  1  0.28100601  0.53622185  0.58029826  1
  Mn  Mn5  1  0.70869406  0.46618794  0.39350446  1
  Mn  Mn6  1  0.00027855  0.97611615  0.99617516  1
  Mn  Mn7  1  0.79948599  0.98386412  0.60798302  1
  Mn  Mn8  1  0.18915941  0.98199832  0.40135253  1
  Mn  Mn9  1  0.52270861  0.48427251  0.03208743  1
  Sb  Sb10  1  0.90519617  0.01940493  0.46563999  1
  Sb  Sb11  1  0.12101930  0.95709180  0.55833366  1
  Sb  Sb12  1  0.03151838  0.50887695  0.80728579  1
  Sb  Sb13  1  0.97048967  0.50975190  0.19594079  1
  Sb  Sb14  1  0.38834599  0.48753462  0.43976785  1
  Sb  Sb15  1  0.62197053  0.45962617  0.55960067  1
  Sb  Sb16  1  0.53279843  0.97413236  0.82016005  1
  Sb  Sb17  1  0.46418173  0.04139850  0.18847972  1
  S  S18  1  0.93752098  0.95315978  0.81693770  1
  S  S19  1  0.06983716  0.99749924  0.21152071  1
  S  S20  1  0.42702597  0.98943949  0.98736888  1
  S  S21  1  0.59542716  0.01914472  0.03079566  1
  S  S22  1  0.19386615  0.96007733  0.91964031  1
  S  S23  1  0.83269026  0.05036261  0.10516343  1
  S  S24  1  0.10201868  0.52800576  0.67384657  1
  S  S25  1  0.90744958  0.55882142  0.36149516  1
  S  S26  1  0.74350978  0.91565018  0.32187851  1
  S  S27  1  0.27162024  0.95275471  0.69323566  1
  S  S28  1  0.16329052  0.48276876  0.45006965  1
  S  S29  1  0.84311656  0.45611415  0.56198720  1
  S  S30  1  0.45433300  0.49974932  0.84803320  1
  S  S31  1  0.57179986  0.52781668  0.21333593  1
  S  S32  1  0.92440207  0.49347418  0.00354900  1
  S  S33  1  0.09133942  0.48601632  0.01268227  1
  S  S34  1  0.67706089  0.47894348  0.90020717  1
  S  S35  1  0.33956726  0.48076555  0.10708493  1
  S  S36  1  0.60039844  0.96087498  0.65914477  1
  S  S37  1  0.41505484  0.02314077  0.35347117  1
  S  S38  1  0.24483317  0.51378414  0.28759869  1
  S  S39  1  0.77867169  0.47072039  0.69743972  1
  S  S40  1  0.67677368  0.95755597  0.45617971  1
  S  S41  1  0.31698830  0.01368697  0.53003527  1
