# generated using pymatgen
data_Pr2Mn3(SbS3)4
_symmetry_space_group_name_H-M   'P 1'
_cell_length_a   20.02960800
_cell_length_b   3.90410600
_cell_length_c   14.95364829
_cell_angle_alpha   90.00000000
_cell_angle_beta   126.33350609
_cell_angle_gamma   90.00000000
_symmetry_Int_Tables_number   1
_chemical_formula_structural   Pr2Mn3(SbS3)4
_chemical_formula_sum   'Pr4 Mn6 Sb8 S24'
_cell_volume   942.00006694
_cell_formula_units_Z   2
loop_
 _symmetry_equiv_pos_site_id
 _symmetry_equiv_pos_as_xyz
  1  'x, y, z'
loop_
 _atom_site_type_symbol
 _atom_site_label
 _atom_site_symmetry_multiplicity
 _atom_site_fract_x
 _atom_site_fract_y
 _atom_site_fract_z
 _atom_site_occupancy
  Pr  Pr0  1  0.26106354  0.45597481  0.86394257  1
  Pr  Pr1  1  0.73009299  0.50423722  0.13059713  1
  Pr  Pr2  1  0.77601668  0.97362219  0.87531626  1
  Pr  Pr3  1  0.23035955  0.01858778  0.13024036  1
  Mn  Mn4  1  0.28073962  0.53554600  0.58001898  1
  Mn  Mn5  1  0.70872009  0.46624757  0.39355195  1
  Mn  Mn6  1  0.00050843  0.97772964  0.99617181  1
  Mn  Mn7  1  0.79924498  0.98357481  0.60742172  1
  Mn  Mn8  1  0.18894531  0.98257106  0.40107704  1
  Mn  Mn9  1  0.52255607  0.48354363  0.03187783  1
  Sb  Sb10  1  0.90519815  0.01945824  0.46587497  1
  Sb  Sb11  1  0.12101768  0.95683081  0.55839223  1
  Sb  Sb12  1  0.03147638  0.50959908  0.80734630  1
  Sb  Sb13  1  0.97024769  0.50965382  0.19559274  1
  Sb  Sb14  1  0.38827371  0.48773134  0.43964137  1
  Sb  Sb15  1  0.62168049  0.45980651  0.55954004  1
  Sb  Sb16  1  0.53309837  0.97531865  0.82014214  1
  Sb  Sb17  1  0.46413191  0.04184804  0.18827900  1
  S  S18  1  0.93761489  0.95194674  0.81735947  1
  S  S19  1  0.07000879  0.99822573  0.21145144  1
  S  S20  1  0.42757089  0.98886079  0.98787185  1
  S  S21  1  0.59573460  0.01959820  0.03112149  1
  S  S22  1  0.19412365  0.96091400  0.92006487  1
  S  S23  1  0.83276239  0.05165592  0.10542849  1
  S  S24  1  0.10240921  0.52743926  0.67406744  1
  S  S25  1  0.90741483  0.55860356  0.36149248  1
  S  S26  1  0.74340568  0.91644231  0.32169232  1
  S  S27  1  0.27121028  0.95360791  0.69305922  1
  S  S28  1  0.16345000  0.48358151  0.45011038  1
  S  S29  1  0.84295899  0.45680338  0.56201284  1
  S  S30  1  0.45387489  0.50150955  0.84746680  1
  S  S31  1  0.57182550  0.52831587  0.21321184  1
  S  S32  1  0.92453973  0.49218282  0.00339972  1
  S  S33  1  0.09143330  0.48466098  0.01285873  1
  S  S34  1  0.67726995  0.48095950  0.90043400  1
  S  S35  1  0.33945080  0.48250652  0.10710833  1
  S  S36  1  0.60038875  0.96189458  0.65887864  1
  S  S37  1  0.41511978  0.02322787  0.35349917  1
  S  S38  1  0.24471960  0.51363333  0.28779812  1
  S  S39  1  0.77889519  0.46964987  0.69777618  1
  S  S40  1  0.67680541  0.95706586  0.45641382  1
  S  S41  1  0.31677555  0.01272776  0.52966678  1
