# generated using pymatgen
data_Pr2Mn3(SbS3)4
_symmetry_space_group_name_H-M   'P 1'
_cell_length_a   20.02960800
_cell_length_b   3.90410600
_cell_length_c   14.95364829
_cell_angle_alpha   90.00000000
_cell_angle_beta   126.33350609
_cell_angle_gamma   90.00000000
_symmetry_Int_Tables_number   1
_chemical_formula_structural   Pr2Mn3(SbS3)4
_chemical_formula_sum   'Pr4 Mn6 Sb8 S24'
_cell_volume   942.00006694
_cell_formula_units_Z   2
loop_
 _symmetry_equiv_pos_site_id
 _symmetry_equiv_pos_as_xyz
  1  'x, y, z'
loop_
 _atom_site_type_symbol
 _atom_site_label
 _atom_site_symmetry_multiplicity
 _atom_site_fract_x
 _atom_site_fract_y
 _atom_site_fract_z
 _atom_site_occupancy
  Pr  Pr0  1  0.26099323  0.45597307  0.86368538  1
  Pr  Pr1  1  0.73003819  0.50392452  0.13053514  1
  Pr  Pr2  1  0.77602978  0.97393597  0.87544433  1
  Pr  Pr3  1  0.23042620  0.01883533  0.13016493  1
  Mn  Mn4  1  0.28047099  0.53487958  0.57969019  1
  Mn  Mn5  1  0.70875667  0.46652029  0.39363125  1
  Mn  Mn6  1  0.00067832  0.97889439  0.99625658  1
  Mn  Mn7  1  0.79904361  0.98332348  0.60681463  1
  Mn  Mn8  1  0.18871618  0.98331192  0.40072707  1
  Mn  Mn9  1  0.52237444  0.48296783  0.03176250  1
  Sb  Sb10  1  0.90520726  0.01995011  0.46618729  1
  Sb  Sb11  1  0.12107712  0.95677469  0.55843271  1
  Sb  Sb12  1  0.03143225  0.51064597  0.80744065  1
  Sb  Sb13  1  0.97003991  0.50937316  0.19521242  1
  Sb  Sb14  1  0.38830397  0.48798861  0.43964205  1
  Sb  Sb15  1  0.62147773  0.46019918  0.55949106  1
  Sb  Sb16  1  0.53334689  0.97635657  0.82012725  1
  Sb  Sb17  1  0.46404350  0.04209128  0.18807758  1
  S  S18  1  0.93773337  0.95101801  0.81763273  1
  S  S19  1  0.07021898  0.99866188  0.21144446  1
  S  S20  1  0.42799948  0.98868591  0.98829791  1
  S  S21  1  0.59600405  0.02046678  0.03146401  1
  S  S22  1  0.19420832  0.96084624  0.92024951  1
  S  S23  1  0.83298252  0.05283426  0.10574156  1
  S  S24  1  0.10287935  0.52681604  0.67424629  1
  S  S25  1  0.90720596  0.55864750  0.36144419  1
  S  S26  1  0.74339363  0.91739347  0.32143951  1
  S  S27  1  0.27075032  0.95468190  0.69280166  1
  S  S28  1  0.16339000  0.48459019  0.44998375  1
  S  S29  1  0.84265291  0.45848531  0.56194243  1
  S  S30  1  0.45351338  0.50271659  0.84684970  1
  S  S31  1  0.57166085  0.52935980  0.21305765  1
  S  S32  1  0.92461937  0.49105845  0.00332922  1
  S  S33  1  0.09162204  0.48345773  0.01323955  1
  S  S34  1  0.67740326  0.48296170  0.90051552  1
  S  S35  1  0.33941094  0.48477755  0.10726276  1
  S  S36  1  0.60032555  0.96342201  0.65838773  1
  S  S37  1  0.41513739  0.02291778  0.35347379  1
  S  S38  1  0.24461355  0.51335671  0.28812432  1
  S  S39  1  0.77910099  0.46854572  0.69787573  1
  S  S40  1  0.67684441  0.95663475  0.45662988  1
  S  S41  1  0.31669928  0.01149023  0.52925533  1
