# generated using pymatgen
data_Pr2Mn3(SbS3)4
_symmetry_space_group_name_H-M   'P 1'
_cell_length_a   20.02960800
_cell_length_b   3.90410600
_cell_length_c   14.95364829
_cell_angle_alpha   90.00000000
_cell_angle_beta   126.33350609
_cell_angle_gamma   90.00000000
_symmetry_Int_Tables_number   1
_chemical_formula_structural   Pr2Mn3(SbS3)4
_chemical_formula_sum   'Pr4 Mn6 Sb8 S24'
_cell_volume   942.00006694
_cell_formula_units_Z   2
loop_
 _symmetry_equiv_pos_site_id
 _symmetry_equiv_pos_as_xyz
  1  'x, y, z'
loop_
 _atom_site_type_symbol
 _atom_site_label
 _atom_site_symmetry_multiplicity
 _atom_site_fract_x
 _atom_site_fract_y
 _atom_site_fract_z
 _atom_site_occupancy
  Pr  Pr0  1  0.26095841  0.45606749  0.86352958  1
  Pr  Pr1  1  0.72992093  0.50393249  0.13046000  1
  Pr  Pr2  1  0.77603739  0.97447311  0.87558768  1
  Pr  Pr3  1  0.23057788  0.01895945  0.13015784  1
  Mn  Mn4  1  0.28025110  0.53444249  0.57934815  1
  Mn  Mn5  1  0.70874494  0.46743800  0.39358054  1
  Mn  Mn6  1  0.00086712  0.97944005  0.99639185  1
  Mn  Mn7  1  0.79886364  0.98299390  0.60624777  1
  Mn  Mn8  1  0.18854241  0.98372190  0.40052442  1
  Mn  Mn9  1  0.52210198  0.48219477  0.03157694  1
  Sb  Sb10  1  0.90523251  0.02048635  0.46645862  1
  Sb  Sb11  1  0.12109966  0.95709231  0.55843258  1
  Sb  Sb12  1  0.03136866  0.51156747  0.80752290  1
  Sb  Sb13  1  0.96981445  0.50935933  0.19478735  1
  Sb  Sb14  1  0.38832211  0.48819557  0.43971076  1
  Sb  Sb15  1  0.62132585  0.46044489  0.55943751  1
  Sb  Sb16  1  0.53362082  0.97716629  0.82021809  1
  Sb  Sb17  1  0.46401921  0.04221923  0.18799914  1
  S  S18  1  0.93800705  0.95065649  0.81793349  1
  S  S19  1  0.07039063  0.99835498  0.21133777  1
  S  S20  1  0.42840386  0.98824247  0.98885193  1
  S  S21  1  0.59633542  0.02098277  0.03176352  1
  S  S22  1  0.19440146  0.96055636  0.92038695  1
  S  S23  1  0.83301720  0.05413176  0.10594742  1
  S  S24  1  0.10334362  0.52572472  0.67446482  1
  S  S25  1  0.90696665  0.55900858  0.36128861  1
  S  S26  1  0.74349254  0.91873162  0.32100621  1
  S  S27  1  0.27026831  0.95627163  0.69238431  1
  S  S28  1  0.16326501  0.48511986  0.44977086  1
  S  S29  1  0.84257890  0.46033221  0.56221969  1
  S  S30  1  0.45310384  0.50394312  0.84617510  1
  S  S31  1  0.57147108  0.53022722  0.21275466  1
  S  S32  1  0.92471942  0.49037657  0.00323543  1
  S  S33  1  0.09193637  0.48196437  0.01364023  1
  S  S34  1  0.67744957  0.48453660  0.90058320  1
  S  S35  1  0.33946017  0.48725800  0.10752043  1
  S  S36  1  0.60013603  0.96456956  0.65781096  1
  S  S37  1  0.41506675  0.02214259  0.35335380  1
  S  S38  1  0.24452614  0.51325790  0.28835392  1
  S  S39  1  0.77928415  0.46801229  0.69784956  1
  S  S40  1  0.67697382  0.95678399  0.45699223  1
  S  S41  1  0.31664318  0.01010134  0.52869114  1
