# generated using pymatgen
data_Pr2Mn3(SbS3)4
_symmetry_space_group_name_H-M   'P 1'
_cell_length_a   20.02960800
_cell_length_b   3.90410600
_cell_length_c   14.95364829
_cell_angle_alpha   90.00000000
_cell_angle_beta   126.33350609
_cell_angle_gamma   90.00000000
_symmetry_Int_Tables_number   1
_chemical_formula_structural   Pr2Mn3(SbS3)4
_chemical_formula_sum   'Pr4 Mn6 Sb8 S24'
_cell_volume   942.00006694
_cell_formula_units_Z   2
loop_
 _symmetry_equiv_pos_site_id
 _symmetry_equiv_pos_as_xyz
  1  'x, y, z'
loop_
 _atom_site_type_symbol
 _atom_site_label
 _atom_site_symmetry_multiplicity
 _atom_site_fract_x
 _atom_site_fract_y
 _atom_site_fract_z
 _atom_site_occupancy
  Pr  Pr0  1  0.26094645  0.45635769  0.86344902  1
  Pr  Pr1  1  0.72984096  0.50378855  0.13040942  1
  Pr  Pr2  1  0.77607540  0.97508862  0.87576301  1
  Pr  Pr3  1  0.23069507  0.01915907  0.13010638  1
  Mn  Mn4  1  0.27998002  0.53397235  0.57898013  1
  Mn  Mn5  1  0.70874013  0.46828156  0.39345571  1
  Mn  Mn6  1  0.00095493  0.98022959  0.99647290  1
  Mn  Mn7  1  0.79870776  0.98290164  0.60576623  1
  Mn  Mn8  1  0.18831236  0.98400753  0.40018692  1
  Mn  Mn9  1  0.52192163  0.48164543  0.03138848  1
  Sb  Sb10  1  0.90525585  0.02052317  0.46664229  1
  Sb  Sb11  1  0.12114246  0.95690505  0.55842783  1
  Sb  Sb12  1  0.03130886  0.51256983  0.80755907  1
  Sb  Sb13  1  0.96967731  0.50915432  0.19445412  1
  Sb  Sb14  1  0.38835946  0.48851781  0.43978862  1
  Sb  Sb15  1  0.62119223  0.46119407  0.55942839  1
  Sb  Sb16  1  0.53387365  0.97760020  0.82034602  1
  Sb  Sb17  1  0.46398714  0.04274249  0.18791845  1
  S  S18  1  0.93826566  0.95062585  0.81799876  1
  S  S19  1  0.07050361  0.99924560  0.21113223  1
  S  S20  1  0.42868101  0.98790455  0.98930894  1
  S  S21  1  0.59657957  0.02133831  0.03198900  1
  S  S22  1  0.19448937  0.95949493  0.92055327  1
  S  S23  1  0.83309294  0.05569023  0.10612313  1
  S  S24  1  0.10367882  0.52486745  0.67471364  1
  S  S25  1  0.90664943  0.55926902  0.36118214  1
  S  S26  1  0.74351629  0.91987967  0.32051999  1
  S  S27  1  0.26989083  0.95796298  0.69192782  1
  S  S28  1  0.16311031  0.48535906  0.44951702  1
  S  S29  1  0.84245559  0.46182862  0.56247511  1
  S  S30  1  0.45275292  0.50493674  0.84559234  1
  S  S31  1  0.57152111  0.53093387  0.21263532  1
  S  S32  1  0.92485653  0.48933077  0.00314954  1
  S  S33  1  0.09210393  0.48044768  0.01384100  1
  S  S34  1  0.67747082  0.48639713  0.90053648  1
  S  S35  1  0.33969490  0.48905731  0.10789487  1
  S  S36  1  0.59983622  0.96582912  0.65692261  1
  S  S37  1  0.41491799  0.02166051  0.35311045  1
  S  S38  1  0.24423661  0.51348274  0.28832834  1
  S  S39  1  0.77947101  0.46672887  0.69755885  1
  S  S40  1  0.67693366  0.95689094  0.45710097  1
  S  S41  1  0.31645023  0.00895285  0.52813523  1
