# generated using pymatgen
data_Pr2Mn3(SbS3)4
_symmetry_space_group_name_H-M   'P 1'
_cell_length_a   20.02960800
_cell_length_b   3.90410600
_cell_length_c   14.95364829
_cell_angle_alpha   90.00000000
_cell_angle_beta   126.33350609
_cell_angle_gamma   90.00000000
_symmetry_Int_Tables_number   1
_chemical_formula_structural   Pr2Mn3(SbS3)4
_chemical_formula_sum   'Pr4 Mn6 Sb8 S24'
_cell_volume   942.00006694
_cell_formula_units_Z   2
loop_
 _symmetry_equiv_pos_site_id
 _symmetry_equiv_pos_as_xyz
  1  'x, y, z'
loop_
 _atom_site_type_symbol
 _atom_site_label
 _atom_site_symmetry_multiplicity
 _atom_site_fract_x
 _atom_site_fract_y
 _atom_site_fract_z
 _atom_site_occupancy
  Pr  Pr0  1  0.26096013  0.45713139  0.86339688  1
  Pr  Pr1  1  0.72980974  0.50362706  0.13042005  1
  Pr  Pr2  1  0.77614405  0.97569456  0.87590817  1
  Pr  Pr3  1  0.23081706  0.01943500  0.13012302  1
  Mn  Mn4  1  0.27978638  0.53354899  0.57875445  1
  Mn  Mn5  1  0.70876342  0.46924759  0.39341832  1
  Mn  Mn6  1  0.00103725  0.98117862  0.99644438  1
  Mn  Mn7  1  0.79854157  0.98265909  0.60546620  1
  Mn  Mn8  1  0.18819468  0.98391305  0.39980721  1
  Mn  Mn9  1  0.52168245  0.48066347  0.03116649  1
  Sb  Sb10  1  0.90528204  0.02062378  0.46681000  1
  Sb  Sb11  1  0.12117229  0.95689980  0.55837412  1
  Sb  Sb12  1  0.03119127  0.51366401  0.80763931  1
  Sb  Sb13  1  0.96962648  0.50864520  0.19417572  1
  Sb  Sb14  1  0.38836990  0.48884747  0.43986199  1
  Sb  Sb15  1  0.62104729  0.46192550  0.55936014  1
  Sb  Sb16  1  0.53410658  0.97797476  0.82043375  1
  Sb  Sb17  1  0.46396738  0.04290075  0.18784469  1
  S  S18  1  0.93849696  0.94937639  0.81813973  1
  S  S19  1  0.07063264  0.00000448  0.21100194  1
  S  S20  1  0.42891319  0.98686349  0.98962961  1
  S  S21  1  0.59649323  0.02182230  0.03209337  1
  S  S22  1  0.19454101  0.95862474  0.92060043  1
  S  S23  1  0.83291718  0.05645401  0.10600597  1
  S  S24  1  0.10413431  0.52407295  0.67505031  1
  S  S25  1  0.90645877  0.55907655  0.36116789  1
  S  S26  1  0.74343720  0.92138269  0.32004040  1
  S  S27  1  0.26935507  0.95935768  0.69149355  1
  S  S28  1  0.16279962  0.48554243  0.44919082  1
  S  S29  1  0.84232888  0.46381993  0.56267128  1
  S  S30  1  0.45249824  0.50569966  0.84503823  1
  S  S31  1  0.57150929  0.53117433  0.21242745  1
  S  S32  1  0.92487947  0.48781614  0.00305046  1
  S  S33  1  0.09219108  0.48001698  0.01400977  1
  S  S34  1  0.67748279  0.48823036  0.90033044  1
  S  S35  1  0.33977467  0.49061993  0.10817987  1
  S  S36  1  0.59949060  0.96639368  0.65616204  1
  S  S37  1  0.41482211  0.02086972  0.35289516  1
  S  S38  1  0.24397689  0.51365233  0.28838293  1
  S  S39  1  0.77964173  0.46588298  0.69722524  1
  S  S40  1  0.67685524  0.95673111  0.45721764  1
  S  S41  1  0.31632599  0.00816912  0.52774728  1
