# generated using pymatgen
data_Pr2Mn3(SbS3)4
_symmetry_space_group_name_H-M   'P 1'
_cell_length_a   20.02960800
_cell_length_b   3.90410600
_cell_length_c   14.95364829
_cell_angle_alpha   90.00000000
_cell_angle_beta   126.33350609
_cell_angle_gamma   90.00000000
_symmetry_Int_Tables_number   1
_chemical_formula_structural   Pr2Mn3(SbS3)4
_chemical_formula_sum   'Pr4 Mn6 Sb8 S24'
_cell_volume   942.00006694
_cell_formula_units_Z   2
loop_
 _symmetry_equiv_pos_site_id
 _symmetry_equiv_pos_as_xyz
  1  'x, y, z'
loop_
 _atom_site_type_symbol
 _atom_site_label
 _atom_site_symmetry_multiplicity
 _atom_site_fract_x
 _atom_site_fract_y
 _atom_site_fract_z
 _atom_site_occupancy
  Pr  Pr0  1  0.26991477  0.50681722  0.87144274  1
  Pr  Pr1  1  0.73456310  0.51674456  0.13538466  1
  Pr  Pr2  1  0.76451683  0.03301200  0.87029723  1
  Pr  Pr3  1  0.22869076  0.96748988  0.12886815  1
  Mn  Mn4  1  0.29931769  0.46650722  0.60935802  1
  Mn  Mn5  1  0.68663656  0.45751425  0.36625526  1
  Mn  Mn6  1  0.99950861  0.98076003  0.00743537  1
  Mn  Mn7  1  0.79041821  0.02930129  0.61308504  1
  Mn  Mn8  1  0.19774934  0.02186512  0.37025906  1
  Mn  Mn9  1  0.48075158  0.46945588  0.98066661  1
  Sb  Sb10  1  0.89015649  0.97382537  0.44742377  1
  Sb  Sb11  1  0.11271144  0.97773573  0.54783295  1
  Sb  Sb12  1  0.03852683  0.52478549  0.82630385  1
  Sb  Sb13  1  0.96875134  0.48531131  0.19272060  1
  Sb  Sb14  1  0.39832115  0.49345244  0.45429186  1
  Sb  Sb15  1  0.61239911  0.48334964  0.54744878  1
  Sb  Sb16  1  0.52929071  0.97162654  0.80460519  1
  Sb  Sb17  1  0.46517784  0.03013872  0.18502561  1
  S  S18  1  0.94092928  0.00877088  0.80732972  1
  S  S19  1  0.06654668  0.99871502  0.20184013  1
  S  S20  1  0.41761923  0.98461955  0.97519883  1
  S  S21  1  0.58576529  0.02139244  0.00873644  1
  S  S22  1  0.16188526  0.02408663  0.89616205  1
  S  S23  1  0.82644481  0.98165849  0.10109221  1
  S  S24  1  0.08700771  0.49969882  0.63528563  1
  S  S25  1  0.91560211  0.49727487  0.35403312  1
  S  S26  1  0.73481885  0.00177253  0.29589439  1
  S  S27  1  0.26209014  0.01563955  0.70401948  1
  S  S28  1  0.17128223  0.52282599  0.44047045  1
  S  S29  1  0.80753870  0.52104121  0.53797700  1
  S  S30  1  0.43401611  0.47448505  0.80106644  1
  S  S31  1  0.55477592  0.49751689  0.17925392  1
  S  S32  1  0.92187770  0.51507547  0.98712288  1
  S  S33  1  0.08682611  0.50220676  0.02323379  1
  S  S34  1  0.66835230  0.55855220  0.89492341  1
  S  S35  1  0.32908537  0.46088550  0.10134294  1
  S  S36  1  0.58872313  0.00245443  0.64428593  1
  S  S37  1  0.39196965  0.99186891  0.33088929  1
  S  S38  1  0.24721175  0.46611425  0.31727795  1
  S  S39  1  0.76387532  0.49448077  0.69285613  1
  S  S40  1  0.65809960  0.98659251  0.43495669  1
  S  S41  1  0.32996014  0.98781658  0.55435351  1
