# generated using pymatgen
data_Pr2Mn3(SbS3)4
_symmetry_space_group_name_H-M   'P 1'
_cell_length_a   20.02960800
_cell_length_b   3.90410600
_cell_length_c   14.95364829
_cell_angle_alpha   90.00000000
_cell_angle_beta   126.33350609
_cell_angle_gamma   90.00000000
_symmetry_Int_Tables_number   1
_chemical_formula_structural   Pr2Mn3(SbS3)4
_chemical_formula_sum   'Pr4 Mn6 Sb8 S24'
_cell_volume   942.00006694
_cell_formula_units_Z   2
loop_
 _symmetry_equiv_pos_site_id
 _symmetry_equiv_pos_as_xyz
  1  'x, y, z'
loop_
 _atom_site_type_symbol
 _atom_site_label
 _atom_site_symmetry_multiplicity
 _atom_site_fract_x
 _atom_site_fract_y
 _atom_site_fract_z
 _atom_site_occupancy
  Pr  Pr0  1  0.26092202  0.45778414  0.86333249  1
  Pr  Pr1  1  0.72976047  0.50371563  0.13049311  1
  Pr  Pr2  1  0.77621481  0.97646444  0.87604308  1
  Pr  Pr3  1  0.23092780  0.01982674  0.13021510  1
  Mn  Mn4  1  0.27965395  0.53310509  0.57857855  1
  Mn  Mn5  1  0.70880086  0.46987912  0.39327095  1
  Mn  Mn6  1  0.00108024  0.98176820  0.99639077  1
  Mn  Mn7  1  0.79836484  0.98228293  0.60523496  1
  Mn  Mn8  1  0.18801663  0.98405153  0.39944975  1
  Mn  Mn9  1  0.52140469  0.47912731  0.03091869  1
  Sb  Sb10  1  0.90527116  0.02062365  0.46686558  1
  Sb  Sb11  1  0.12117906  0.95682359  0.55827566  1
  Sb  Sb12  1  0.03111980  0.51474837  0.80771224  1
  Sb  Sb13  1  0.96957420  0.50841984  0.19393020  1
  Sb  Sb14  1  0.38844644  0.48920339  0.43995118  1
  Sb  Sb15  1  0.62090800  0.46233968  0.55934506  1
  Sb  Sb16  1  0.53429884  0.97856073  0.82047488  1
  Sb  Sb17  1  0.46391872  0.04299141  0.18770991  1
  S  S18  1  0.93871044  0.94811804  0.81832352  1
  S  S19  1  0.07071799  0.00095229  0.21090251  1
  S  S20  1  0.42908755  0.98569068  0.98973222  1
  S  S21  1  0.59646455  0.02220277  0.03215519  1
  S  S22  1  0.19465304  0.95719554  0.92062510  1
  S  S23  1  0.83274334  0.05686914  0.10578372  1
  S  S24  1  0.10452008  0.52275615  0.67522524  1
  S  S25  1  0.90630084  0.55862826  0.36116438  1
  S  S26  1  0.74332951  0.92290716  0.31962433  1
  S  S27  1  0.26898399  0.96030237  0.69133219  1
  S  S28  1  0.16253855  0.48592585  0.44878358  1
  S  S29  1  0.84223350  0.46592965  0.56274447  1
  S  S30  1  0.45229748  0.50600432  0.84432110  1
  S  S31  1  0.57149791  0.53234743  0.21241151  1
  S  S32  1  0.92489163  0.48666520  0.00297358  1
  S  S33  1  0.09232173  0.47949311  0.01407319  1
  S  S34  1  0.67742199  0.49020320  0.90013299  1
  S  S35  1  0.33977074  0.49234739  0.10821171  1
  S  S36  1  0.59912369  0.96729047  0.65527301  1
  S  S37  1  0.41461366  0.02038199  0.35256696  1
  S  S38  1  0.24366767  0.51358342  0.28834714  1
  S  S39  1  0.77977218  0.46496830  0.69695996  1
  S  S40  1  0.67680917  0.95651457  0.45734987  1
  S  S41  1  0.31640139  0.00743818  0.52757202  1
