# generated using pymatgen
data_Pr2Mn3(SbS3)4
_symmetry_space_group_name_H-M   'P 1'
_cell_length_a   20.02960800
_cell_length_b   3.90410600
_cell_length_c   14.95364829
_cell_angle_alpha   90.00000000
_cell_angle_beta   126.33350609
_cell_angle_gamma   90.00000000
_symmetry_Int_Tables_number   1
_chemical_formula_structural   Pr2Mn3(SbS3)4
_chemical_formula_sum   'Pr4 Mn6 Sb8 S24'
_cell_volume   942.00006694
_cell_formula_units_Z   2
loop_
 _symmetry_equiv_pos_site_id
 _symmetry_equiv_pos_as_xyz
  1  'x, y, z'
loop_
 _atom_site_type_symbol
 _atom_site_label
 _atom_site_symmetry_multiplicity
 _atom_site_fract_x
 _atom_site_fract_y
 _atom_site_fract_z
 _atom_site_occupancy
  Pr  Pr0  1  0.26089743  0.45830118  0.86335401  1
  Pr  Pr1  1  0.72972970  0.50383275  0.13055435  1
  Pr  Pr2  1  0.77631086  0.97754014  0.87615192  1
  Pr  Pr3  1  0.23095797  0.02033526  0.13023174  1
  Mn  Mn4  1  0.27944874  0.53275839  0.57824713  1
  Mn  Mn5  1  0.70885123  0.47024915  0.39320843  1
  Mn  Mn6  1  0.00119446  0.98262767  0.99631124  1
  Mn  Mn7  1  0.79816832  0.98225240  0.60491882  1
  Mn  Mn8  1  0.18776426  0.98459952  0.39901553  1
  Mn  Mn9  1  0.52120409  0.47788503  0.03086542  1
  Sb  Sb10  1  0.90524980  0.02074389  0.46697101  1
  Sb  Sb11  1  0.12117855  0.95664897  0.55822400  1
  Sb  Sb12  1  0.03095634  0.51587414  0.80769528  1
  Sb  Sb13  1  0.96951364  0.50801335  0.19367385  1
  Sb  Sb14  1  0.38854589  0.48957330  0.44006004  1
  Sb  Sb15  1  0.62077939  0.46282055  0.55941676  1
  Sb  Sb16  1  0.53457293  0.97914097  0.82055608  1
  Sb  Sb17  1  0.46387379  0.04307469  0.18757460  1
  S  S18  1  0.93895291  0.94756786  0.81850770  1
  S  S19  1  0.07061686  0.00168541  0.21052406  1
  S  S20  1  0.42926965  0.98493613  0.99003618  1
  S  S21  1  0.59648000  0.02288113  0.03239427  1
  S  S22  1  0.19477608  0.95635666  0.92060007  1
  S  S23  1  0.83275428  0.05684255  0.10541430  1
  S  S24  1  0.10486309  0.52177371  0.67527739  1
  S  S25  1  0.90628924  0.55832646  0.36108494  1
  S  S26  1  0.74324334  0.92428599  0.31928070  1
  S  S27  1  0.26864031  0.96117926  0.69118836  1
  S  S28  1  0.16222353  0.48651234  0.44836985  1
  S  S29  1  0.84219535  0.46732832  0.56265346  1
  S  S30  1  0.45204418  0.50548805  0.84362440  1
  S  S31  1  0.57149350  0.53296323  0.21240936  1
  S  S32  1  0.92505665  0.48622024  0.00278467  1
  S  S33  1  0.09235109  0.47969705  0.01392594  1
  S  S34  1  0.67731442  0.49241080  0.89989160  1
  S  S35  1  0.33983882  0.49437376  0.10821986  1
  S  S36  1  0.59881674  0.96839796  0.65447059  1
  S  S37  1  0.41431906  0.01936150  0.35221300  1
  S  S38  1  0.24337751  0.51405315  0.28823963  1
  S  S39  1  0.77988242  0.46423141  0.69679605  1
  S  S40  1  0.67667434  0.95650940  0.45734377  1
  S  S41  1  0.31663294  0.00625889  0.52775619  1
