# generated using pymatgen
data_Pr2Mn3(SbS3)4
_symmetry_space_group_name_H-M   'P 1'
_cell_length_a   20.02960800
_cell_length_b   3.90410600
_cell_length_c   14.95364829
_cell_angle_alpha   90.00000000
_cell_angle_beta   126.33350609
_cell_angle_gamma   90.00000000
_symmetry_Int_Tables_number   1
_chemical_formula_structural   Pr2Mn3(SbS3)4
_chemical_formula_sum   'Pr4 Mn6 Sb8 S24'
_cell_volume   942.00006694
_cell_formula_units_Z   2
loop_
 _symmetry_equiv_pos_site_id
 _symmetry_equiv_pos_as_xyz
  1  'x, y, z'
loop_
 _atom_site_type_symbol
 _atom_site_label
 _atom_site_symmetry_multiplicity
 _atom_site_fract_x
 _atom_site_fract_y
 _atom_site_fract_z
 _atom_site_occupancy
  Pr  Pr0  1  0.26084935  0.45863896  0.86329506  1
  Pr  Pr1  1  0.72975577  0.50389027  0.13059301  1
  Pr  Pr2  1  0.77639785  0.97867866  0.87623247  1
  Pr  Pr3  1  0.23100517  0.02084901  0.13027939  1
  Mn  Mn4  1  0.27923881  0.53227862  0.57776602  1
  Mn  Mn5  1  0.70902912  0.47051455  0.39318737  1
  Mn  Mn6  1  0.00126076  0.98330804  0.99627263  1
  Mn  Mn7  1  0.79804340  0.98181423  0.60475765  1
  Mn  Mn8  1  0.18748331  0.98526313  0.39873422  1
  Mn  Mn9  1  0.52109721  0.47683522  0.03085639  1
  Sb  Sb10  1  0.90519164  0.02086574  0.46703618  1
  Sb  Sb11  1  0.12113493  0.95632825  0.55820246  1
  Sb  Sb12  1  0.03079878  0.51687930  0.80770058  1
  Sb  Sb13  1  0.96937565  0.50782637  0.19338543  1
  Sb  Sb14  1  0.38859725  0.48960327  0.44020203  1
  Sb  Sb15  1  0.62064759  0.46360395  0.55948893  1
  Sb  Sb16  1  0.53478015  0.97958629  0.82058703  1
  Sb  Sb17  1  0.46385055  0.04303501  0.18753015  1
  S  S18  1  0.93914560  0.94684389  0.81851606  1
  S  S19  1  0.07055328  0.00271471  0.21010853  1
  S  S20  1  0.42961865  0.98432426  0.99044681  1
  S  S21  1  0.59642160  0.02329987  0.03272698  1
  S  S22  1  0.19505006  0.95591169  0.92070062  1
  S  S23  1  0.83261356  0.05730350  0.10501559  1
  S  S24  1  0.10503033  0.52094487  0.67517098  1
  S  S25  1  0.90630733  0.55778342  0.36117251  1
  S  S26  1  0.74315044  0.92550328  0.31890465  1
  S  S27  1  0.26829380  0.96105208  0.69120539  1
  S  S28  1  0.16200461  0.48706305  0.44797025  1
  S  S29  1  0.84225611  0.46898474  0.56257268  1
  S  S30  1  0.45174145  0.50509459  0.84300332  1
  S  S31  1  0.57152827  0.53334856  0.21257787  1
  S  S32  1  0.92511794  0.48619819  0.00242893  1
  S  S33  1  0.09234810  0.47973840  0.01384840  1
  S  S34  1  0.67718714  0.49532840  0.89985963  1
  S  S35  1  0.33980152  0.49608729  0.10800395  1
  S  S36  1  0.59832023  0.96958461  0.65365517  1
  S  S37  1  0.41409066  0.01844121  0.35200982  1
  S  S38  1  0.24295549  0.51415109  0.28797705  1
  S  S39  1  0.78009807  0.46345434  0.69672540  1
  S  S40  1  0.67647355  0.95726221  0.45715928  1
  S  S41  1  0.31670262  0.00529506  0.52810080  1
