# generated using pymatgen
data_Pr2Mn3(SbS3)4
_symmetry_space_group_name_H-M   'P 1'
_cell_length_a   20.02960800
_cell_length_b   3.90410600
_cell_length_c   14.95364829
_cell_angle_alpha   90.00000000
_cell_angle_beta   126.33350609
_cell_angle_gamma   90.00000000
_symmetry_Int_Tables_number   1
_chemical_formula_structural   Pr2Mn3(SbS3)4
_chemical_formula_sum   'Pr4 Mn6 Sb8 S24'
_cell_volume   942.00006694
_cell_formula_units_Z   2
loop_
 _symmetry_equiv_pos_site_id
 _symmetry_equiv_pos_as_xyz
  1  'x, y, z'
loop_
 _atom_site_type_symbol
 _atom_site_label
 _atom_site_symmetry_multiplicity
 _atom_site_fract_x
 _atom_site_fract_y
 _atom_site_fract_z
 _atom_site_occupancy
  Pr  Pr0  1  0.26085179  0.45929847  0.86330510  1
  Pr  Pr1  1  0.72980416  0.50353112  0.13062605  1
  Pr  Pr2  1  0.77648873  0.97964720  0.87623525  1
  Pr  Pr3  1  0.23108520  0.02130116  0.13031208  1
  Mn  Mn4  1  0.27905821  0.53171055  0.57730833  1
  Mn  Mn5  1  0.70904380  0.47014573  0.39297347  1
  Mn  Mn6  1  0.00134110  0.98449701  0.99617335  1
  Mn  Mn7  1  0.79802815  0.98134292  0.60465750  1
  Mn  Mn8  1  0.18716559  0.98608842  0.39852129  1
  Mn  Mn9  1  0.52092744  0.47529217  0.03084957  1
  Sb  Sb10  1  0.90514461  0.02081763  0.46704639  1
  Sb  Sb11  1  0.12108681  0.95643198  0.55822845  1
  Sb  Sb12  1  0.03061926  0.51779892  0.80764146  1
  Sb  Sb13  1  0.96928360  0.50766074  0.19312945  1
  Sb  Sb14  1  0.38855954  0.48921212  0.44029776  1
  Sb  Sb15  1  0.62051244  0.46455241  0.55950134  1
  Sb  Sb16  1  0.53501741  0.97974263  0.82059261  1
  Sb  Sb17  1  0.46380001  0.04306801  0.18743556  1
  S  S18  1  0.93918713  0.94649820  0.81831227  1
  S  S19  1  0.07046543  0.00309676  0.20964200  1
  S  S20  1  0.43004709  0.98402939  0.99079998  1
  S  S21  1  0.59638961  0.02415867  0.03310863  1
  S  S22  1  0.19530899  0.95592723  0.92074348  1
  S  S23  1  0.83263552  0.05746055  0.10467959  1
  S  S24  1  0.10515310  0.52061018  0.67503860  1
  S  S25  1  0.90620318  0.55648295  0.36128857  1
  S  S26  1  0.74314284  0.92640940  0.31864506  1
  S  S27  1  0.26801744  0.96068759  0.69114962  1
  S  S28  1  0.16172329  0.48758588  0.44761309  1
  S  S29  1  0.84236445  0.47055233  0.56279885  1
  S  S30  1  0.45149884  0.50495859  0.84236086  1
  S  S31  1  0.57164517  0.53321469  0.21290900  1
  S  S32  1  0.92532167  0.48603920  0.00210636  1
  S  S33  1  0.09229180  0.47972171  0.01373828  1
  S  S34  1  0.67706152  0.49808410  0.89985343  1
  S  S35  1  0.33978297  0.49725420  0.10776928  1
  S  S36  1  0.59775778  0.96997181  0.65281395  1
  S  S37  1  0.41392670  0.01776326  0.35174802  1
  S  S38  1  0.24250560  0.51390582  0.28760883  1
  S  S39  1  0.78019153  0.46280072  0.69664305  1
  S  S40  1  0.67627009  0.95775432  0.45663628  1
  S  S41  1  0.31678665  0.00470548  0.52832858  1
