# generated using pymatgen
data_Pr2Mn3(SbS3)4
_symmetry_space_group_name_H-M   'P 1'
_cell_length_a   20.02960800
_cell_length_b   3.90410600
_cell_length_c   14.95364829
_cell_angle_alpha   90.00000000
_cell_angle_beta   126.33350609
_cell_angle_gamma   90.00000000
_symmetry_Int_Tables_number   1
_chemical_formula_structural   Pr2Mn3(SbS3)4
_chemical_formula_sum   'Pr4 Mn6 Sb8 S24'
_cell_volume   942.00006694
_cell_formula_units_Z   2
loop_
 _symmetry_equiv_pos_site_id
 _symmetry_equiv_pos_as_xyz
  1  'x, y, z'
loop_
 _atom_site_type_symbol
 _atom_site_label
 _atom_site_symmetry_multiplicity
 _atom_site_fract_x
 _atom_site_fract_y
 _atom_site_fract_z
 _atom_site_occupancy
  Pr  Pr0  1  0.26088473  0.45979533  0.86337551  1
  Pr  Pr1  1  0.72982711  0.50302767  0.13067423  1
  Pr  Pr2  1  0.77650517  0.98056514  0.87618785  1
  Pr  Pr3  1  0.23119213  0.02168347  0.13035029  1
  Mn  Mn4  1  0.27883238  0.53110623  0.57695537  1
  Mn  Mn5  1  0.70916478  0.47023693  0.39275602  1
  Mn  Mn6  1  0.00135403  0.98548861  0.99613984  1
  Mn  Mn7  1  0.79805907  0.98130879  0.60459825  1
  Mn  Mn8  1  0.18695286  0.98688460  0.39844003  1
  Mn  Mn9  1  0.52077301  0.47384946  0.03088998  1
  Sb  Sb10  1  0.90505553  0.02082376  0.46697306  1
  Sb  Sb11  1  0.12106318  0.95632160  0.55832611  1
  Sb  Sb12  1  0.03037933  0.51853089  0.80743639  1
  Sb  Sb13  1  0.96922893  0.50754393  0.19296302  1
  Sb  Sb14  1  0.38851323  0.48878005  0.44042081  1
  Sb  Sb15  1  0.62039790  0.46557191  0.55946579  1
  Sb  Sb16  1  0.53519442  0.97981148  0.82054887  1
  Sb  Sb17  1  0.46371421  0.04312890  0.18731295  1
  S  S18  1  0.93928396  0.94602527  0.81835774  1
  S  S19  1  0.07032515  0.00302038  0.20899846  1
  S  S20  1  0.43043779  0.98384973  0.99093155  1
  S  S21  1  0.59642880  0.02459231  0.03356424  1
  S  S22  1  0.19557941  0.95568396  0.92064552  1
  S  S23  1  0.83258251  0.05810738  0.10426446  1
  S  S24  1  0.10521147  0.51991488  0.67463526  1
  S  S25  1  0.90597360  0.55467526  0.36127393  1
  S  S26  1  0.74311596  0.92781092  0.31831600  1
  S  S27  1  0.26762562  0.95993080  0.69112114  1
  S  S28  1  0.16137998  0.48778683  0.44728143  1
  S  S29  1  0.84242447  0.47164477  0.56302440  1
  S  S30  1  0.45116218  0.50468562  0.84159822  1
  S  S31  1  0.57193376  0.53338283  0.21330672  1
  S  S32  1  0.92553587  0.48639361  0.00195358  1
  S  S33  1  0.09212420  0.47975559  0.01369571  1
  S  S34  1  0.67688037  0.50045662  0.89984181  1
  S  S35  1  0.33984966  0.49773635  0.10769963  1
  S  S36  1  0.59737750  0.97047352  0.65214809  1
  S  S37  1  0.41370861  0.01772717  0.35158004  1
  S  S38  1  0.24209106  0.51332654  0.28728486  1
  S  S39  1  0.78025282  0.46255978  0.69649284  1
  S  S40  1  0.67608423  0.95773331  0.45598461  1
  S  S41  1  0.31698199  0.00390210  0.52864581  1
