# generated using pymatgen
data_Pr2Mn3(SbS3)4
_symmetry_space_group_name_H-M   'P 1'
_cell_length_a   20.02960800
_cell_length_b   3.90410600
_cell_length_c   14.95364829
_cell_angle_alpha   90.00000000
_cell_angle_beta   126.33350609
_cell_angle_gamma   90.00000000
_symmetry_Int_Tables_number   1
_chemical_formula_structural   Pr2Mn3(SbS3)4
_chemical_formula_sum   'Pr4 Mn6 Sb8 S24'
_cell_volume   942.00006694
_cell_formula_units_Z   2
loop_
 _symmetry_equiv_pos_site_id
 _symmetry_equiv_pos_as_xyz
  1  'x, y, z'
loop_
 _atom_site_type_symbol
 _atom_site_label
 _atom_site_symmetry_multiplicity
 _atom_site_fract_x
 _atom_site_fract_y
 _atom_site_fract_z
 _atom_site_occupancy
  Pr  Pr0  1  0.26092769  0.46015087  0.86347497  1
  Pr  Pr1  1  0.72983315  0.50242772  0.13071042  1
  Pr  Pr2  1  0.77654634  0.98159666  0.87623305  1
  Pr  Pr3  1  0.23129547  0.02193308  0.13041712  1
  Mn  Mn4  1  0.27863515  0.53068061  0.57666947  1
  Mn  Mn5  1  0.70921781  0.47043958  0.39261572  1
  Mn  Mn6  1  0.00130757  0.98622226  0.99618350  1
  Mn  Mn7  1  0.79809052  0.98116815  0.60452759  1
  Mn  Mn8  1  0.18659153  0.98767115  0.39827080  1
  Mn  Mn9  1  0.52063390  0.47268893  0.03085387  1
  Sb  Sb10  1  0.90489906  0.02083291  0.46681690  1
  Sb  Sb11  1  0.12102032  0.95638714  0.55841238  1
  Sb  Sb12  1  0.03018352  0.51904545  0.80723437  1
  Sb  Sb13  1  0.96915123  0.50734896  0.19272575  1
  Sb  Sb14  1  0.38854588  0.48821280  0.44060671  1
  Sb  Sb15  1  0.62018928  0.46647125  0.55937226  1
  Sb  Sb16  1  0.53540734  0.97984741  0.82057748  1
  Sb  Sb17  1  0.46358370  0.04307787  0.18721518  1
  S  S18  1  0.93944695  0.94530090  0.81841820  1
  S  S19  1  0.07026940  0.00312847  0.20830547  1
  S  S20  1  0.43087494  0.98354482  0.99118370  1
  S  S21  1  0.59643896  0.02539609  0.03396629  1
  S  S22  1  0.19558787  0.95545328  0.92035454  1
  S  S23  1  0.83257803  0.05896510  0.10398678  1
  S  S24  1  0.10521513  0.51916085  0.67437754  1
  S  S25  1  0.90583963  0.55245768  0.36134144  1
  S  S26  1  0.74309131  0.92973719  0.31799799  1
  S  S27  1  0.26725845  0.95993586  0.69121121  1
  S  S28  1  0.16090321  0.48794871  0.44655715  1
  S  S29  1  0.84262983  0.47237734  0.56355195  1
  S  S30  1  0.45080699  0.50491627  0.84085391  1
  S  S31  1  0.57225638  0.53447897  0.21369350  1
  S  S32  1  0.92574492  0.48674194  0.00180240  1
  S  S33  1  0.09190867  0.47982088  0.01366802  1
  S  S34  1  0.67673533  0.50276049  0.89991129  1
  S  S35  1  0.33986262  0.49787407  0.10774198  1
  S  S36  1  0.59703517  0.97096358  0.65136302  1
  S  S37  1  0.41363993  0.01819687  0.35137304  1
  S  S38  1  0.24175118  0.51287304  0.28686879  1
  S  S39  1  0.78020368  0.46261067  0.69634628  1
  S  S40  1  0.67576207  0.95797382  0.45526743  1
  S  S41  1  0.31718547  0.00293641  0.52882963  1
