# generated using pymatgen
data_Pr2Mn3(SbS3)4
_symmetry_space_group_name_H-M   'P 1'
_cell_length_a   20.02960800
_cell_length_b   3.90410600
_cell_length_c   14.95364829
_cell_angle_alpha   90.00000000
_cell_angle_beta   126.33350609
_cell_angle_gamma   90.00000000
_symmetry_Int_Tables_number   1
_chemical_formula_structural   Pr2Mn3(SbS3)4
_chemical_formula_sum   'Pr4 Mn6 Sb8 S24'
_cell_volume   942.00006694
_cell_formula_units_Z   2
loop_
 _symmetry_equiv_pos_site_id
 _symmetry_equiv_pos_as_xyz
  1  'x, y, z'
loop_
 _atom_site_type_symbol
 _atom_site_label
 _atom_site_symmetry_multiplicity
 _atom_site_fract_x
 _atom_site_fract_y
 _atom_site_fract_z
 _atom_site_occupancy
  Pr  Pr0  1  0.26081936  0.46063567  0.86348369  1
  Pr  Pr1  1  0.72991685  0.50161885  0.13082650  1
  Pr  Pr2  1  0.77660693  0.98243331  0.87626592  1
  Pr  Pr3  1  0.23130434  0.02195121  0.13038290  1
  Mn  Mn4  1  0.27859850  0.53032950  0.57643909  1
  Mn  Mn5  1  0.70923847  0.47066991  0.39242492  1
  Mn  Mn6  1  0.00126941  0.98715560  0.99622150  1
  Mn  Mn7  1  0.79817550  0.98059314  0.60452443  1
  Mn  Mn8  1  0.18616882  0.98901167  0.39794471  1
  Mn  Mn9  1  0.52050142  0.47184141  0.03082576  1
  Sb  Sb10  1  0.90477751  0.02050048  0.46673424  1
  Sb  Sb11  1  0.12099319  0.95638057  0.55852115  1
  Sb  Sb12  1  0.02996506  0.51979759  0.80705564  1
  Sb  Sb13  1  0.96918320  0.50689008  0.19259118  1
  Sb  Sb14  1  0.38855013  0.48784733  0.44075587  1
  Sb  Sb15  1  0.61995699  0.46706900  0.55926736  1
  Sb  Sb16  1  0.53563750  0.97963190  0.82056747  1
  Sb  Sb17  1  0.46343958  0.04314437  0.18714352  1
  S  S18  1  0.93958130  0.94540700  0.81836138  1
  S  S19  1  0.07029574  0.00238705  0.20781278  1
  S  S20  1  0.43124377  0.98364708  0.99124898  1
  S  S21  1  0.59647084  0.02611617  0.03438852  1
  S  S22  1  0.19547252  0.95504559  0.92002636  1
  S  S23  1  0.83249144  0.06012943  0.10377751  1
  S  S24  1  0.10523690  0.51840929  0.67406982  1
  S  S25  1  0.90582312  0.55032215  0.36176555  1
  S  S26  1  0.74315406  0.93134816  0.31767768  1
  S  S27  1  0.26689590  0.95977353  0.69117386  1
  S  S28  1  0.16032734  0.48834857  0.44551973  1
  S  S29  1  0.84281232  0.47274932  0.56405909  1
  S  S30  1  0.45034091  0.50450519  0.84005587  1
  S  S31  1  0.57253089  0.53589883  0.21396495  1
  S  S32  1  0.92586273  0.48655729  0.00177955  1
  S  S33  1  0.09165955  0.47993888  0.01361872  1
  S  S34  1  0.67662587  0.50494931  0.89986965  1
  S  S35  1  0.33981556  0.49792490  0.10785953  1
  S  S36  1  0.59680858  0.97099841  0.65065859  1
  S  S37  1  0.41369689  0.01808851  0.35131662  1
  S  S38  1  0.24138564  0.51273055  0.28652798  1
  S  S39  1  0.78025567  0.46286703  0.69630572  1
  S  S40  1  0.67545568  0.95811752  0.45463948  1
  S  S41  1  0.31739643  0.00182988  0.52907833  1
