# generated using pymatgen
data_Pr2Mn3(SbS3)4
_symmetry_space_group_name_H-M   'P 1'
_cell_length_a   20.02960800
_cell_length_b   3.90410600
_cell_length_c   14.95364829
_cell_angle_alpha   90.00000000
_cell_angle_beta   126.33350609
_cell_angle_gamma   90.00000000
_symmetry_Int_Tables_number   1
_chemical_formula_structural   Pr2Mn3(SbS3)4
_chemical_formula_sum   'Pr4 Mn6 Sb8 S24'
_cell_volume   942.00006694
_cell_formula_units_Z   2
loop_
 _symmetry_equiv_pos_site_id
 _symmetry_equiv_pos_as_xyz
  1  'x, y, z'
loop_
 _atom_site_type_symbol
 _atom_site_label
 _atom_site_symmetry_multiplicity
 _atom_site_fract_x
 _atom_site_fract_y
 _atom_site_fract_z
 _atom_site_occupancy
  Pr  Pr0  1  0.26070288  0.46123170  0.86352060  1
  Pr  Pr1  1  0.73002713  0.50096651  0.13103268  1
  Pr  Pr2  1  0.77672680  0.98346713  0.87633993  1
  Pr  Pr3  1  0.23128543  0.02180364  0.13029724  1
  Mn  Mn4  1  0.27861942  0.52995191  0.57613131  1
  Mn  Mn5  1  0.70932055  0.47091156  0.39240894  1
  Mn  Mn6  1  0.00118908  0.98782391  0.99635905  1
  Mn  Mn7  1  0.79831257  0.97942941  0.60455407  1
  Mn  Mn8  1  0.18582541  0.99026454  0.39775727  1
  Mn  Mn9  1  0.52046374  0.47131789  0.03091071  1
  Sb  Sb10  1  0.90467234  0.02016828  0.46669198  1
  Sb  Sb11  1  0.12095732  0.95627550  0.55860789  1
  Sb  Sb12  1  0.02975354  0.52054667  0.80701461  1
  Sb  Sb13  1  0.96915764  0.50634084  0.19244369  1
  Sb  Sb14  1  0.38852853  0.48767074  0.44091511  1
  Sb  Sb15  1  0.61972412  0.46777735  0.55908700  1
  Sb  Sb16  1  0.53591077  0.97927163  0.82057532  1
  Sb  Sb17  1  0.46332408  0.04310936  0.18701363  1
  S  S18  1  0.93988565  0.94562165  0.81845053  1
  S  S19  1  0.07022377  0.00146935  0.20729651  1
  S  S20  1  0.43142352  0.98443357  0.99113400  1
  S  S21  1  0.59649690  0.02657303  0.03471132  1
  S  S22  1  0.19527295  0.95575224  0.91962579  1
  S  S23  1  0.83245019  0.06071831  0.10367533  1
  S  S24  1  0.10522859  0.51788804  0.67377410  1
  S  S25  1  0.90590764  0.54832454  0.36228069  1
  S  S26  1  0.74308892  0.93311526  0.31732185  1
  S  S27  1  0.26661289  0.95969405  0.69107288  1
  S  S28  1  0.15973210  0.48867180  0.44453465  1
  S  S29  1  0.84294368  0.47304258  0.56452363  1
  S  S30  1  0.44996210  0.50448527  0.83941174  1
  S  S31  1  0.57284954  0.53738699  0.21442737  1
  S  S32  1  0.92615617  0.48585295  0.00173936  1
  S  S33  1  0.09140503  0.48040515  0.01355745  1
  S  S34  1  0.67639223  0.50667961  0.89976742  1
  S  S35  1  0.33986651  0.49800447  0.10794489  1
  S  S36  1  0.59650976  0.97157233  0.65000510  1
  S  S37  1  0.41374107  0.01827089  0.35116148  1
  S  S38  1  0.24108072  0.51214762  0.28636048  1
  S  S39  1  0.78039475  0.46323980  0.69642021  1
  S  S40  1  0.67530194  0.95809874  0.45416484  1
  S  S41  1  0.31756419  0.00121807  0.52903773  1
