# generated using pymatgen
data_Pr2Mn3(SbS3)4
_symmetry_space_group_name_H-M   'P 1'
_cell_length_a   20.02960800
_cell_length_b   3.90410600
_cell_length_c   14.95364829
_cell_angle_alpha   90.00000000
_cell_angle_beta   126.33350609
_cell_angle_gamma   90.00000000
_symmetry_Int_Tables_number   1
_chemical_formula_structural   Pr2Mn3(SbS3)4
_chemical_formula_sum   'Pr4 Mn6 Sb8 S24'
_cell_volume   942.00006694
_cell_formula_units_Z   2
loop_
 _symmetry_equiv_pos_site_id
 _symmetry_equiv_pos_as_xyz
  1  'x, y, z'
loop_
 _atom_site_type_symbol
 _atom_site_label
 _atom_site_symmetry_multiplicity
 _atom_site_fract_x
 _atom_site_fract_y
 _atom_site_fract_z
 _atom_site_occupancy
  Pr  Pr0  1  0.26063197  0.46231426  0.86359737  1
  Pr  Pr1  1  0.73016863  0.50016606  0.13128505  1
  Pr  Pr2  1  0.77684221  0.98433343  0.87628180  1
  Pr  Pr3  1  0.23129985  0.02198546  0.13020236  1
  Mn  Mn4  1  0.27865930  0.52981574  0.57575735  1
  Mn  Mn5  1  0.70944280  0.47136962  0.39229589  1
  Mn  Mn6  1  0.00117238  0.98854733  0.99663758  1
  Mn  Mn7  1  0.79852646  0.97850608  0.60466475  1
  Mn  Mn8  1  0.18557009  0.99109675  0.39762445  1
  Mn  Mn9  1  0.52042626  0.47075142  0.03101121  1
  Sb  Sb10  1  0.90465145  0.01963765  0.46670092  1
  Sb  Sb11  1  0.12091156  0.95595462  0.55869603  1
  Sb  Sb12  1  0.02952294  0.52121137  0.80698910  1
  Sb  Sb13  1  0.96917561  0.50583777  0.19233227  1
  Sb  Sb14  1  0.38853162  0.48772050  0.44110385  1
  Sb  Sb15  1  0.61950247  0.46825718  0.55896182  1
  Sb  Sb16  1  0.53628860  0.97877361  0.82065684  1
  Sb  Sb17  1  0.46327003  0.04285368  0.18694378  1
  S  S18  1  0.94015087  0.94610594  0.81874254  1
  S  S19  1  0.07023856  0.00048989  0.20705503  1
  S  S20  1  0.43147055  0.98445979  0.99098756  1
  S  S21  1  0.59642345  0.02738275  0.03513439  1
  S  S22  1  0.19515500  0.95650570  0.91921785  1
  S  S23  1  0.83257105  0.06115549  0.10381085  1
  S  S24  1  0.10504305  0.51763609  0.67329085  1
  S  S25  1  0.90597929  0.54647141  0.36284159  1
  S  S26  1  0.74307780  0.93517292  0.31708032  1
  S  S27  1  0.26637972  0.96036405  0.69102175  1
  S  S28  1  0.15892825  0.48856911  0.44354061  1
  S  S29  1  0.84311871  0.47317192  0.56510447  1
  S  S30  1  0.44973418  0.50457803  0.83883724  1
  S  S31  1  0.57315882  0.53868443  0.21502929  1
  S  S32  1  0.92644585  0.48485624  0.00159756  1
  S  S33  1  0.09124124  0.48111093  0.01363626  1
  S  S34  1  0.67622346  0.50862349  0.89987016  1
  S  S35  1  0.34000224  0.49835366  0.10811912  1
  S  S36  1  0.59632370  0.97239034  0.64960590  1
  S  S37  1  0.41383888  0.01771469  0.35098246  1
  S  S38  1  0.24074016  0.51112176  0.28612949  1
  S  S39  1  0.78057948  0.46334589  0.69661541  1
  S  S40  1  0.67503086  0.95741720  0.45367960  1
  S  S41  1  0.31783701  0.00085015  0.52915188  1
