# generated using pymatgen
data_Pr2Mn3(SbS3)4
_symmetry_space_group_name_H-M   'P 1'
_cell_length_a   20.02960800
_cell_length_b   3.90410600
_cell_length_c   14.95364829
_cell_angle_alpha   90.00000000
_cell_angle_beta   126.33350609
_cell_angle_gamma   90.00000000
_symmetry_Int_Tables_number   1
_chemical_formula_structural   Pr2Mn3(SbS3)4
_chemical_formula_sum   'Pr4 Mn6 Sb8 S24'
_cell_volume   942.00006694
_cell_formula_units_Z   2
loop_
 _symmetry_equiv_pos_site_id
 _symmetry_equiv_pos_as_xyz
  1  'x, y, z'
loop_
 _atom_site_type_symbol
 _atom_site_label
 _atom_site_symmetry_multiplicity
 _atom_site_fract_x
 _atom_site_fract_y
 _atom_site_fract_z
 _atom_site_occupancy
  Pr  Pr0  1  0.26061780  0.46325068  0.86368353  1
  Pr  Pr1  1  0.73029277  0.49948734  0.13153789  1
  Pr  Pr2  1  0.77696528  0.98547748  0.87619281  1
  Pr  Pr3  1  0.23122470  0.02235635  0.13008644  1
  Mn  Mn4  1  0.27882430  0.53004063  0.57538463  1
  Mn  Mn5  1  0.70952880  0.47117783  0.39218460  1
  Mn  Mn6  1  0.00112083  0.98899706  0.99681582  1
  Mn  Mn7  1  0.79885127  0.97791111  0.60478750  1
  Mn  Mn8  1  0.18526777  0.99182264  0.39751473  1
  Mn  Mn9  1  0.52043073  0.47001508  0.03103403  1
  Sb  Sb10  1  0.90465323  0.01904118  0.46671106  1
  Sb  Sb11  1  0.12094906  0.95561383  0.55889797  1
  Sb  Sb12  1  0.02933113  0.52165761  0.80690549  1
  Sb  Sb13  1  0.96910632  0.50535926  0.19218405  1
  Sb  Sb14  1  0.38852622  0.48775721  0.44128297  1
  Sb  Sb15  1  0.61928862  0.46898483  0.55889091  1
  Sb  Sb16  1  0.53665061  0.97860842  0.82069405  1
  Sb  Sb17  1  0.46319568  0.04299821  0.18681679  1
  S  S18  1  0.94044652  0.94613079  0.81899025  1
  S  S19  1  0.07015377  0.00030571  0.20689652  1
  S  S20  1  0.43148031  0.98458801  0.99086709  1
  S  S21  1  0.59628351  0.02799672  0.03550994  1
  S  S22  1  0.19496066  0.95703665  0.91884796  1
  S  S23  1  0.83284437  0.06117703  0.10411799  1
  S  S24  1  0.10487505  0.51729856  0.67287960  1
  S  S25  1  0.90600127  0.54425100  0.36327456  1
  S  S26  1  0.74292817  0.93674329  0.31663308  1
  S  S27  1  0.26619208  0.96065088  0.69105176  1
  S  S28  1  0.15804019  0.48838815  0.44252062  1
  S  S29  1  0.84321963  0.47293465  0.56559311  1
  S  S30  1  0.44955922  0.50540614  0.83827677  1
  S  S31  1  0.57344689  0.53986222  0.21557651  1
  S  S32  1  0.92674081  0.48384160  0.00174974  1
  S  S33  1  0.09107074  0.48089633  0.01372366  1
  S  S34  1  0.67621643  0.51055757  0.90009777  1
  S  S35  1  0.34012299  0.49894550  0.10847155  1
  S  S36  1  0.59624509  0.97325106  0.64922602  1
  S  S37  1  0.41406642  0.01763145  0.35114765  1
  S  S38  1  0.24040793  0.51018743  0.28587799  1
  S  S39  1  0.78072202  0.46280775  0.69678776  1
  S  S40  1  0.67483573  0.95730424  0.45343927  1
  S  S41  1  0.31815445  0.00003153  0.52928054  1
