# generated using pymatgen
data_Pr2Mn3(SbS3)4
_symmetry_space_group_name_H-M   'P 1'
_cell_length_a   20.02960800
_cell_length_b   3.90410600
_cell_length_c   14.95364829
_cell_angle_alpha   90.00000000
_cell_angle_beta   126.33350609
_cell_angle_gamma   90.00000000
_symmetry_Int_Tables_number   1
_chemical_formula_structural   Pr2Mn3(SbS3)4
_chemical_formula_sum   'Pr4 Mn6 Sb8 S24'
_cell_volume   942.00006694
_cell_formula_units_Z   2
loop_
 _symmetry_equiv_pos_site_id
 _symmetry_equiv_pos_as_xyz
  1  'x, y, z'
loop_
 _atom_site_type_symbol
 _atom_site_label
 _atom_site_symmetry_multiplicity
 _atom_site_fract_x
 _atom_site_fract_y
 _atom_site_fract_z
 _atom_site_occupancy
  Pr  Pr0  1  0.26994603  0.50695344  0.87164345  1
  Pr  Pr1  1  0.73455139  0.51738475  0.13539939  1
  Pr  Pr2  1  0.76451782  0.03305798  0.87044875  1
  Pr  Pr3  1  0.22865278  0.96676522  0.12863722  1
  Mn  Mn4  1  0.29931694  0.46603022  0.60946136  1
  Mn  Mn5  1  0.68661150  0.45645872  0.36612214  1
  Mn  Mn6  1  0.99929287  0.98132799  0.00722460  1
  Mn  Mn7  1  0.79032783  0.02848188  0.61318732  1
  Mn  Mn8  1  0.19784196  0.02284986  0.37040985  1
  Mn  Mn9  1  0.48057282  0.46992297  0.98037700  1
  Sb  Sb10  1  0.89027066  0.97301056  0.44759355  1
  Sb  Sb11  1  0.11291690  0.97747261  0.54784033  1
  Sb  Sb12  1  0.03859838  0.52440254  0.82649868  1
  Sb  Sb13  1  0.96870444  0.48537540  0.19271406  1
  Sb  Sb14  1  0.39841656  0.49319086  0.45430000  1
  Sb  Sb15  1  0.61253527  0.48346262  0.54747176  1
  Sb  Sb16  1  0.52926996  0.97162168  0.80473602  1
  Sb  Sb17  1  0.46521291  0.03054870  0.18505491  1
  S  S18  1  0.94068069  0.00715691  0.80664794  1
  S  S19  1  0.06630246  0.99732375  0.20140050  1
  S  S20  1  0.41771961  0.98431361  0.97496927  1
  S  S21  1  0.58572884  0.02184938  0.00879288  1
  S  S22  1  0.16178718  0.02386845  0.89605790  1
  S  S23  1  0.82649134  0.98103122  0.10120122  1
  S  S24  1  0.08735443  0.50014659  0.63530804  1
  S  S25  1  0.91545149  0.49831103  0.35417849  1
  S  S26  1  0.73485252  0.00088148  0.29627797  1
  S  S27  1  0.26230813  0.01545117  0.70396203  1
  S  S28  1  0.17137795  0.52236070  0.44081631  1
  S  S29  1  0.80726189  0.52132040  0.53780413  1
  S  S30  1  0.43379789  0.47382767  0.80058597  1
  S  S31  1  0.55472917  0.49631003  0.17904753  1
  S  S32  1  0.92183660  0.51645376  0.98721633  1
  S  S33  1  0.08642286  0.50133063  0.02272632  1
  S  S34  1  0.66838498  0.55923020  0.89460802  1
  S  S35  1  0.32915106  0.46174296  0.10153377  1
  S  S36  1  0.58854116  0.00162557  0.64380791  1
  S  S37  1  0.39191113  0.99335824  0.33084795  1
  S  S38  1  0.24713173  0.46521803  0.31752480  1
  S  S39  1  0.76379088  0.49275469  0.69300889  1
  S  S40  1  0.65811857  0.98688726  0.43465105  1
  S  S41  1  0.32990461  0.98724586  0.55452356  1
