# generated using pymatgen
data_Pr2Mn3(SbS3)4
_symmetry_space_group_name_H-M   'P 1'
_cell_length_a   20.02960800
_cell_length_b   3.90410600
_cell_length_c   14.95364829
_cell_angle_alpha   90.00000000
_cell_angle_beta   126.33350609
_cell_angle_gamma   90.00000000
_symmetry_Int_Tables_number   1
_chemical_formula_structural   Pr2Mn3(SbS3)4
_chemical_formula_sum   'Pr4 Mn6 Sb8 S24'
_cell_volume   942.00006694
_cell_formula_units_Z   2
loop_
 _symmetry_equiv_pos_site_id
 _symmetry_equiv_pos_as_xyz
  1  'x, y, z'
loop_
 _atom_site_type_symbol
 _atom_site_label
 _atom_site_symmetry_multiplicity
 _atom_site_fract_x
 _atom_site_fract_y
 _atom_site_fract_z
 _atom_site_occupancy
  Pr  Pr0  1  0.26061629  0.46430312  0.86377090  1
  Pr  Pr1  1  0.73038744  0.49903141  0.13176215  1
  Pr  Pr2  1  0.77706807  0.98681553  0.87606552  1
  Pr  Pr3  1  0.23115994  0.02286800  0.12998589  1
  Mn  Mn4  1  0.27890595  0.53010821  0.57499004  1
  Mn  Mn5  1  0.70961964  0.47137833  0.39217776  1
  Mn  Mn6  1  0.00110795  0.98997370  0.99707645  1
  Mn  Mn7  1  0.79920763  0.97787330  0.60488388  1
  Mn  Mn8  1  0.18498745  0.99293561  0.39747495  1
  Mn  Mn9  1  0.52048417  0.46948662  0.03104862  1
  Sb  Sb10  1  0.90465685  0.01865868  0.46663838  1
  Sb  Sb11  1  0.12091438  0.95539523  0.55900023  1
  Sb  Sb12  1  0.02917568  0.52190086  0.80680247  1
  Sb  Sb13  1  0.96909859  0.50478992  0.19211045  1
  Sb  Sb14  1  0.38852617  0.48752407  0.44145030  1
  Sb  Sb15  1  0.61908709  0.46960347  0.55886528  1
  Sb  Sb16  1  0.53698413  0.97861706  0.82074003  1
  Sb  Sb17  1  0.46308260  0.04307878  0.18675201  1
  S  S18  1  0.94071536  0.94569137  0.81919387  1
  S  S19  1  0.07009075  0.00039891  0.20678886  1
  S  S20  1  0.43156567  0.98450440  0.99092967  1
  S  S21  1  0.59617506  0.02863164  0.03586921  1
  S  S22  1  0.19484471  0.95652258  0.91860402  1
  S  S23  1  0.83316400  0.06158152  0.10441071  1
  S  S24  1  0.10451385  0.51670013  0.67229119  1
  S  S25  1  0.90589044  0.54217696  0.36366608  1
  S  S26  1  0.74286741  0.93828629  0.31632436  1
  S  S27  1  0.26605339  0.96130997  0.69104591  1
  S  S28  1  0.15733609  0.48810215  0.44167918  1
  S  S29  1  0.84320315  0.47219647  0.56572232  1
  S  S30  1  0.44931487  0.50662813  0.83778938  1
  S  S31  1  0.57360109  0.54125385  0.21606203  1
  S  S32  1  0.92718510  0.48323286  0.00214042  1
  S  S33  1  0.09099760  0.48074979  0.01377863  1
  S  S34  1  0.67618333  0.51191510  0.90025097  1
  S  S35  1  0.34029486  0.49922839  0.10882570  1
  S  S36  1  0.59609513  0.97373724  0.64882188  1
  S  S37  1  0.41445535  0.01772692  0.35158066  1
  S  S38  1  0.24006252  0.50894343  0.28569166  1
  S  S39  1  0.78102941  0.46200408  0.69710175  1
  S  S40  1  0.67469693  0.95712670  0.45324189  1
  S  S41  1  0.31823382  0.99913920  0.52923338  1
