# generated using pymatgen
data_Pr2Mn3(SbS3)4
_symmetry_space_group_name_H-M   'P 1'
_cell_length_a   20.02960800
_cell_length_b   3.90410600
_cell_length_c   14.95364829
_cell_angle_alpha   90.00000000
_cell_angle_beta   126.33350609
_cell_angle_gamma   90.00000000
_symmetry_Int_Tables_number   1
_chemical_formula_structural   Pr2Mn3(SbS3)4
_chemical_formula_sum   'Pr4 Mn6 Sb8 S24'
_cell_volume   942.00006694
_cell_formula_units_Z   2
loop_
 _symmetry_equiv_pos_site_id
 _symmetry_equiv_pos_as_xyz
  1  'x, y, z'
loop_
 _atom_site_type_symbol
 _atom_site_label
 _atom_site_symmetry_multiplicity
 _atom_site_fract_x
 _atom_site_fract_y
 _atom_site_fract_z
 _atom_site_occupancy
  Pr  Pr0  1  0.26057850  0.46525682  0.86387207  1
  Pr  Pr1  1  0.73045494  0.49838474  0.13202193  1
  Pr  Pr2  1  0.77723162  0.98804916  0.87594507  1
  Pr  Pr3  1  0.23115603  0.02353228  0.12989327  1
  Mn  Mn4  1  0.27890926  0.53040246  0.57470667  1
  Mn  Mn5  1  0.70961048  0.47131934  0.39215378  1
  Mn  Mn6  1  0.00102104  0.99085309  0.99718943  1
  Mn  Mn7  1  0.79944643  0.97769545  0.60485189  1
  Mn  Mn8  1  0.18465380  0.99398726  0.39744304  1
  Mn  Mn9  1  0.52053263  0.46939134  0.03097439  1
  Sb  Sb10  1  0.90469260  0.01838441  0.46655807  1
  Sb  Sb11  1  0.12090335  0.95556269  0.55912161  1
  Sb  Sb12  1  0.02899777  0.52242611  0.80670063  1
  Sb  Sb13  1  0.96908942  0.50456673  0.19216441  1
  Sb  Sb14  1  0.38850672  0.48758779  0.44163864  1
  Sb  Sb15  1  0.61890811  0.47017616  0.55885294  1
  Sb  Sb16  1  0.53734591  0.97860448  0.82082631  1
  Sb  Sb17  1  0.46300948  0.04307360  0.18662349  1
  S  S18  1  0.94113173  0.94478829  0.81942922  1
  S  S19  1  0.07007191  0.00056584  0.20679732  1
  S  S20  1  0.43143698  0.98424067  0.99098479  1
  S  S21  1  0.59622270  0.02907841  0.03648648  1
  S  S22  1  0.19481239  0.95594428  0.91852948  1
  S  S23  1  0.83340717  0.06154566  0.10460735  1
  S  S24  1  0.10407446  0.51568077  0.67185619  1
  S  S25  1  0.90573050  0.54033074  0.36398647  1
  S  S26  1  0.74286415  0.93941166  0.31621049  1
  S  S27  1  0.26578830  0.96176340  0.69080754  1
  S  S28  1  0.15662440  0.48717882  0.44070433  1
  S  S29  1  0.84306438  0.47157679  0.56565285  1
  S  S30  1  0.44906272  0.50781801  0.83735955  1
  S  S31  1  0.57380422  0.54243400  0.21637188  1
  S  S32  1  0.92750756  0.48286139  0.00229054  1
  S  S33  1  0.09087593  0.48075729  0.01377428  1
  S  S34  1  0.67611148  0.51270700  0.90019584  1
  S  S35  1  0.34051710  0.49880951  0.10921138  1
  S  S36  1  0.59580944  0.97535549  0.64822756  1
  S  S37  1  0.41482686  0.01770190  0.35193879  1
  S  S38  1  0.23985964  0.50768244  0.28563783  1
  S  S39  1  0.78133996  0.46095287  0.69744552  1
  S  S40  1  0.67464707  0.95685769  0.45304511  1
  S  S41  1  0.31842121  0.99834134  0.52926516  1
