# generated using pymatgen
data_Pr2Mn3(SbS3)4
_symmetry_space_group_name_H-M   'P 1'
_cell_length_a   20.02960800
_cell_length_b   3.90410600
_cell_length_c   14.95364829
_cell_angle_alpha   90.00000000
_cell_angle_beta   126.33350609
_cell_angle_gamma   90.00000000
_symmetry_Int_Tables_number   1
_chemical_formula_structural   Pr2Mn3(SbS3)4
_chemical_formula_sum   'Pr4 Mn6 Sb8 S24'
_cell_volume   942.00006694
_cell_formula_units_Z   2
loop_
 _symmetry_equiv_pos_site_id
 _symmetry_equiv_pos_as_xyz
  1  'x, y, z'
loop_
 _atom_site_type_symbol
 _atom_site_label
 _atom_site_symmetry_multiplicity
 _atom_site_fract_x
 _atom_site_fract_y
 _atom_site_fract_z
 _atom_site_occupancy
  Pr  Pr0  1  0.26062985  0.46603130  0.86399792  1
  Pr  Pr1  1  0.73053461  0.49764767  0.13229952  1
  Pr  Pr2  1  0.77734418  0.98928279  0.87578198  1
  Pr  Pr3  1  0.23114568  0.02436049  0.12980287  1
  Mn  Mn4  1  0.27890497  0.53070276  0.57441335  1
  Mn  Mn5  1  0.70948785  0.47104199  0.39207843  1
  Mn  Mn6  1  0.00093810  0.99154260  0.99725055  1
  Mn  Mn7  1  0.79960997  0.97727698  0.60467549  1
  Mn  Mn8  1  0.18435166  0.99465866  0.39736443  1
  Mn  Mn9  1  0.52050151  0.46859308  0.03087667  1
  Sb  Sb10  1  0.90470904  0.01840106  0.46647380  1
  Sb  Sb11  1  0.12092717  0.95571063  0.55928564  1
  Sb  Sb12  1  0.02881510  0.52287699  0.80665344  1
  Sb  Sb13  1  0.96907612  0.50441103  0.19223954  1
  Sb  Sb14  1  0.38848004  0.48782778  0.44181206  1
  Sb  Sb15  1  0.61873928  0.47034194  0.55882158  1
  Sb  Sb16  1  0.53766518  0.97868071  0.82091202  1
  Sb  Sb17  1  0.46295864  0.04321174  0.18644087  1
  S  S18  1  0.94157960  0.94385171  0.81967020  1
  S  S19  1  0.07015248  0.00044020  0.20686629  1
  S  S20  1  0.43130567  0.98375946  0.99120553  1
  S  S21  1  0.59629576  0.02909728  0.03705419  1
  S  S22  1  0.19494266  0.95548075  0.91867660  1
  S  S23  1  0.83343750  0.06101938  0.10475687  1
  S  S24  1  0.10365693  0.51580391  0.67134956  1
  S  S25  1  0.90556938  0.53801517  0.36437100  1
  S  S26  1  0.74295063  0.94060731  0.31619707  1
  S  S27  1  0.26541626  0.96166331  0.69045790  1
  S  S28  1  0.15593187  0.48623386  0.43990447  1
  S  S29  1  0.84297489  0.47085321  0.56566005  1
  S  S30  1  0.44869738  0.50902779  0.83688221  1
  S  S31  1  0.57406973  0.54365768  0.21676019  1
  S  S32  1  0.92786906  0.48257027  0.00246598  1
  S  S33  1  0.09074691  0.48128169  0.01378469  1
  S  S34  1  0.67617623  0.51381888  0.90050135  1
  S  S35  1  0.34075318  0.49818395  0.10962927  1
  S  S36  1  0.59571150  0.97729513  0.64782789  1
  S  S37  1  0.41500348  0.01793441  0.35227710  1
  S  S38  1  0.23980556  0.50656915  0.28562815  1
  S  S39  1  0.78154511  0.45889211  0.69745190  1
  S  S40  1  0.67479035  0.95652268  0.45315080  1
  S  S41  1  0.31867634  0.99840294  0.52947162  1
