# generated using pymatgen
data_Pr2Mn3(SbS3)4
_symmetry_space_group_name_H-M   'P 1'
_cell_length_a   20.02960800
_cell_length_b   3.90410600
_cell_length_c   14.95364829
_cell_angle_alpha   90.00000000
_cell_angle_beta   126.33350609
_cell_angle_gamma   90.00000000
_symmetry_Int_Tables_number   1
_chemical_formula_structural   Pr2Mn3(SbS3)4
_chemical_formula_sum   'Pr4 Mn6 Sb8 S24'
_cell_volume   942.00006694
_cell_formula_units_Z   2
loop_
 _symmetry_equiv_pos_site_id
 _symmetry_equiv_pos_as_xyz
  1  'x, y, z'
loop_
 _atom_site_type_symbol
 _atom_site_label
 _atom_site_symmetry_multiplicity
 _atom_site_fract_x
 _atom_site_fract_y
 _atom_site_fract_z
 _atom_site_occupancy
  Pr  Pr0  1  0.26071648  0.46708416  0.86412535  1
  Pr  Pr1  1  0.73058393  0.49719104  0.13248683  1
  Pr  Pr2  1  0.77750310  0.99064094  0.87563268  1
  Pr  Pr3  1  0.23116324  0.02531055  0.12976216  1
  Mn  Mn4  1  0.27889987  0.53075448  0.57427972  1
  Mn  Mn5  1  0.70938821  0.47129204  0.39213698  1
  Mn  Mn6  1  0.00090191  0.99220878  0.99726290  1
  Mn  Mn7  1  0.79964180  0.97655250  0.60441628  1
  Mn  Mn8  1  0.18407101  0.99547784  0.39742533  1
  Mn  Mn9  1  0.52038328  0.46790687  0.03071477  1
  Sb  Sb10  1  0.90477280  0.01806990  0.46650091  1
  Sb  Sb11  1  0.12093884  0.95566357  0.55946669  1
  Sb  Sb12  1  0.02867224  0.52307025  0.80656120  1
  Sb  Sb13  1  0.96903457  0.50385664  0.19230302  1
  Sb  Sb14  1  0.38848673  0.48777354  0.44205328  1
  Sb  Sb15  1  0.61857670  0.47017058  0.55876492  1
  Sb  Sb16  1  0.53794616  0.97868745  0.82093888  1
  Sb  Sb17  1  0.46286624  0.04303491  0.18618890  1
  S  S18  1  0.94188486  0.94359795  0.81984729  1
  S  S19  1  0.07023849  0.00011545  0.20679536  1
  S  S20  1  0.43117897  0.98356538  0.99145185  1
  S  S21  1  0.59628348  0.02852669  0.03746321  1
  S  S22  1  0.19514938  0.95496356  0.91880096  1
  S  S23  1  0.83344279  0.06007267  0.10504541  1
  S  S24  1  0.10330773  0.51664971  0.67086610  1
  S  S25  1  0.90548238  0.53554734  0.36474441  1
  S  S26  1  0.74311673  0.94141890  0.31623315  1
  S  S27  1  0.26519107  0.96198686  0.69037141  1
  S  S28  1  0.15514352  0.48520741  0.43903046  1
  S  S29  1  0.84284276  0.47013527  0.56562370  1
  S  S30  1  0.44849899  0.50998077  0.83644532  1
  S  S31  1  0.57424720  0.54542094  0.21685867  1
  S  S32  1  0.92816201  0.48184132  0.00259418  1
  S  S33  1  0.09044157  0.48161105  0.01362093  1
  S  S34  1  0.67620585  0.51428812  0.90099126  1
  S  S35  1  0.34086138  0.49817314  0.11012155  1
  S  S36  1  0.59559791  0.97875386  0.64748503  1
  S  S37  1  0.41523422  0.01822194  0.35253632  1
  S  S38  1  0.23965144  0.50406034  0.28561252  1
  S  S39  1  0.78166173  0.45633891  0.69733605  1
  S  S40  1  0.67499450  0.95691896  0.45325166  1
  S  S41  1  0.31898282  0.99800247  0.52967827  1
