# generated using pymatgen
data_Pr2Mn3(SbS3)4
_symmetry_space_group_name_H-M   'P 1'
_cell_length_a   20.02960800
_cell_length_b   3.90410600
_cell_length_c   14.95364829
_cell_angle_alpha   90.00000000
_cell_angle_beta   126.33350609
_cell_angle_gamma   90.00000000
_symmetry_Int_Tables_number   1
_chemical_formula_structural   Pr2Mn3(SbS3)4
_chemical_formula_sum   'Pr4 Mn6 Sb8 S24'
_cell_volume   942.00006694
_cell_formula_units_Z   2
loop_
 _symmetry_equiv_pos_site_id
 _symmetry_equiv_pos_as_xyz
  1  'x, y, z'
loop_
 _atom_site_type_symbol
 _atom_site_label
 _atom_site_symmetry_multiplicity
 _atom_site_fract_x
 _atom_site_fract_y
 _atom_site_fract_z
 _atom_site_occupancy
  Pr  Pr0  1  0.26083541  0.46790113  0.86427608  1
  Pr  Pr1  1  0.73060827  0.49680216  0.13261223  1
  Pr  Pr2  1  0.77759089  0.99194663  0.87547252  1
  Pr  Pr3  1  0.23120198  0.02593544  0.12984454  1
  Mn  Mn4  1  0.27885412  0.53134077  0.57405771  1
  Mn  Mn5  1  0.70939279  0.47173716  0.39211861  1
  Mn  Mn6  1  0.00084780  0.99304967  0.99723216  1
  Mn  Mn7  1  0.79959522  0.97580850  0.60412006  1
  Mn  Mn8  1  0.18381745  0.99598785  0.39745385  1
  Mn  Mn9  1  0.52028137  0.46745924  0.03034385  1
  Sb  Sb10  1  0.90486403  0.01781271  0.46653001  1
  Sb  Sb11  1  0.12093026  0.95570458  0.55959045  1
  Sb  Sb12  1  0.02862002  0.52326326  0.80657068  1
  Sb  Sb13  1  0.96899804  0.50309753  0.19231362  1
  Sb  Sb14  1  0.38854438  0.48747068  0.44229118  1
  Sb  Sb15  1  0.61841782  0.46984027  0.55866632  1
  Sb  Sb16  1  0.53817186  0.97875444  0.82083275  1
  Sb  Sb17  1  0.46277691  0.04264078  0.18591389  1
  S  S18  1  0.94208140  0.94340615  0.81987204  1
  S  S19  1  0.07041668  0.00028470  0.20690576  1
  S  S20  1  0.43102557  0.98408506  0.99161365  1
  S  S21  1  0.59634457  0.02749799  0.03782928  1
  S  S22  1  0.19516049  0.95412660  0.91865031  1
  S  S23  1  0.83354444  0.05926282  0.10545163  1
  S  S24  1  0.10293938  0.51706290  0.67056725  1
  S  S25  1  0.90547891  0.53341068  0.36512621  1
  S  S26  1  0.74334068  0.94280869  0.31621178  1
  S  S27  1  0.26496330  0.96184802  0.69028621  1
  S  S28  1  0.15447760  0.48439020  0.43827103  1
  S  S29  1  0.84267560  0.46901926  0.56548246  1
  S  S30  1  0.44824224  0.51148798  0.83597305  1
  S  S31  1  0.57430983  0.54663666  0.21687645  1
  S  S32  1  0.92848602  0.48083511  0.00271461  1
  S  S33  1  0.09002294  0.48182866  0.01345538  1
  S  S34  1  0.67620375  0.51517897  0.90144996  1
  S  S35  1  0.34101897  0.49815114  0.11064603  1
  S  S36  1  0.59545138  0.97995775  0.64709374  1
  S  S37  1  0.41545957  0.01849508  0.35276870  1
  S  S38  1  0.23967207  0.50153702  0.28570804  1
  S  S39  1  0.78178146  0.45390014  0.69726445  1
  S  S40  1  0.67524733  0.95711874  0.45331193  1
  S  S41  1  0.31925967  0.99763143  0.53000123  1
