# generated using pymatgen
data_Pr2Mn3(SbS3)4
_symmetry_space_group_name_H-M   'P 1'
_cell_length_a   20.02960800
_cell_length_b   3.90410600
_cell_length_c   14.95364829
_cell_angle_alpha   90.00000000
_cell_angle_beta   126.33350609
_cell_angle_gamma   90.00000000
_symmetry_Int_Tables_number   1
_chemical_formula_structural   Pr2Mn3(SbS3)4
_chemical_formula_sum   'Pr4 Mn6 Sb8 S24'
_cell_volume   942.00006694
_cell_formula_units_Z   2
loop_
 _symmetry_equiv_pos_site_id
 _symmetry_equiv_pos_as_xyz
  1  'x, y, z'
loop_
 _atom_site_type_symbol
 _atom_site_label
 _atom_site_symmetry_multiplicity
 _atom_site_fract_x
 _atom_site_fract_y
 _atom_site_fract_z
 _atom_site_occupancy
  Pr  Pr0  1  0.26095199  0.46861521  0.86441233  1
  Pr  Pr1  1  0.73063919  0.49639033  0.13276609  1
  Pr  Pr2  1  0.77762413  0.99308236  0.87527730  1
  Pr  Pr3  1  0.23117555  0.02630849  0.12989559  1
  Mn  Mn4  1  0.27880662  0.53207935  0.57382662  1
  Mn  Mn5  1  0.70935148  0.47216528  0.39207571  1
  Mn  Mn6  1  0.00086354  0.99387105  0.99721178  1
  Mn  Mn7  1  0.79960084  0.97488571  0.60396109  1
  Mn  Mn8  1  0.18360391  0.99636194  0.39756564  1
  Mn  Mn9  1  0.52016508  0.46745333  0.02997508  1
  Sb  Sb10  1  0.90496345  0.01746201  0.46659984  1
  Sb  Sb11  1  0.12095216  0.95538105  0.55966606  1
  Sb  Sb12  1  0.02853067  0.52327538  0.80652142  1
  Sb  Sb13  1  0.96893073  0.50209455  0.19225691  1
  Sb  Sb14  1  0.38857333  0.48741110  0.44258272  1
  Sb  Sb15  1  0.61833754  0.46908848  0.55857263  1
  Sb  Sb16  1  0.53832959  0.97906622  0.82064925  1
  Sb  Sb17  1  0.46275450  0.04290831  0.18568708  1
  S  S18  1  0.94227820  0.94347465  0.81999349  1
  S  S19  1  0.07035655  0.00078458  0.20679069  1
  S  S20  1  0.43082522  0.98402324  0.99164960  1
  S  S21  1  0.59633099  0.02704049  0.03806293  1
  S  S22  1  0.19499964  0.95337565  0.91822529  1
  S  S23  1  0.83355053  0.05856127  0.10586775  1
  S  S24  1  0.10253836  0.51738147  0.67021291  1
  S  S25  1  0.90547560  0.53130125  0.36542919  1
  S  S26  1  0.74355631  0.94384614  0.31617513  1
  S  S27  1  0.26472694  0.96122321  0.69024942  1
  S  S28  1  0.15394256  0.48342776  0.43763151  1
  S  S29  1  0.84249552  0.46811004  0.56531232  1
  S  S30  1  0.44803545  0.51350057  0.83569015  1
  S  S31  1  0.57432398  0.54673804  0.21700010  1
  S  S32  1  0.92871610  0.48011684  0.00288010  1
  S  S33  1  0.08970994  0.48201344  0.01335774  1
  S  S34  1  0.67615787  0.51581505  0.90188635  1
  S  S35  1  0.34110653  0.49829198  0.11109922  1
  S  S36  1  0.59530749  0.98129411  0.64665243  1
  S  S37  1  0.41568524  0.01892166  0.35306486  1
  S  S38  1  0.23956602  0.49952649  0.28571790  1
  S  S39  1  0.78197387  0.45230545  0.69735709  1
  S  S40  1  0.67548968  0.95770118  0.45332489  1
  S  S41  1  0.31945358  0.99798187  0.53026784  1
