# generated using pymatgen
data_Pr2Mn3(SbS3)4
_symmetry_space_group_name_H-M   'P 1'
_cell_length_a   20.02960800
_cell_length_b   3.90410600
_cell_length_c   14.95364829
_cell_angle_alpha   90.00000000
_cell_angle_beta   126.33350609
_cell_angle_gamma   90.00000000
_symmetry_Int_Tables_number   1
_chemical_formula_structural   Pr2Mn3(SbS3)4
_chemical_formula_sum   'Pr4 Mn6 Sb8 S24'
_cell_volume   942.00006694
_cell_formula_units_Z   2
loop_
 _symmetry_equiv_pos_site_id
 _symmetry_equiv_pos_as_xyz
  1  'x, y, z'
loop_
 _atom_site_type_symbol
 _atom_site_label
 _atom_site_symmetry_multiplicity
 _atom_site_fract_x
 _atom_site_fract_y
 _atom_site_fract_z
 _atom_site_occupancy
  Pr  Pr0  1  0.26102024  0.46909437  0.86449443  1
  Pr  Pr1  1  0.73073173  0.49623417  0.13292371  1
  Pr  Pr2  1  0.77759030  0.99438601  0.87503281  1
  Pr  Pr3  1  0.23117503  0.02669906  0.12993261  1
  Mn  Mn4  1  0.27875093  0.53283653  0.57359034  1
  Mn  Mn5  1  0.70938207  0.47277449  0.39209286  1
  Mn  Mn6  1  0.00088941  0.99497916  0.99728236  1
  Mn  Mn7  1  0.79955306  0.97452057  0.60397652  1
  Mn  Mn8  1  0.18332110  0.99631201  0.39776071  1
  Mn  Mn9  1  0.52009789  0.46729280  0.02958765  1
  Sb  Sb10  1  0.90503396  0.01745260  0.46658734  1
  Sb  Sb11  1  0.12084880  0.95486562  0.55960080  1
  Sb  Sb12  1  0.02849286  0.52365277  0.80664615  1
  Sb  Sb13  1  0.96895695  0.50111707  0.19219987  1
  Sb  Sb14  1  0.38861154  0.48757115  0.44287084  1
  Sb  Sb15  1  0.61832790  0.46843917  0.55850942  1
  Sb  Sb16  1  0.53842875  0.97934541  0.82044369  1
  Sb  Sb17  1  0.46272490  0.04328512  0.18542293  1
  S  S18  1  0.94243157  0.94358551  0.81998185  1
  S  S19  1  0.07027505  0.00149466  0.20665460  1
  S  S20  1  0.43060391  0.98376096  0.99176841  1
  S  S21  1  0.59636375  0.02621183  0.03847314  1
  S  S22  1  0.19487447  0.95331686  0.91781285  1
  S  S23  1  0.83363680  0.05859372  0.10640645  1
  S  S24  1  0.10206456  0.51755837  0.66992117  1
  S  S25  1  0.90541696  0.52928816  0.36556681  1
  S  S26  1  0.74378325  0.94505861  0.31625992  1
  S  S27  1  0.26447453  0.96079440  0.69029073  1
  S  S28  1  0.15331106  0.48252225  0.43672790  1
  S  S29  1  0.84236385  0.46767241  0.56514020  1
  S  S30  1  0.44783064  0.51570535  0.83534990  1
  S  S31  1  0.57432405  0.54632266  0.21722424  1
  S  S32  1  0.92899736  0.47924010  0.00308437  1
  S  S33  1  0.08931760  0.48225944  0.01305479  1
  S  S34  1  0.67612060  0.51636511  0.90229247  1
  S  S35  1  0.34143678  0.49821187  0.11152569  1
  S  S36  1  0.59501280  0.98299524  0.64609394  1
  S  S37  1  0.41592228  0.01981664  0.35345576  1
  S  S38  1  0.23945203  0.49721331  0.28564259  1
  S  S39  1  0.78223023  0.45118887  0.69739528  1
  S  S40  1  0.67583611  0.95757970  0.45327288  1
  S  S41  1  0.31959161  0.99794248  0.53038778  1
