# generated using pymatgen
data_Pr2Mn3(SbS3)4
_symmetry_space_group_name_H-M   'P 1'
_cell_length_a   20.02960800
_cell_length_b   3.90410600
_cell_length_c   14.95364829
_cell_angle_alpha   90.00000000
_cell_angle_beta   126.33350609
_cell_angle_gamma   90.00000000
_symmetry_Int_Tables_number   1
_chemical_formula_structural   Pr2Mn3(SbS3)4
_chemical_formula_sum   'Pr4 Mn6 Sb8 S24'
_cell_volume   942.00006694
_cell_formula_units_Z   2
loop_
 _symmetry_equiv_pos_site_id
 _symmetry_equiv_pos_as_xyz
  1  'x, y, z'
loop_
 _atom_site_type_symbol
 _atom_site_label
 _atom_site_symmetry_multiplicity
 _atom_site_fract_x
 _atom_site_fract_y
 _atom_site_fract_z
 _atom_site_occupancy
  Pr  Pr0  1  0.26110466  0.46957708  0.86452096  1
  Pr  Pr1  1  0.73077855  0.49652049  0.13305111  1
  Pr  Pr2  1  0.77758769  0.99511214  0.87475070  1
  Pr  Pr3  1  0.23114072  0.02673366  0.12991694  1
  Mn  Mn4  1  0.27877841  0.53350082  0.57342207  1
  Mn  Mn5  1  0.70952407  0.47397250  0.39214831  1
  Mn  Mn6  1  0.00093692  0.99611098  0.99723589  1
  Mn  Mn7  1  0.79943119  0.97390495  0.60397905  1
  Mn  Mn8  1  0.18309320  0.99615578  0.39784315  1
  Mn  Mn9  1  0.52008116  0.46697032  0.02925701  1
  Sb  Sb10  1  0.90510871  0.01756085  0.46652390  1
  Sb  Sb11  1  0.12083317  0.95410449  0.55965527  1
  Sb  Sb12  1  0.02845555  0.52397600  0.80678997  1
  Sb  Sb13  1  0.96895954  0.50017092  0.19214650  1
  Sb  Sb14  1  0.38871562  0.48777084  0.44325816  1
  Sb  Sb15  1  0.61831873  0.46750125  0.55846044  1
  Sb  Sb16  1  0.53860698  0.97961659  0.82026845  1
  Sb  Sb17  1  0.46270355  0.04365272  0.18517884  1
  S  S18  1  0.94254688  0.94438491  0.82008098  1
  S  S19  1  0.06997416  0.00258918  0.20647093  1
  S  S20  1  0.43039973  0.98379543  0.99194991  1
  S  S21  1  0.59660665  0.02573095  0.03879849  1
  S  S22  1  0.19456179  0.95301784  0.91708846  1
  S  S23  1  0.83359817  0.05919022  0.10688614  1
  S  S24  1  0.10154150  0.51788177  0.66953817  1
  S  S25  1  0.90550440  0.52761247  0.36571104  1
  S  S26  1  0.74395040  0.94579960  0.31646410  1
  S  S27  1  0.26426009  0.95988048  0.69026409  1
  S  S28  1  0.15277898  0.48197249  0.43602670  1
  S  S29  1  0.84217443  0.46746140  0.56488251  1
  S  S30  1  0.44774187  0.51811927  0.83521543  1
  S  S31  1  0.57425561  0.54620219  0.21746079  1
  S  S32  1  0.92936711  0.47876371  0.00319594  1
  S  S33  1  0.08906894  0.48267555  0.01300320  1
  S  S34  1  0.67616596  0.51646840  0.90259242  1
  S  S35  1  0.34172860  0.49850826  0.11181529  1
  S  S36  1  0.59462487  0.98460636  0.64532565  1
  S  S37  1  0.41609729  0.02093051  0.35379317  1
  S  S38  1  0.23937257  0.49534735  0.28565411  1
  S  S39  1  0.78235287  0.44985007  0.69737204  1
  S  S40  1  0.67611879  0.95801832  0.45314229  1
  S  S41  1  0.31955033  0.99882913  0.53041524  1
