# generated using pymatgen
data_Pr2Mn3(SbS3)4
_symmetry_space_group_name_H-M   'P 1'
_cell_length_a   20.02960800
_cell_length_b   3.90410600
_cell_length_c   14.95364829
_cell_angle_alpha   90.00000000
_cell_angle_beta   126.33350609
_cell_angle_gamma   90.00000000
_symmetry_Int_Tables_number   1
_chemical_formula_structural   Pr2Mn3(SbS3)4
_chemical_formula_sum   'Pr4 Mn6 Sb8 S24'
_cell_volume   942.00006694
_cell_formula_units_Z   2
loop_
 _symmetry_equiv_pos_site_id
 _symmetry_equiv_pos_as_xyz
  1  'x, y, z'
loop_
 _atom_site_type_symbol
 _atom_site_label
 _atom_site_symmetry_multiplicity
 _atom_site_fract_x
 _atom_site_fract_y
 _atom_site_fract_z
 _atom_site_occupancy
  Pr  Pr0  1  0.26120788  0.46988016  0.86457396  1
  Pr  Pr1  1  0.73088681  0.49665846  0.13316113  1
  Pr  Pr2  1  0.77764923  0.99585635  0.87450792  1
  Pr  Pr3  1  0.23102591  0.02641237  0.12978674  1
  Mn  Mn4  1  0.27880583  0.53393247  0.57315717  1
  Mn  Mn5  1  0.70955729  0.47490366  0.39206832  1
  Mn  Mn6  1  0.00096150  0.99682271  0.99715538  1
  Mn  Mn7  1  0.79950261  0.97337915  0.60418654  1
  Mn  Mn8  1  0.18278393  0.99639097  0.39796355  1
  Mn  Mn9  1  0.52006315  0.46704397  0.02904857  1
  Sb  Sb10  1  0.90524389  0.01804488  0.46647964  1
  Sb  Sb11  1  0.12084596  0.95356665  0.55968507  1
  Sb  Sb12  1  0.02841026  0.52415515  0.80686260  1
  Sb  Sb13  1  0.96899839  0.49937178  0.19209938  1
  Sb  Sb14  1  0.38882781  0.48785400  0.44362020  1
  Sb  Sb15  1  0.61827888  0.46685504  0.55840042  1
  Sb  Sb16  1  0.53880810  0.97953684  0.82024424  1
  Sb  Sb17  1  0.46263303  0.04409151  0.18483644  1
  S  S18  1  0.94277184  0.94504911  0.82039157  1
  S  S19  1  0.06964435  0.00428406  0.20617162  1
  S  S20  1  0.43008886  0.98330173  0.99199459  1
  S  S21  1  0.59686590  0.02570152  0.03898420  1
  S  S22  1  0.19440459  0.95269630  0.91644283  1
  S  S23  1  0.83353811  0.05938522  0.10746429  1
  S  S24  1  0.10108295  0.51796652  0.66916518  1
  S  S25  1  0.90559454  0.52596644  0.36576307  1
  S  S26  1  0.74389136  0.94715325  0.31651309  1
  S  S27  1  0.26406645  0.95930159  0.69032077  1
  S  S28  1  0.15240384  0.48164799  0.43568945  1
  S  S29  1  0.84194301  0.46700431  0.56446296  1
  S  S30  1  0.44764161  0.52039551  0.83500506  1
  S  S31  1  0.57427883  0.54585136  0.21778987  1
  S  S32  1  0.92973846  0.47833218  0.00336990  1
  S  S33  1  0.08874595  0.48284724  0.01295720  1
  S  S34  1  0.67634043  0.51652309  0.90301618  1
  S  S35  1  0.34220873  0.49849047  0.11224572  1
  S  S36  1  0.59420029  0.98618359  0.64462286  1
  S  S37  1  0.41631923  0.02212265  0.35417663  1
  S  S38  1  0.23951550  0.49391624  0.28592995  1
  S  S39  1  0.78245159  0.44866072  0.69735295  1
  S  S40  1  0.67634805  0.95775723  0.45298917  1
  S  S41  1  0.31942199  0.99921108  0.53037949  1
