# generated using pymatgen
data_Pr2Mn3(SbS3)4
_symmetry_space_group_name_H-M   'P 1'
_cell_length_a   20.02960800
_cell_length_b   3.90410600
_cell_length_c   14.95364829
_cell_angle_alpha   90.00000000
_cell_angle_beta   126.33350609
_cell_angle_gamma   90.00000000
_symmetry_Int_Tables_number   1
_chemical_formula_structural   Pr2Mn3(SbS3)4
_chemical_formula_sum   'Pr4 Mn6 Sb8 S24'
_cell_volume   942.00006694
_cell_formula_units_Z   2
loop_
 _symmetry_equiv_pos_site_id
 _symmetry_equiv_pos_as_xyz
  1  'x, y, z'
loop_
 _atom_site_type_symbol
 _atom_site_label
 _atom_site_symmetry_multiplicity
 _atom_site_fract_x
 _atom_site_fract_y
 _atom_site_fract_z
 _atom_site_occupancy
  Pr  Pr0  1  0.26130300  0.46994134  0.86467591  1
  Pr  Pr1  1  0.73097444  0.49670502  0.13324183  1
  Pr  Pr2  1  0.77771757  0.99635190  0.87425823  1
  Pr  Pr3  1  0.23085879  0.02605182  0.12957182  1
  Mn  Mn4  1  0.27876977  0.53488834  0.57272411  1
  Mn  Mn5  1  0.70967334  0.47644383  0.39208330  1
  Mn  Mn6  1  0.00103463  0.99685345  0.99699205  1
  Mn  Mn7  1  0.79949235  0.97320057  0.60431393  1
  Mn  Mn8  1  0.18260155  0.99693726  0.39813089  1
  Mn  Mn9  1  0.51995799  0.46733293  0.02881651  1
  Sb  Sb10  1  0.90530173  0.01816980  0.46641611  1
  Sb  Sb11  1  0.12086320  0.95341454  0.55965535  1
  Sb  Sb12  1  0.02839635  0.52425214  0.80697354  1
  Sb  Sb13  1  0.96900326  0.49857912  0.19210758  1
  Sb  Sb14  1  0.38897951  0.48773632  0.44403515  1
  Sb  Sb15  1  0.61828046  0.46655972  0.55839017  1
  Sb  Sb16  1  0.53896906  0.97920780  0.82020309  1
  Sb  Sb17  1  0.46261892  0.04438513  0.18453753  1
  S  S18  1  0.94297506  0.94567968  0.82068526  1
  S  S19  1  0.06934575  0.00602770  0.20602882  1
  S  S20  1  0.42973167  0.98272026  0.99198475  1
  S  S21  1  0.59707383  0.02562084  0.03912555  1
  S  S22  1  0.19415867  0.95294706  0.91581261  1
  S  S23  1  0.83353029  0.05904443  0.10790235  1
  S  S24  1  0.10081998  0.51775764  0.66893316  1
  S  S25  1  0.90575965  0.52434596  0.36570790  1
  S  S26  1  0.74391320  0.94887168  0.31638496  1
  S  S27  1  0.26397204  0.95876086  0.69031353  1
  S  S28  1  0.15187767  0.48151457  0.43533564  1
  S  S29  1  0.84180871  0.46639341  0.56419436  1
  S  S30  1  0.44761626  0.52267482  0.83478224  1
  S  S31  1  0.57447203  0.54507955  0.21823706  1
  S  S32  1  0.93008785  0.47826138  0.00356304  1
  S  S33  1  0.08847862  0.48283777  0.01284472  1
  S  S34  1  0.67641287  0.51693269  0.90328109  1
  S  S35  1  0.34256887  0.49893743  0.11241135  1
  S  S36  1  0.59381579  0.98778243  0.64411338  1
  S  S37  1  0.41660911  0.02432349  0.35465355  1
  S  S38  1  0.23956770  0.49250716  0.28599984  1
  S  S39  1  0.78249465  0.44740175  0.69725835  1
  S  S40  1  0.67660855  0.95743054  0.45284538  1
  S  S41  1  0.31926842  0.99990949  0.53024092  1
