# generated using pymatgen
data_Pr2Mn3(SbS3)4
_symmetry_space_group_name_H-M   'P 1'
_cell_length_a   20.02960800
_cell_length_b   3.90410600
_cell_length_c   14.95364829
_cell_angle_alpha   90.00000000
_cell_angle_beta   126.33350609
_cell_angle_gamma   90.00000000
_symmetry_Int_Tables_number   1
_chemical_formula_structural   Pr2Mn3(SbS3)4
_chemical_formula_sum   'Pr4 Mn6 Sb8 S24'
_cell_volume   942.00006694
_cell_formula_units_Z   2
loop_
 _symmetry_equiv_pos_site_id
 _symmetry_equiv_pos_as_xyz
  1  'x, y, z'
loop_
 _atom_site_type_symbol
 _atom_site_label
 _atom_site_symmetry_multiplicity
 _atom_site_fract_x
 _atom_site_fract_y
 _atom_site_fract_z
 _atom_site_occupancy
  Pr  Pr0  1  0.27003201  0.50703113  0.87193558  1
  Pr  Pr1  1  0.73454356  0.51802952  0.13543535  1
  Pr  Pr2  1  0.76449565  0.03321275  0.87057300  1
  Pr  Pr3  1  0.22862244  0.96586550  0.12843156  1
  Mn  Mn4  1  0.29923528  0.46529288  0.60953734  1
  Mn  Mn5  1  0.68655171  0.45537103  0.36595846  1
  Mn  Mn6  1  0.99913303  0.98149777  0.00708700  1
  Mn  Mn7  1  0.79031881  0.02750309  0.61334043  1
  Mn  Mn8  1  0.19789232  0.02375653  0.37048504  1
  Mn  Mn9  1  0.48037344  0.47039671  0.98008323  1
  Sb  Sb10  1  0.89041357  0.97242557  0.44774633  1
  Sb  Sb11  1  0.11310078  0.97753284  0.54784454  1
  Sb  Sb12  1  0.03867836  0.52399245  0.82672671  1
  Sb  Sb13  1  0.96861386  0.48555272  0.19266267  1
  Sb  Sb14  1  0.39848694  0.49318908  0.45426488  1
  Sb  Sb15  1  0.61265343  0.48352689  0.54756104  1
  Sb  Sb16  1  0.52925182  0.97184666  0.80487802  1
  Sb  Sb17  1  0.46524503  0.03091088  0.18506664  1
  S  S18  1  0.94041861  0.00582718  0.80599067  1
  S  S19  1  0.06620287  0.99622857  0.20111539  1
  S  S20  1  0.41780579  0.98351673  0.97472783  1
  S  S21  1  0.58561364  0.02241577  0.00888183  1
  S  S22  1  0.16179945  0.02404259  0.89592490  1
  S  S23  1  0.82657788  0.98060830  0.10127673  1
  S  S24  1  0.08775312  0.50079421  0.63543085  1
  S  S25  1  0.91535793  0.49977975  0.35426578  1
  S  S26  1  0.73489566  0.99962101  0.29670759  1
  S  S27  1  0.26251818  0.01555364  0.70388837  1
  S  S28  1  0.17149583  0.52168320  0.44112609  1
  S  S29  1  0.80705654  0.52170546  0.53783270  1
  S  S30  1  0.43366341  0.47296885  0.80031357  1
  S  S31  1  0.55470766  0.49533345  0.17881125  1
  S  S32  1  0.92173053  0.51788322  0.98733544  1
  S  S33  1  0.08609204  0.50016735  0.02237904  1
  S  S34  1  0.66839180  0.55976744  0.89428025  1
  S  S35  1  0.32925625  0.46228097  0.10170620  1
  S  S36  1  0.58847925  0.00060773  0.64350433  1
  S  S37  1  0.39180059  0.99386323  0.33074197  1
  S  S38  1  0.24693979  0.46471777  0.31761073  1
  S  S39  1  0.76380449  0.49159298  0.69319020  1
  S  S40  1  0.65807309  0.98729493  0.43431945  1
  S  S41  1  0.32992903  0.98707305  0.55470411  1
