# generated using pymatgen
data_Pr2Mn3(SbS3)4
_symmetry_space_group_name_H-M   'P 1'
_cell_length_a   20.02960800
_cell_length_b   3.90410600
_cell_length_c   14.95364829
_cell_angle_alpha   90.00000000
_cell_angle_beta   126.33350609
_cell_angle_gamma   90.00000000
_symmetry_Int_Tables_number   1
_chemical_formula_structural   Pr2Mn3(SbS3)4
_chemical_formula_sum   'Pr4 Mn6 Sb8 S24'
_cell_volume   942.00006694
_cell_formula_units_Z   2
loop_
 _symmetry_equiv_pos_site_id
 _symmetry_equiv_pos_as_xyz
  1  'x, y, z'
loop_
 _atom_site_type_symbol
 _atom_site_label
 _atom_site_symmetry_multiplicity
 _atom_site_fract_x
 _atom_site_fract_y
 _atom_site_fract_z
 _atom_site_occupancy
  Pr  Pr0  1  0.26138416  0.47016075  0.86478160  1
  Pr  Pr1  1  0.73111756  0.49648264  0.13329768  1
  Pr  Pr2  1  0.77780770  0.99663785  0.87410197  1
  Pr  Pr3  1  0.23072388  0.02589209  0.12941844  1
  Mn  Mn4  1  0.27866228  0.53559172  0.57229914  1
  Mn  Mn5  1  0.70968661  0.47777758  0.39195451  1
  Mn  Mn6  1  0.00113064  0.99696918  0.99676527  1
  Mn  Mn7  1  0.79950582  0.97327156  0.60450652  1
  Mn  Mn8  1  0.18253434  0.99792182  0.39833879  1
  Mn  Mn9  1  0.51989934  0.46835535  0.02857953  1
  Sb  Sb10  1  0.90534369  0.01810558  0.46636082  1
  Sb  Sb11  1  0.12086878  0.95319871  0.55957303  1
  Sb  Sb12  1  0.02843271  0.52404409  0.80717587  1
  Sb  Sb13  1  0.96891983  0.49772423  0.19197249  1
  Sb  Sb14  1  0.38913872  0.48739315  0.44439641  1
  Sb  Sb15  1  0.61832752  0.46635823  0.55838887  1
  Sb  Sb16  1  0.53907213  0.97913039  0.82012903  1
  Sb  Sb17  1  0.46258515  0.04452077  0.18426168  1
  S  S18  1  0.94315003  0.94535941  0.82098591  1
  S  S19  1  0.06912436  0.00761701  0.20589580  1
  S  S20  1  0.42952634  0.98229412  0.99222923  1
  S  S21  1  0.59726597  0.02565615  0.03932730  1
  S  S22  1  0.19383474  0.95260561  0.91506150  1
  S  S23  1  0.83351217  0.05881331  0.10822136  1
  S  S24  1  0.10049680  0.51734882  0.66862032  1
  S  S25  1  0.90597114  0.52283705  0.36582392  1
  S  S26  1  0.74402982  0.95030193  0.31643117  1
  S  S27  1  0.26386764  0.95806252  0.69035905  1
  S  S28  1  0.15137730  0.48148942  0.43495415  1
  S  S29  1  0.84174161  0.46569625  0.56393247  1
  S  S30  1  0.44780526  0.52450958  0.83465635  1
  S  S31  1  0.57482541  0.54496036  0.21870971  1
  S  S32  1  0.93054772  0.47836116  0.00379240  1
  S  S33  1  0.08815233  0.48368192  0.01277651  1
  S  S34  1  0.67636731  0.51686701  0.90329861  1
  S  S35  1  0.34271989  0.49926522  0.11229806  1
  S  S36  1  0.59353651  0.98930973  0.64377612  1
  S  S37  1  0.41703018  0.02591634  0.35523856  1
  S  S38  1  0.23975459  0.49140339  0.28629298  1
  S  S39  1  0.78254125  0.44637367  0.69711920  1
  S  S40  1  0.67677374  0.95735036  0.45261810  1
  S  S41  1  0.31916494  0.00045864  0.53011060  1
