# generated using pymatgen
data_Pr2Mn3(SbS3)4
_symmetry_space_group_name_H-M   'P 1'
_cell_length_a   20.02960800
_cell_length_b   3.90410600
_cell_length_c   14.95364829
_cell_angle_alpha   90.00000000
_cell_angle_beta   126.33350609
_cell_angle_gamma   90.00000000
_symmetry_Int_Tables_number   1
_chemical_formula_structural   Pr2Mn3(SbS3)4
_chemical_formula_sum   'Pr4 Mn6 Sb8 S24'
_cell_volume   942.00006694
_cell_formula_units_Z   2
loop_
 _symmetry_equiv_pos_site_id
 _symmetry_equiv_pos_as_xyz
  1  'x, y, z'
loop_
 _atom_site_type_symbol
 _atom_site_label
 _atom_site_symmetry_multiplicity
 _atom_site_fract_x
 _atom_site_fract_y
 _atom_site_fract_z
 _atom_site_occupancy
  Pr  Pr0  1  0.26144399  0.47050215  0.86488322  1
  Pr  Pr1  1  0.73125818  0.49653186  0.13337904  1
  Pr  Pr2  1  0.77784676  0.99659909  0.87406357  1
  Pr  Pr3  1  0.23061139  0.02569738  0.12930617  1
  Mn  Mn4  1  0.27875987  0.53644106  0.57208725  1
  Mn  Mn5  1  0.70977892  0.47936977  0.39182136  1
  Mn  Mn6  1  0.00122293  0.99736823  0.99671668  1
  Mn  Mn7  1  0.79953911  0.97321375  0.60472938  1
  Mn  Mn8  1  0.18241002  0.99894356  0.39856156  1
  Mn  Mn9  1  0.51977354  0.46956659  0.02823270  1
  Sb  Sb10  1  0.90543194  0.01811043  0.46638660  1
  Sb  Sb11  1  0.12088080  0.95323184  0.55946713  1
  Sb  Sb12  1  0.02848235  0.52337222  0.80739840  1
  Sb  Sb13  1  0.96895942  0.49714956  0.19191006  1
  Sb  Sb14  1  0.38918643  0.48721956  0.44464518  1
  Sb  Sb15  1  0.61840445  0.46622735  0.55847473  1
  Sb  Sb16  1  0.53919657  0.97915888  0.82018237  1
  Sb  Sb17  1  0.46257327  0.04462780  0.18406187  1
  S  S18  1  0.94330783  0.94518057  0.82105890  1
  S  S19  1  0.06885655  0.00888205  0.20581032  1
  S  S20  1  0.42958545  0.98239629  0.99264557  1
  S  S21  1  0.59750897  0.02595999  0.03965239  1
  S  S22  1  0.19354072  0.95275277  0.91438318  1
  S  S23  1  0.83360627  0.05814043  0.10855459  1
  S  S24  1  0.10012954  0.51691523  0.66837981  1
  S  S25  1  0.90599953  0.52068367  0.36547743  1
  S  S26  1  0.74422573  0.95165486  0.31634951  1
  S  S27  1  0.26373169  0.95744516  0.69045234  1
  S  S28  1  0.15098781  0.48164668  0.43459121  1
  S  S29  1  0.84161219  0.46512474  0.56347414  1
  S  S30  1  0.44807750  0.52576215  0.83469183  1
  S  S31  1  0.57522005  0.54493417  0.21943010  1
  S  S32  1  0.93077120  0.47861598  0.00378613  1
  S  S33  1  0.08789663  0.48420976  0.01264486  1
  S  S34  1  0.67629710  0.51653087  0.90333050  1
  S  S35  1  0.34292804  0.49880184  0.11223108  1
  S  S36  1  0.59317973  0.99076428  0.64342028  1
  S  S37  1  0.41746277  0.02754694  0.35578429  1
  S  S38  1  0.23980921  0.49055420  0.28651966  1
  S  S39  1  0.78262944  0.44503681  0.69711684  1
  S  S40  1  0.67681287  0.95713957  0.45226552  1
  S  S41  1  0.31892891  0.00067924  0.52990567  1
