# generated using pymatgen
data_Pr2Mn3(SbS3)4
_symmetry_space_group_name_H-M   'P 1'
_cell_length_a   20.02960800
_cell_length_b   3.90410600
_cell_length_c   14.95364829
_cell_angle_alpha   90.00000000
_cell_angle_beta   126.33350609
_cell_angle_gamma   90.00000000
_symmetry_Int_Tables_number   1
_chemical_formula_structural   Pr2Mn3(SbS3)4
_chemical_formula_sum   'Pr4 Mn6 Sb8 S24'
_cell_volume   942.00006694
_cell_formula_units_Z   2
loop_
 _symmetry_equiv_pos_site_id
 _symmetry_equiv_pos_as_xyz
  1  'x, y, z'
loop_
 _atom_site_type_symbol
 _atom_site_label
 _atom_site_symmetry_multiplicity
 _atom_site_fract_x
 _atom_site_fract_y
 _atom_site_fract_z
 _atom_site_occupancy
  Pr  Pr0  1  0.26151318  0.47083114  0.86500737  1
  Pr  Pr1  1  0.73147440  0.49696908  0.13362145  1
  Pr  Pr2  1  0.77783669  0.99656404  0.87395737  1
  Pr  Pr3  1  0.23060179  0.02546804  0.12922137  1
  Mn  Mn4  1  0.27884582  0.53767944  0.57189005  1
  Mn  Mn5  1  0.70980654  0.48106498  0.39167718  1
  Mn  Mn6  1  0.00125803  0.99753109  0.99667659  1
  Mn  Mn7  1  0.79945699  0.97328649  0.60481458  1
  Mn  Mn8  1  0.18217406  0.99969700  0.39858535  1
  Mn  Mn9  1  0.51976211  0.47033792  0.02785441  1
  Sb  Sb10  1  0.90549693  0.01797881  0.46635952  1
  Sb  Sb11  1  0.12087020  0.95293379  0.55931638  1
  Sb  Sb12  1  0.02865925  0.52266748  0.80774956  1
  Sb  Sb13  1  0.96899495  0.49656280  0.19181730  1
  Sb  Sb14  1  0.38927119  0.48697555  0.44486990  1
  Sb  Sb15  1  0.61841355  0.46623101  0.55846516  1
  Sb  Sb16  1  0.53929571  0.97916236  0.82013462  1
  Sb  Sb17  1  0.46262360  0.04440182  0.18394542  1
  S  S18  1  0.94346051  0.94497664  0.82117966  1
  S  S19  1  0.06857211  0.00987328  0.20581501  1
  S  S20  1  0.42968751  0.98299108  0.99319080  1
  S  S21  1  0.59776670  0.02580668  0.03994894  1
  S  S22  1  0.19323242  0.95323426  0.91366164  1
  S  S23  1  0.83363495  0.05742594  0.10881849  1
  S  S24  1  0.09967151  0.51659810  0.66820773  1
  S  S25  1  0.90603993  0.51811289  0.36520911  1
  S  S26  1  0.74453547  0.95280907  0.31631637  1
  S  S27  1  0.26357444  0.95697364  0.69059022  1
  S  S28  1  0.15054060  0.48189421  0.43407073  1
  S  S29  1  0.84150594  0.46494055  0.56316740  1
  S  S30  1  0.44835264  0.52661218  0.83462117  1
  S  S31  1  0.57572213  0.54521598  0.22024453  1
  S  S32  1  0.93083897  0.47904142  0.00361851  1
  S  S33  1  0.08773235  0.48428107  0.01240069  1
  S  S34  1  0.67630009  0.51612827  0.90345249  1
  S  S35  1  0.34314975  0.49839862  0.11226594  1
  S  S36  1  0.59287078  0.99202101  0.64321697  1
  S  S37  1  0.41776444  0.02951641  0.35631456  1
  S  S38  1  0.24003405  0.48945719  0.28684769  1
  S  S39  1  0.78274545  0.44383233  0.69729414  1
  S  S40  1  0.67673911  0.95695239  0.45181916  1
  S  S41  1  0.31878323  0.00094681  0.52979807  1
