# generated using pymatgen
data_Pr2Mn3(SbS3)4
_symmetry_space_group_name_H-M   'P 1'
_cell_length_a   20.02960800
_cell_length_b   3.90410600
_cell_length_c   14.95364829
_cell_angle_alpha   90.00000000
_cell_angle_beta   126.33350609
_cell_angle_gamma   90.00000000
_symmetry_Int_Tables_number   1
_chemical_formula_structural   Pr2Mn3(SbS3)4
_chemical_formula_sum   'Pr4 Mn6 Sb8 S24'
_cell_volume   942.00006694
_cell_formula_units_Z   2
loop_
 _symmetry_equiv_pos_site_id
 _symmetry_equiv_pos_as_xyz
  1  'x, y, z'
loop_
 _atom_site_type_symbol
 _atom_site_label
 _atom_site_symmetry_multiplicity
 _atom_site_fract_x
 _atom_site_fract_y
 _atom_site_fract_z
 _atom_site_occupancy
  Pr  Pr0  1  0.26154431  0.47126675  0.86501605  1
  Pr  Pr1  1  0.73163691  0.49728571  0.13385334  1
  Pr  Pr2  1  0.77786523  0.99644187  0.87384579  1
  Pr  Pr3  1  0.23057135  0.02526112  0.12909222  1
  Mn  Mn4  1  0.27890037  0.53832903  0.57181007  1
  Mn  Mn5  1  0.70988912  0.48255864  0.39154487  1
  Mn  Mn6  1  0.00139603  0.99766213  0.99668655  1
  Mn  Mn7  1  0.79942660  0.97317596  0.60483676  1
  Mn  Mn8  1  0.18209989  0.00032045  0.39876061  1
  Mn  Mn9  1  0.51975044  0.47126781  0.02748062  1
  Sb  Sb10  1  0.90560782  0.01787880  0.46641081  1
  Sb  Sb11  1  0.12081871  0.95270605  0.55918113  1
  Sb  Sb12  1  0.02885568  0.52213854  0.80807903  1
  Sb  Sb13  1  0.96908516  0.49605544  0.19178320  1
  Sb  Sb14  1  0.38931695  0.48698550  0.44505949  1
  Sb  Sb15  1  0.61842584  0.46587655  0.55843260  1
  Sb  Sb16  1  0.53932319  0.97928072  0.82006860  1
  Sb  Sb17  1  0.46261700  0.04402379  0.18381543  1
  S  S18  1  0.94348018  0.94458945  0.82083859  1
  S  S19  1  0.06844640  0.01126731  0.20601196  1
  S  S20  1  0.42981317  0.98372605  0.99365497  1
  S  S21  1  0.59793251  0.02549664  0.04037111  1
  S  S22  1  0.19284803  0.95406282  0.91295698  1
  S  S23  1  0.83382729  0.05670198  0.10905340  1
  S  S24  1  0.09911767  0.51603215  0.66804763  1
  S  S25  1  0.90612775  0.51569634  0.36489494  1
  S  S26  1  0.74471009  0.95348020  0.31619368  1
  S  S27  1  0.26339806  0.95657951  0.69058197  1
  S  S28  1  0.15029471  0.48210850  0.43360811  1
  S  S29  1  0.84141727  0.46396304  0.56292516  1
  S  S30  1  0.44855916  0.52796770  0.83453598  1
  S  S31  1  0.57626015  0.54508258  0.22117177  1
  S  S32  1  0.93075349  0.47990147  0.00330217  1
  S  S33  1  0.08746798  0.48388550  0.01218543  1
  S  S34  1  0.67629146  0.51672669  0.90364311  1
  S  S35  1  0.34317308  0.49728864  0.11216992  1
  S  S36  1  0.59248778  0.99318928  0.64303818  1
  S  S37  1  0.41806831  0.03114935  0.35668354  1
  S  S38  1  0.24018614  0.48880453  0.28713123  1
  S  S39  1  0.78288329  0.44220784  0.69737240  1
  S  S40  1  0.67680355  0.95618038  0.45142402  1
  S  S41  1  0.31877299  0.00156504  0.52981698  1
