# generated using pymatgen
data_Pr2Mn3(SbS3)4
_symmetry_space_group_name_H-M   'P 1'
_cell_length_a   20.02960800
_cell_length_b   3.90410600
_cell_length_c   14.95364829
_cell_angle_alpha   90.00000000
_cell_angle_beta   126.33350609
_cell_angle_gamma   90.00000000
_symmetry_Int_Tables_number   1
_chemical_formula_structural   Pr2Mn3(SbS3)4
_chemical_formula_sum   'Pr4 Mn6 Sb8 S24'
_cell_volume   942.00006694
_cell_formula_units_Z   2
loop_
 _symmetry_equiv_pos_site_id
 _symmetry_equiv_pos_as_xyz
  1  'x, y, z'
loop_
 _atom_site_type_symbol
 _atom_site_label
 _atom_site_symmetry_multiplicity
 _atom_site_fract_x
 _atom_site_fract_y
 _atom_site_fract_z
 _atom_site_occupancy
  Pr  Pr0  1  0.26156039  0.47187121  0.86503410  1
  Pr  Pr1  1  0.73180907  0.49778583  0.13405533  1
  Pr  Pr2  1  0.77785094  0.99600524  0.87373179  1
  Pr  Pr3  1  0.23056224  0.02512742  0.12903880  1
  Mn  Mn4  1  0.27892766  0.53896768  0.57177952  1
  Mn  Mn5  1  0.70992888  0.48401143  0.39146290  1
  Mn  Mn6  1  0.00149494  0.99802056  0.99675017  1
  Mn  Mn7  1  0.79938064  0.97253478  0.60481334  1
  Mn  Mn8  1  0.18215385  0.00040747  0.39915310  1
  Mn  Mn9  1  0.51970954  0.47145634  0.02709073  1
  Sb  Sb10  1  0.90567815  0.01795324  0.46634970  1
  Sb  Sb11  1  0.12072596  0.95237902  0.55896985  1
  Sb  Sb12  1  0.02902961  0.52191281  0.80841709  1
  Sb  Sb13  1  0.96915933  0.49557769  0.19179645  1
  Sb  Sb14  1  0.38935348  0.48674654  0.44527033  1
  Sb  Sb15  1  0.61836197  0.46550054  0.55832856  1
  Sb  Sb16  1  0.53938770  0.97949851  0.81999934  1
  Sb  Sb17  1  0.46270322  0.04337035  0.18376251  1
  S  S18  1  0.94353246  0.94376801  0.82061059  1
  S  S19  1  0.06835131  0.01230547  0.20626026  1
  S  S20  1  0.43003125  0.98434356  0.99409889  1
  S  S21  1  0.59805565  0.02449436  0.04061788  1
  S  S22  1  0.19253996  0.95549774  0.91227898  1
  S  S23  1  0.83397059  0.05633780  0.10936199  1
  S  S24  1  0.09857238  0.51585184  0.66786493  1
  S  S25  1  0.90635979  0.51322026  0.36460480  1
  S  S26  1  0.74471217  0.95433166  0.31608652  1
  S  S27  1  0.26334527  0.95681587  0.69073507  1
  S  S28  1  0.15006135  0.48202528  0.43317352  1
  S  S29  1  0.84134490  0.46233171  0.56271347  1
  S  S30  1  0.44886402  0.52920969  0.83474246  1
  S  S31  1  0.57682365  0.54528429  0.22188349  1
  S  S32  1  0.93051823  0.48129700  0.00296923  1
  S  S33  1  0.08725673  0.48289243  0.01187057  1
  S  S34  1  0.67627260  0.51781950  0.90402601  1
  S  S35  1  0.34325725  0.49667095  0.11213920  1
  S  S36  1  0.59208509  0.99376312  0.64289084  1
  S  S37  1  0.41830433  0.03305638  0.35726457  1
  S  S38  1  0.24036829  0.48813811  0.28760688  1
  S  S39  1  0.78309407  0.44121430  0.69729773  1
  S  S40  1  0.67686995  0.95541010  0.45100722  1
  S  S41  1  0.31859699  0.00221541  0.52953962  1
