# generated using pymatgen
data_Pr2Mn3(SbS3)4
_symmetry_space_group_name_H-M   'P 1'
_cell_length_a   20.02960800
_cell_length_b   3.90410600
_cell_length_c   14.95364829
_cell_angle_alpha   90.00000000
_cell_angle_beta   126.33350609
_cell_angle_gamma   90.00000000
_symmetry_Int_Tables_number   1
_chemical_formula_structural   Pr2Mn3(SbS3)4
_chemical_formula_sum   'Pr4 Mn6 Sb8 S24'
_cell_volume   942.00006694
_cell_formula_units_Z   2
loop_
 _symmetry_equiv_pos_site_id
 _symmetry_equiv_pos_as_xyz
  1  'x, y, z'
loop_
 _atom_site_type_symbol
 _atom_site_label
 _atom_site_symmetry_multiplicity
 _atom_site_fract_x
 _atom_site_fract_y
 _atom_site_fract_z
 _atom_site_occupancy
  Pr  Pr0  1  0.26150388  0.47251944  0.86506893  1
  Pr  Pr1  1  0.73199232  0.49822623  0.13425365  1
  Pr  Pr2  1  0.77783874  0.99592069  0.87360042  1
  Pr  Pr3  1  0.23059696  0.02498344  0.12903552  1
  Mn  Mn4  1  0.27901816  0.53967012  0.57181265  1
  Mn  Mn5  1  0.71003922  0.48492730  0.39135880  1
  Mn  Mn6  1  0.00150136  0.99815073  0.99683323  1
  Mn  Mn7  1  0.79930096  0.97200327  0.60477850  1
  Mn  Mn8  1  0.18216027  0.00045831  0.39950045  1
  Mn  Mn9  1  0.51969408  0.47169604  0.02680204  1
  Sb  Sb10  1  0.90573837  0.01795915  0.46635722  1
  Sb  Sb11  1  0.12057735  0.95227216  0.55870105  1
  Sb  Sb12  1  0.02919904  0.52192214  0.80873801  1
  Sb  Sb13  1  0.96917626  0.49518836  0.19179532  1
  Sb  Sb14  1  0.38943016  0.48656388  0.44549101  1
  Sb  Sb15  1  0.61829283  0.46495129  0.55826899  1
  Sb  Sb16  1  0.53948656  0.97964552  0.81999818  1
  Sb  Sb17  1  0.46281384  0.04253077  0.18363452  1
  S  S18  1  0.94352993  0.94274581  0.82039462  1
  S  S19  1  0.06827074  0.01327364  0.20639288  1
  S  S20  1  0.43011561  0.98473898  0.99434581  1
  S  S21  1  0.59811002  0.02370117  0.04058128  1
  S  S22  1  0.19217458  0.95632046  0.91151775  1
  S  S23  1  0.83400589  0.05577738  0.10951068  1
  S  S24  1  0.09809345  0.51545508  0.66769320  1
  S  S25  1  0.90639655  0.51146353  0.36424462  1
  S  S26  1  0.74482638  0.95521031  0.31616179  1
  S  S27  1  0.26323964  0.95743155  0.69082622  1
  S  S28  1  0.14986153  0.48123604  0.43285632  1
  S  S29  1  0.84119359  0.46110258  0.56230976  1
  S  S30  1  0.44918998  0.53052015  0.83509052  1
  S  S31  1  0.57728370  0.54549165  0.22241671  1
  S  S32  1  0.93014615  0.48242614  0.00260240  1
  S  S33  1  0.08718185  0.48250314  0.01182665  1
  S  S34  1  0.67622305  0.51913739  0.90426747  1
  S  S35  1  0.34324544  0.49621515  0.11203933  1
  S  S36  1  0.59177118  0.99430079  0.64297582  1
  S  S37  1  0.41834081  0.03473103  0.35762902  1
  S  S38  1  0.24051739  0.48833352  0.28808072  1
  S  S39  1  0.78319156  0.44064154  0.69715486  1
  S  S40  1  0.67688470  0.95492936  0.45046588  1
  S  S41  1  0.31846151  0.00268508  0.52925646  1
