# generated using pymatgen
data_Pr2Mn3(SbS3)4
_symmetry_space_group_name_H-M   'P 1'
_cell_length_a   20.02960800
_cell_length_b   3.90410600
_cell_length_c   14.95364829
_cell_angle_alpha   90.00000000
_cell_angle_beta   126.33350609
_cell_angle_gamma   90.00000000
_symmetry_Int_Tables_number   1
_chemical_formula_structural   Pr2Mn3(SbS3)4
_chemical_formula_sum   'Pr4 Mn6 Sb8 S24'
_cell_volume   942.00006694
_cell_formula_units_Z   2
loop_
 _symmetry_equiv_pos_site_id
 _symmetry_equiv_pos_as_xyz
  1  'x, y, z'
loop_
 _atom_site_type_symbol
 _atom_site_label
 _atom_site_symmetry_multiplicity
 _atom_site_fract_x
 _atom_site_fract_y
 _atom_site_fract_z
 _atom_site_occupancy
  Pr  Pr0  1  0.26143304  0.47331726  0.86506766  1
  Pr  Pr1  1  0.73223601  0.49840447  0.13458738  1
  Pr  Pr2  1  0.77786761  0.99588301  0.87350388  1
  Pr  Pr3  1  0.23063999  0.02465612  0.12906659  1
  Mn  Mn4  1  0.27914878  0.54006592  0.57183852  1
  Mn  Mn5  1  0.71003285  0.48540029  0.39106112  1
  Mn  Mn6  1  0.00157306  0.99791370  0.99701174  1
  Mn  Mn7  1  0.79924719  0.97134641  0.60495646  1
  Mn  Mn8  1  0.18216325  0.00024779  0.39992726  1
  Mn  Mn9  1  0.51960844  0.47134799  0.02653180  1
  Sb  Sb10  1  0.90581704  0.01845204  0.46636839  1
  Sb  Sb11  1  0.12044986  0.95188155  0.55841197  1
  Sb  Sb12  1  0.02928645  0.52168872  0.80896912  1
  Sb  Sb13  1  0.96926145  0.49493525  0.19182781  1
  Sb  Sb14  1  0.38945825  0.48617318  0.44561459  1
  Sb  Sb15  1  0.61829521  0.46494635  0.55824970  1
  Sb  Sb16  1  0.53955457  0.97964717  0.81997140  1
  Sb  Sb17  1  0.46287267  0.04167502  0.18339220  1
  S  S18  1  0.94349322  0.94170294  0.82000614  1
  S  S19  1  0.06834446  0.01452741  0.20673165  1
  S  S20  1  0.43007366  0.98489903  0.99450421  1
  S  S21  1  0.59818086  0.02295214  0.04065492  1
  S  S22  1  0.19164980  0.95672588  0.91086979  1
  S  S23  1  0.83408686  0.05567356  0.10989762  1
  S  S24  1  0.09772951  0.51489075  0.66756425  1
  S  S25  1  0.90623964  0.50931566  0.36383481  1
  S  S26  1  0.74479982  0.95617815  0.31613766  1
  S  S27  1  0.26297373  0.95805917  0.69093021  1
  S  S28  1  0.14966300  0.48019415  0.43266046  1
  S  S29  1  0.84109505  0.45959143  0.56200137  1
  S  S30  1  0.44964279  0.53208149  0.83522485  1
  S  S31  1  0.57767733  0.54494990  0.22300781  1
  S  S32  1  0.92972066  0.48334294  0.00204135  1
  S  S33  1  0.08707256  0.48228068  0.01159017  1
  S  S34  1  0.67623494  0.52011693  0.90437572  1
  S  S35  1  0.34329794  0.49566857  0.11182945  1
  S  S36  1  0.59145928  0.99481573  0.64304962  1
  S  S37  1  0.41837986  0.03603466  0.35794840  1
  S  S38  1  0.24053550  0.48792741  0.28855816  1
  S  S39  1  0.78326599  0.44069898  0.69696099  1
  S  S40  1  0.67700534  0.95419484  0.45004350  1
  S  S41  1  0.31832463  0.00365178  0.52889183  1
