# generated using pymatgen
data_Pr2Mn3(SbS3)4
_symmetry_space_group_name_H-M   'P 1'
_cell_length_a   20.02960800
_cell_length_b   3.90410600
_cell_length_c   14.95364829
_cell_angle_alpha   90.00000000
_cell_angle_beta   126.33350609
_cell_angle_gamma   90.00000000
_symmetry_Int_Tables_number   1
_chemical_formula_structural   Pr2Mn3(SbS3)4
_chemical_formula_sum   'Pr4 Mn6 Sb8 S24'
_cell_volume   942.00006694
_cell_formula_units_Z   2
loop_
 _symmetry_equiv_pos_site_id
 _symmetry_equiv_pos_as_xyz
  1  'x, y, z'
loop_
 _atom_site_type_symbol
 _atom_site_label
 _atom_site_symmetry_multiplicity
 _atom_site_fract_x
 _atom_site_fract_y
 _atom_site_fract_z
 _atom_site_occupancy
  Pr  Pr0  1  0.26136177  0.47387360  0.86509921  1
  Pr  Pr1  1  0.73250420  0.49855562  0.13494989  1
  Pr  Pr2  1  0.77787664  0.99559650  0.87340063  1
  Pr  Pr3  1  0.23076694  0.02456509  0.12920187  1
  Mn  Mn4  1  0.27934065  0.54091869  0.57189476  1
  Mn  Mn5  1  0.71000554  0.48584359  0.39091148  1
  Mn  Mn6  1  0.00163742  0.99813383  0.99719867  1
  Mn  Mn7  1  0.79911180  0.97094645  0.60498377  1
  Mn  Mn8  1  0.18226707  0.99971943  0.40045534  1
  Mn  Mn9  1  0.51961261  0.47122247  0.02648639  1
  Sb  Sb10  1  0.90593704  0.01859118  0.46646401  1
  Sb  Sb11  1  0.12026194  0.95137713  0.55804474  1
  Sb  Sb12  1  0.02935853  0.52126427  0.80908338  1
  Sb  Sb13  1  0.96932187  0.49499131  0.19185993  1
  Sb  Sb14  1  0.38943631  0.48552942  0.44575458  1
  Sb  Sb15  1  0.61832250  0.46487938  0.55832246  1
  Sb  Sb16  1  0.53959442  0.97936775  0.81998828  1
  Sb  Sb17  1  0.46297547  0.04089859  0.18324485  1
  S  S18  1  0.94333666  0.94036008  0.81967106  1
  S  S19  1  0.06814178  0.01518844  0.20700525  1
  S  S20  1  0.43008529  0.98513668  0.99471998  1
  S  S21  1  0.59838729  0.02200616  0.04092695  1
  S  S22  1  0.19115444  0.95657719  0.91014579  1
  S  S23  1  0.83406676  0.05575807  0.11019094  1
  S  S24  1  0.09739885  0.51486123  0.66752374  1
  S  S25  1  0.90608479  0.50768604  0.36359452  1
  S  S26  1  0.74486588  0.95652603  0.31618699  1
  S  S27  1  0.26258806  0.95819203  0.69082448  1
  S  S28  1  0.14954289  0.47940379  0.43241307  1
  S  S29  1  0.84105172  0.45815033  0.56179156  1
  S  S30  1  0.45028608  0.53356594  0.83547528  1
  S  S31  1  0.57802666  0.54408332  0.22388498  1
  S  S32  1  0.92929690  0.48460640  0.00145413  1
  S  S33  1  0.08688446  0.48247927  0.01120047  1
  S  S34  1  0.67626985  0.52130756  0.90444601  1
  S  S35  1  0.34326222  0.49560058  0.11149384  1
  S  S36  1  0.59125512  0.99548054  0.64311094  1
  S  S37  1  0.41850354  0.03721580  0.35837629  1
  S  S38  1  0.24041976  0.48746795  0.28882755  1
  S  S39  1  0.78336390  0.44049184  0.69675987  1
  S  S40  1  0.67714175  0.95384213  0.44987968  1
  S  S41  1  0.31816658  0.00424253  0.52854470  1
