# generated using pymatgen
data_Pr2Mn3(SbS3)4
_symmetry_space_group_name_H-M   'P 1'
_cell_length_a   20.02960800
_cell_length_b   3.90410600
_cell_length_c   14.95364829
_cell_angle_alpha   90.00000000
_cell_angle_beta   126.33350609
_cell_angle_gamma   90.00000000
_symmetry_Int_Tables_number   1
_chemical_formula_structural   Pr2Mn3(SbS3)4
_chemical_formula_sum   'Pr4 Mn6 Sb8 S24'
_cell_volume   942.00006694
_cell_formula_units_Z   2
loop_
 _symmetry_equiv_pos_site_id
 _symmetry_equiv_pos_as_xyz
  1  'x, y, z'
loop_
 _atom_site_type_symbol
 _atom_site_label
 _atom_site_symmetry_multiplicity
 _atom_site_fract_x
 _atom_site_fract_y
 _atom_site_fract_z
 _atom_site_occupancy
  Pr  Pr0  1  0.26124875  0.47441641  0.86508233  1
  Pr  Pr1  1  0.73277461  0.49896308  0.13532139  1
  Pr  Pr2  1  0.77794431  0.99557130  0.87335840  1
  Pr  Pr3  1  0.23084592  0.02469799  0.12928665  1
  Mn  Mn4  1  0.27951119  0.54157644  0.57199510  1
  Mn  Mn5  1  0.71000476  0.48571214  0.39080956  1
  Mn  Mn6  1  0.00158446  0.99847853  0.99723106  1
  Mn  Mn7  1  0.79905440  0.97065550  0.60509777  1
  Mn  Mn8  1  0.18224307  0.99983828  0.40077859  1
  Mn  Mn9  1  0.51956742  0.47075478  0.02654451  1
  Sb  Sb10  1  0.90600399  0.01886044  0.46654190  1
  Sb  Sb11  1  0.12009994  0.95126724  0.55767320  1
  Sb  Sb12  1  0.02931765  0.52102349  0.80907694  1
  Sb  Sb13  1  0.96932728  0.49502278  0.19184334  1
  Sb  Sb14  1  0.38948550  0.48493717  0.44595548  1
  Sb  Sb15  1  0.61834960  0.46502497  0.55835425  1
  Sb  Sb16  1  0.53955831  0.97910209  0.81992418  1
  Sb  Sb17  1  0.46306095  0.03989470  0.18306300  1
  S  S18  1  0.94316908  0.93970400  0.81930402  1
  S  S19  1  0.06799825  0.01541593  0.20737081  1
  S  S20  1  0.43000680  0.98593974  0.99470293  1
  S  S21  1  0.59867242  0.02154638  0.04102877  1
  S  S22  1  0.19066455  0.95658110  0.90958024  1
  S  S23  1  0.83409176  0.05520969  0.11057199  1
  S  S24  1  0.09719047  0.51550562  0.66739796  1
  S  S25  1  0.90602071  0.50564071  0.36333185  1
  S  S26  1  0.74491119  0.95715443  0.31622067  1
  S  S27  1  0.26220638  0.95800309  0.69083829  1
  S  S28  1  0.14959444  0.47918444  0.43240938  1
  S  S29  1  0.84095205  0.45720043  0.56167471  1
  S  S30  1  0.45100323  0.53450730  0.83601451  1
  S  S31  1  0.57828405  0.54394849  0.22459595  1
  S  S32  1  0.92890123  0.48602251  0.00090546  1
  S  S33  1  0.08672094  0.48178595  0.01089339  1
  S  S34  1  0.67633338  0.52231778  0.90450587  1
  S  S35  1  0.34337896  0.49546424  0.11127002  1
  S  S36  1  0.59113756  0.99574969  0.64311213  1
  S  S37  1  0.41864149  0.03864383  0.35876642  1
  S  S38  1  0.24028455  0.48714439  0.28911948  1
  S  S39  1  0.78354887  0.43965712  0.69663136  1
  S  S40  1  0.67711942  0.95359716  0.44970494  1
  S  S41  1  0.31813941  0.00561075  0.52821402  1
