# generated using pymatgen
data_Pr2Mn3(SbS3)4
_symmetry_space_group_name_H-M   'P 1'
_cell_length_a   20.02960800
_cell_length_b   3.90410600
_cell_length_c   14.95364829
_cell_angle_alpha   90.00000000
_cell_angle_beta   126.33350609
_cell_angle_gamma   90.00000000
_symmetry_Int_Tables_number   1
_chemical_formula_structural   Pr2Mn3(SbS3)4
_chemical_formula_sum   'Pr4 Mn6 Sb8 S24'
_cell_volume   942.00006694
_cell_formula_units_Z   2
loop_
 _symmetry_equiv_pos_site_id
 _symmetry_equiv_pos_as_xyz
  1  'x, y, z'
loop_
 _atom_site_type_symbol
 _atom_site_label
 _atom_site_symmetry_multiplicity
 _atom_site_fract_x
 _atom_site_fract_y
 _atom_site_fract_z
 _atom_site_occupancy
  Pr  Pr0  1  0.26120319  0.47518193  0.86507078  1
  Pr  Pr1  1  0.73302443  0.49948787  0.13566114  1
  Pr  Pr2  1  0.77799733  0.99549320  0.87342202  1
  Pr  Pr3  1  0.23091082  0.02497295  0.12929239  1
  Mn  Mn4  1  0.27968710  0.54277641  0.57212339  1
  Mn  Mn5  1  0.70998805  0.48510591  0.39056034  1
  Mn  Mn6  1  0.00140306  0.99941178  0.99712808  1
  Mn  Mn7  1  0.79905145  0.97032149  0.60528436  1
  Mn  Mn8  1  0.18222661  0.99958815  0.40128919  1
  Mn  Mn9  1  0.51966253  0.47040468  0.02669408  1
  Sb  Sb10  1  0.90611985  0.01924588  0.46673345  1
  Sb  Sb11  1  0.11988694  0.95107363  0.55729379  1
  Sb  Sb12  1  0.02932025  0.52041619  0.80915133  1
  Sb  Sb13  1  0.96937238  0.49484399  0.19186838  1
  Sb  Sb14  1  0.38951000  0.48445914  0.44620189  1
  Sb  Sb15  1  0.61838652  0.46510946  0.55850349  1
  Sb  Sb16  1  0.53949099  0.97885973  0.81978615  1
  Sb  Sb17  1  0.46315744  0.03911734  0.18289896  1
  S  S18  1  0.94309840  0.93928985  0.81926478  1
  S  S19  1  0.06769839  0.01574954  0.20759060  1
  S  S20  1  0.42995142  0.98675504  0.99494252  1
  S  S21  1  0.59872927  0.02203455  0.04104161  1
  S  S22  1  0.19028509  0.95636386  0.90897249  1
  S  S23  1  0.83429282  0.05464278  0.11120880  1
  S  S24  1  0.09708323  0.51617307  0.66743746  1
  S  S25  1  0.90597485  0.50368970  0.36308594  1
  S  S26  1  0.74491282  0.95729595  0.31616695  1
  S  S27  1  0.26206932  0.95787579  0.69111406  1
  S  S28  1  0.14957294  0.47937153  0.43239520  1
  S  S29  1  0.84073513  0.45617344  0.56157836  1
  S  S30  1  0.45172063  0.53576998  0.83669607  1
  S  S31  1  0.57850880  0.54388909  0.22509308  1
  S  S32  1  0.92855651  0.48765102  0.00040520  1
  S  S33  1  0.08657583  0.48160962  0.01071897  1
  S  S34  1  0.67648164  0.52314349  0.90472774  1
  S  S35  1  0.34357440  0.49523061  0.11116830  1
  S  S36  1  0.59106423  0.99550311  0.64326478  1
  S  S37  1  0.41879096  0.04102275  0.35929672  1
  S  S38  1  0.24013410  0.48640428  0.28933842  1
  S  S39  1  0.78368797  0.43857717  0.69642528  1
  S  S40  1  0.67708957  0.95336107  0.44969028  1
  S  S41  1  0.31809540  0.00690244  0.52792124  1
