# generated using pymatgen
data_Pr2Mn3(SbS3)4
_symmetry_space_group_name_H-M   'P 1'
_cell_length_a   20.02960800
_cell_length_b   3.90410600
_cell_length_c   14.95364829
_cell_angle_alpha   90.00000000
_cell_angle_beta   126.33350609
_cell_angle_gamma   90.00000000
_symmetry_Int_Tables_number   1
_chemical_formula_structural   Pr2Mn3(SbS3)4
_chemical_formula_sum   'Pr4 Mn6 Sb8 S24'
_cell_volume   942.00006694
_cell_formula_units_Z   2
loop_
 _symmetry_equiv_pos_site_id
 _symmetry_equiv_pos_as_xyz
  1  'x, y, z'
loop_
 _atom_site_type_symbol
 _atom_site_label
 _atom_site_symmetry_multiplicity
 _atom_site_fract_x
 _atom_site_fract_y
 _atom_site_fract_z
 _atom_site_occupancy
  Pr  Pr0  1  0.27004101  0.50722492  0.87222422  1
  Pr  Pr1  1  0.73455179  0.51850489  0.13546428  1
  Pr  Pr2  1  0.76452436  0.03332674  0.87077026  1
  Pr  Pr3  1  0.22860400  0.96496222  0.12832065  1
  Mn  Mn4  1  0.29923448  0.46434347  0.60957608  1
  Mn  Mn5  1  0.68655098  0.45484530  0.36593161  1
  Mn  Mn6  1  0.99901731  0.98165471  0.00706455  1
  Mn  Mn7  1  0.79037861  0.02653668  0.61362179  1
  Mn  Mn8  1  0.19795393  0.02439245  0.37058118  1
  Mn  Mn9  1  0.48015898  0.47105700  0.97976571  1
  Sb  Sb10  1  0.89059644  0.97187866  0.44790726  1
  Sb  Sb11  1  0.11320163  0.97752883  0.54779920  1
  Sb  Sb12  1  0.03870580  0.52345606  0.82688441  1
  Sb  Sb13  1  0.96853874  0.48518727  0.19261408  1
  Sb  Sb14  1  0.39851527  0.49314734  0.45419584  1
  Sb  Sb15  1  0.61275616  0.48363289  0.54765961  1
  Sb  Sb16  1  0.52921326  0.97221920  0.80498661  1
  Sb  Sb17  1  0.46525227  0.03117998  0.18501896  1
  S  S18  1  0.94011673  0.00370253  0.80528215  1
  S  S19  1  0.06613394  0.99509777  0.20090007  1
  S  S20  1  0.41784597  0.98329813  0.97456442  1
  S  S21  1  0.58559484  0.02290184  0.00904532  1
  S  S22  1  0.16176608  0.02435058  0.89567392  1
  S  S23  1  0.82674426  0.98005645  0.10137196  1
  S  S24  1  0.08807511  0.50083093  0.63551594  1
  S  S25  1  0.91540148  0.50155178  0.35462142  1
  S  S26  1  0.73492053  0.99844076  0.29702376  1
  S  S27  1  0.26281972  0.01580792  0.70396666  1
  S  S28  1  0.17160164  0.52113548  0.44134049  1
  S  S29  1  0.80688284  0.52222875  0.53792118  1
  S  S30  1  0.43342260  0.47244118  0.79994678  1
  S  S31  1  0.55464160  0.49428444  0.17852904  1
  S  S32  1  0.92149608  0.51877884  0.98729892  1
  S  S33  1  0.08575058  0.49889592  0.02206234  1
  S  S34  1  0.66844935  0.55999053  0.89404517  1
  S  S35  1  0.32931107  0.46285015  0.10190282  1
  S  S36  1  0.58849557  0.99966255  0.64326106  1
  S  S37  1  0.39171006  0.99425907  0.33072128  1
  S  S38  1  0.24683427  0.46495635  0.31754410  1
  S  S39  1  0.76380998  0.49095737  0.69334962  1
  S  S40  1  0.65801777  0.98773237  0.43401075  1
  S  S41  1  0.32991139  0.98627747  0.55476862  1
