# generated using pymatgen
data_Pr2Mn3(SbS3)4
_symmetry_space_group_name_H-M   'P 1'
_cell_length_a   20.02960800
_cell_length_b   3.90410600
_cell_length_c   14.95364829
_cell_angle_alpha   90.00000000
_cell_angle_beta   126.33350609
_cell_angle_gamma   90.00000000
_symmetry_Int_Tables_number   1
_chemical_formula_structural   Pr2Mn3(SbS3)4
_chemical_formula_sum   'Pr4 Mn6 Sb8 S24'
_cell_volume   942.00006694
_cell_formula_units_Z   2
loop_
 _symmetry_equiv_pos_site_id
 _symmetry_equiv_pos_as_xyz
  1  'x, y, z'
loop_
 _atom_site_type_symbol
 _atom_site_label
 _atom_site_symmetry_multiplicity
 _atom_site_fract_x
 _atom_site_fract_y
 _atom_site_fract_z
 _atom_site_occupancy
  Pr  Pr0  1  0.26118156  0.47592172  0.86507753  1
  Pr  Pr1  1  0.73322747  0.50011204  0.13597231  1
  Pr  Pr2  1  0.77808751  0.99517404  0.87353393  1
  Pr  Pr3  1  0.23098617  0.02509768  0.12923015  1
  Mn  Mn4  1  0.27972589  0.54366693  0.57209417  1
  Mn  Mn5  1  0.71006338  0.48479774  0.39031817  1
  Mn  Mn6  1  0.00130541  0.00003027  0.99698531  1
  Mn  Mn7  1  0.79902090  0.96946489  0.60542841  1
  Mn  Mn8  1  0.18205493  0.99907262  0.40171017  1
  Mn  Mn9  1  0.51987690  0.47002474  0.02699317  1
  Sb  Sb10  1  0.90622804  0.01957730  0.46687364  1
  Sb  Sb11  1  0.11967098  0.95077683  0.55681642  1
  Sb  Sb12  1  0.02927549  0.51997868  0.80919200  1
  Sb  Sb13  1  0.96941601  0.49467880  0.19195284  1
  Sb  Sb14  1  0.38957530  0.48402308  0.44646337  1
  Sb  Sb15  1  0.61844930  0.46515171  0.55869093  1
  Sb  Sb16  1  0.53941326  0.97847984  0.81962537  1
  Sb  Sb17  1  0.46333718  0.03844120  0.18285042  1
  S  S18  1  0.94305659  0.93852851  0.81929940  1
  S  S19  1  0.06756407  0.01637889  0.20797992  1
  S  S20  1  0.42981779  0.98700684  0.99495206  1
  S  S21  1  0.59878636  0.02245553  0.04104439  1
  S  S22  1  0.18987365  0.95682335  0.90854479  1
  S  S23  1  0.83461316  0.05379969  0.11185672  1
  S  S24  1  0.09688216  0.51635292  0.66737032  1
  S  S25  1  0.90601482  0.50187903  0.36282829  1
  S  S26  1  0.74480584  0.95724249  0.31620544  1
  S  S27  1  0.26205312  0.95803015  0.69142912  1
  S  S28  1  0.14970296  0.47925086  0.43258161  1
  S  S29  1  0.84062358  0.45498778  0.56157997  1
  S  S30  1  0.45238989  0.53709543  0.83726569  1
  S  S31  1  0.57887341  0.54377283  0.22580505  1
  S  S32  1  0.92826885  0.48964612  0.00003903  1
  S  S33  1  0.08625157  0.48135606  0.01035605  1
  S  S34  1  0.67666768  0.52415456  0.90487226  1
  S  S35  1  0.34359566  0.49527521  0.11094616  1
  S  S36  1  0.59091078  0.99560616  0.64340660  1
  S  S37  1  0.41892523  0.04323400  0.35975232  1
  S  S38  1  0.24017795  0.48577303  0.28969739  1
  S  S39  1  0.78377755  0.43787885  0.69611511  1
  S  S40  1  0.67701949  0.95334174  0.44965494  1
  S  S41  1  0.31796878  0.00850824  0.52757981  1
