# generated using pymatgen
data_Pr2Mn3(SbS3)4
_symmetry_space_group_name_H-M   'P 1'
_cell_length_a   20.02960800
_cell_length_b   3.90410600
_cell_length_c   14.95364829
_cell_angle_alpha   90.00000000
_cell_angle_beta   126.33350609
_cell_angle_gamma   90.00000000
_symmetry_Int_Tables_number   1
_chemical_formula_structural   Pr2Mn3(SbS3)4
_chemical_formula_sum   'Pr4 Mn6 Sb8 S24'
_cell_volume   942.00006694
_cell_formula_units_Z   2
loop_
 _symmetry_equiv_pos_site_id
 _symmetry_equiv_pos_as_xyz
  1  'x, y, z'
loop_
 _atom_site_type_symbol
 _atom_site_label
 _atom_site_symmetry_multiplicity
 _atom_site_fract_x
 _atom_site_fract_y
 _atom_site_fract_z
 _atom_site_occupancy
  Pr  Pr0  1  0.26113552  0.47640226  0.86519168  1
  Pr  Pr1  1  0.73337246  0.50056162  0.13618111  1
  Pr  Pr2  1  0.77812175  0.99497031  0.87358003  1
  Pr  Pr3  1  0.23104607  0.02511383  0.12915733  1
  Mn  Mn4  1  0.27984927  0.54482492  0.57216007  1
  Mn  Mn5  1  0.71027154  0.48461303  0.39024820  1
  Mn  Mn6  1  0.00118331  0.00018100  0.99680321  1
  Mn  Mn7  1  0.79901028  0.96821618  0.60561241  1
  Mn  Mn8  1  0.18197849  0.99835171  0.40220224  1
  Mn  Mn9  1  0.52008406  0.46943425  0.02728881  1
  Sb  Sb10  1  0.90626593  0.01961636  0.46701474  1
  Sb  Sb11  1  0.11946899  0.95040409  0.55642746  1
  Sb  Sb12  1  0.02921150  0.51970823  0.80925549  1
  Sb  Sb13  1  0.96948769  0.49465448  0.19212279  1
  Sb  Sb14  1  0.38969835  0.48393561  0.44683654  1
  Sb  Sb15  1  0.61850653  0.46522015  0.55885598  1
  Sb  Sb16  1  0.53920403  0.97792724  0.81936162  1
  Sb  Sb17  1  0.46354974  0.03803697  0.18287804  1
  S  S18  1  0.94302065  0.93899896  0.81916915  1
  S  S19  1  0.06758001  0.01742144  0.20851239  1
  S  S20  1  0.42971346  0.98715585  0.99473330  1
  S  S21  1  0.59875257  0.02259518  0.04104393  1
  S  S22  1  0.18939824  0.95743675  0.90795907  1
  S  S23  1  0.83491836  0.05299065  0.11241360  1
  S  S24  1  0.09670599  0.51646917  0.66726721  1
  S  S25  1  0.90591122  0.49997183  0.36226479  1
  S  S26  1  0.74474689  0.95803118  0.31638146  1
  S  S27  1  0.26207646  0.95800195  0.69191867  1
  S  S28  1  0.14987490  0.47997741  0.43283008  1
  S  S29  1  0.84053360  0.45477206  0.56166520  1
  S  S30  1  0.45297757  0.53845629  0.83769042  1
  S  S31  1  0.57920161  0.54440588  0.22629005  1
  S  S32  1  0.92808828  0.49151064  0.99954944  1
  S  S33  1  0.08596367  0.48191791  0.01008032  1
  S  S34  1  0.67688078  0.52468619  0.90495047  1
  S  S35  1  0.34363733  0.49537015  0.11082011  1
  S  S36  1  0.59077655  0.99575937  0.64358165  1
  S  S37  1  0.41911806  0.04524567  0.36012651  1
  S  S38  1  0.24022325  0.48553880  0.29004682  1
  S  S39  1  0.78371000  0.43771862  0.69577756  1
  S  S40  1  0.67697539  0.95416557  0.44979712  1
  S  S41  1  0.31788649  0.01030030  0.52724275  1
