# generated using pymatgen
data_Pr2Mn3(SbS3)4
_symmetry_space_group_name_H-M   'P 1'
_cell_length_a   20.02960800
_cell_length_b   3.90410600
_cell_length_c   14.95364829
_cell_angle_alpha   90.00000000
_cell_angle_beta   126.33350609
_cell_angle_gamma   90.00000000
_symmetry_Int_Tables_number   1
_chemical_formula_structural   Pr2Mn3(SbS3)4
_chemical_formula_sum   'Pr4 Mn6 Sb8 S24'
_cell_volume   942.00006694
_cell_formula_units_Z   2
loop_
 _symmetry_equiv_pos_site_id
 _symmetry_equiv_pos_as_xyz
  1  'x, y, z'
loop_
 _atom_site_type_symbol
 _atom_site_label
 _atom_site_symmetry_multiplicity
 _atom_site_fract_x
 _atom_site_fract_y
 _atom_site_fract_z
 _atom_site_occupancy
  Pr  Pr0  1  0.26114053  0.47685240  0.86532634  1
  Pr  Pr1  1  0.73353381  0.50110851  0.13640747  1
  Pr  Pr2  1  0.77814071  0.99492194  0.87362267  1
  Pr  Pr3  1  0.23109786  0.02517447  0.12910862  1
  Mn  Mn4  1  0.28004692  0.54500962  0.57221158  1
  Mn  Mn5  1  0.71045736  0.48391159  0.39018903  1
  Mn  Mn6  1  0.00106542  0.00045709  0.99666106  1
  Mn  Mn7  1  0.79900281  0.96673660  0.60586341  1
  Mn  Mn8  1  0.18200022  0.99797099  0.40270599  1
  Mn  Mn9  1  0.52018855  0.46864400  0.02756882  1
  Sb  Sb10  1  0.90628663  0.01993492  0.46707955  1
  Sb  Sb11  1  0.11930639  0.94989163  0.55605615  1
  Sb  Sb12  1  0.02910174  0.51962037  0.80928300  1
  Sb  Sb13  1  0.96964753  0.49483701  0.19241723  1
  Sb  Sb14  1  0.38977525  0.48357477  0.44718749  1
  Sb  Sb15  1  0.61860938  0.46557414  0.55905528  1
  Sb  Sb16  1  0.53900914  0.97758404  0.81906803  1
  Sb  Sb17  1  0.46372998  0.03773999  0.18292044  1
  S  S18  1  0.94309545  0.93966142  0.81924687  1
  S  S19  1  0.06759723  0.01817363  0.20911599  1
  S  S20  1  0.42969758  0.98761118  0.99464372  1
  S  S21  1  0.59889499  0.02340718  0.04132985  1
  S  S22  1  0.18884118  0.95757346  0.90742019  1
  S  S23  1  0.83524748  0.05205090  0.11292533  1
  S  S24  1  0.09655267  0.51614688  0.66723384  1
  S  S25  1  0.90571292  0.49823220  0.36169403  1
  S  S26  1  0.74475628  0.95899965  0.31671935  1
  S  S27  1  0.26214582  0.95784754  0.69231208  1
  S  S28  1  0.15006240  0.48064675  0.43317343  1
  S  S29  1  0.84050465  0.45531700  0.56161554  1
  S  S30  1  0.45367308  0.53928135  0.83814875  1
  S  S31  1  0.57953121  0.54548923  0.22665577  1
  S  S32  1  0.92793841  0.49303244  0.99901304  1
  S  S33  1  0.08571795  0.48250575  0.00983485  1
  S  S34  1  0.67699728  0.52612886  0.90505225  1
  S  S35  1  0.34381823  0.49506306  0.11080877  1
  S  S36  1  0.59044331  0.99565168  0.64350550  1
  S  S37  1  0.41931531  0.04691351  0.36067607  1
  S  S38  1  0.24020780  0.48550312  0.29033536  1
  S  S39  1  0.78381506  0.43782083  0.69564898  1
  S  S40  1  0.67696316  0.95525300  0.44997750  1
  S  S41  1  0.31779447  0.01187387  0.52696903  1
