# generated using pymatgen
data_Pr2Mn3(SbS3)4
_symmetry_space_group_name_H-M   'P 1'
_cell_length_a   20.02960800
_cell_length_b   3.90410600
_cell_length_c   14.95364829
_cell_angle_alpha   90.00000000
_cell_angle_beta   126.33350609
_cell_angle_gamma   90.00000000
_symmetry_Int_Tables_number   1
_chemical_formula_structural   Pr2Mn3(SbS3)4
_chemical_formula_sum   'Pr4 Mn6 Sb8 S24'
_cell_volume   942.00006694
_cell_formula_units_Z   2
loop_
 _symmetry_equiv_pos_site_id
 _symmetry_equiv_pos_as_xyz
  1  'x, y, z'
loop_
 _atom_site_type_symbol
 _atom_site_label
 _atom_site_symmetry_multiplicity
 _atom_site_fract_x
 _atom_site_fract_y
 _atom_site_fract_z
 _atom_site_occupancy
  Pr  Pr0  1  0.26122288  0.47739659  0.86554777  1
  Pr  Pr1  1  0.73367682  0.50134744  0.13669308  1
  Pr  Pr2  1  0.77823244  0.99448496  0.87368145  1
  Pr  Pr3  1  0.23119254  0.02549032  0.12909414  1
  Mn  Mn4  1  0.28015169  0.54498616  0.57215829  1
  Mn  Mn5  1  0.71067005  0.48299931  0.39011246  1
  Mn  Mn6  1  0.00078518  0.00040536  0.99633179  1
  Mn  Mn7  1  0.79899939  0.96532818  0.60623040  1
  Mn  Mn8  1  0.18205258  0.99746529  0.40313580  1
  Mn  Mn9  1  0.52022885  0.46800514  0.02775468  1
  Sb  Sb10  1  0.90632570  0.02039934  0.46718029  1
  Sb  Sb11  1  0.11917209  0.94983394  0.55571032  1
  Sb  Sb12  1  0.02898474  0.51993176  0.80928935  1
  Sb  Sb13  1  0.96981174  0.49468245  0.19260504  1
  Sb  Sb14  1  0.38986485  0.48324268  0.44745494  1
  Sb  Sb15  1  0.61872523  0.46599010  0.55922916  1
  Sb  Sb16  1  0.53886354  0.97741721  0.81879755  1
  Sb  Sb17  1  0.46391246  0.03757548  0.18301548  1
  S  S18  1  0.94309966  0.94029880  0.81905451  1
  S  S19  1  0.06767090  0.01845914  0.20973908  1
  S  S20  1  0.42965805  0.98857275  0.99461734  1
  S  S21  1  0.59900562  0.02370621  0.04144433  1
  S  S22  1  0.18839761  0.95763176  0.90712951  1
  S  S23  1  0.83525961  0.05082577  0.11328140  1
  S  S24  1  0.09651736  0.51584222  0.66722137  1
  S  S25  1  0.90545778  0.49607988  0.36122920  1
  S  S26  1  0.74474079  0.95952599  0.31704881  1
  S  S27  1  0.26222437  0.95792355  0.69280316  1
  S  S28  1  0.15008677  0.48104901  0.43347049  1
  S  S29  1  0.84050663  0.45557460  0.56157161  1
  S  S30  1  0.45447797  0.54034141  0.83863507  1
  S  S31  1  0.57952171  0.54662384  0.22677954  1
  S  S32  1  0.92796297  0.49424526  0.99862976  1
  S  S33  1  0.08546658  0.48352081  0.00955045  1
  S  S34  1  0.67701858  0.52726415  0.90518932  1
  S  S35  1  0.34402424  0.49588433  0.11086791  1
  S  S36  1  0.59012500  0.99604299  0.64344200  1
  S  S37  1  0.41949563  0.04892673  0.36120858  1
  S  S38  1  0.24017493  0.48588141  0.29044792  1
  S  S39  1  0.78382698  0.43758924  0.69547662  1
  S  S40  1  0.67698879  0.95628013  0.45021686  1
  S  S41  1  0.31766583  0.01346721  0.52658968  1
