# generated using pymatgen
data_Pr2Mn3(SbS3)4
_symmetry_space_group_name_H-M   'P 1'
_cell_length_a   20.02960800
_cell_length_b   3.90410600
_cell_length_c   14.95364829
_cell_angle_alpha   90.00000000
_cell_angle_beta   126.33350609
_cell_angle_gamma   90.00000000
_symmetry_Int_Tables_number   1
_chemical_formula_structural   Pr2Mn3(SbS3)4
_chemical_formula_sum   'Pr4 Mn6 Sb8 S24'
_cell_volume   942.00006694
_cell_formula_units_Z   2
loop_
 _symmetry_equiv_pos_site_id
 _symmetry_equiv_pos_as_xyz
  1  'x, y, z'
loop_
 _atom_site_type_symbol
 _atom_site_label
 _atom_site_symmetry_multiplicity
 _atom_site_fract_x
 _atom_site_fract_y
 _atom_site_fract_z
 _atom_site_occupancy
  Pr  Pr0  1  0.26137988  0.47778012  0.86589145  1
  Pr  Pr1  1  0.73388142  0.50147627  0.13701767  1
  Pr  Pr2  1  0.77828639  0.99376716  0.87372500  1
  Pr  Pr3  1  0.23122299  0.02580210  0.12900890  1
  Mn  Mn4  1  0.28048950  0.54475685  0.57236051  1
  Mn  Mn5  1  0.71080632  0.48217085  0.38998666  1
  Mn  Mn6  1  0.00052724  0.00086345  0.99590914  1
  Mn  Mn7  1  0.79906468  0.96404937  0.60673603  1
  Mn  Mn8  1  0.18210830  0.99696261  0.40350094  1
  Mn  Mn9  1  0.52036235  0.46702982  0.02800170  1
  Sb  Sb10  1  0.90626583  0.02086937  0.46714918  1
  Sb  Sb11  1  0.11903699  0.94973193  0.55538111  1
  Sb  Sb12  1  0.02896425  0.51993830  0.80930743  1
  Sb  Sb13  1  0.96995783  0.49451940  0.19273462  1
  Sb  Sb14  1  0.38997692  0.48322617  0.44755621  1
  Sb  Sb15  1  0.61883869  0.46673913  0.55942281  1
  Sb  Sb16  1  0.53879827  0.97710429  0.81861262  1
  Sb  Sb17  1  0.46414092  0.03729344  0.18315339  1
  S  S18  1  0.94298409  0.94074158  0.81877923  1
  S  S19  1  0.06767149  0.01913945  0.21012255  1
  S  S20  1  0.42967469  0.98986545  0.99468967  1
  S  S21  1  0.59904242  0.02467956  0.04146715  1
  S  S22  1  0.18799284  0.95749557  0.90680016  1
  S  S23  1  0.83515909  0.04952474  0.11362625  1
  S  S24  1  0.09646408  0.51548826  0.66709419  1
  S  S25  1  0.90512619  0.49386186  0.36048900  1
  S  S26  1  0.74474078  0.96015213  0.31740449  1
  S  S27  1  0.26230417  0.95869129  0.69307113  1
  S  S28  1  0.15006297  0.48106480  0.43371710  1
  S  S29  1  0.84060761  0.45648384  0.56141325  1
  S  S30  1  0.45519869  0.54140426  0.83892036  1
  S  S31  1  0.57943281  0.54809484  0.22685194  1
  S  S32  1  0.92800668  0.49481227  0.99827315  1
  S  S33  1  0.08532546  0.48396362  0.00916235  1
  S  S34  1  0.67697224  0.52865485  0.90504440  1
  S  S35  1  0.34399283  0.49707962  0.11070282  1
  S  S36  1  0.58982860  0.99718618  0.64334482  1
  S  S37  1  0.41960478  0.05110940  0.36169736  1
  S  S38  1  0.24016795  0.48585683  0.29046901  1
  S  S39  1  0.78371315  0.43741606  0.69512861  1
  S  S40  1  0.67699147  0.95783853  0.45037669  1
  S  S41  1  0.31762490  0.01445171  0.52629458  1
