# generated using pymatgen
data_Pr2Mn3(SbS3)4
_symmetry_space_group_name_H-M   'P 1'
_cell_length_a   20.02960800
_cell_length_b   3.90410600
_cell_length_c   14.95364829
_cell_angle_alpha   90.00000000
_cell_angle_beta   126.33350609
_cell_angle_gamma   90.00000000
_symmetry_Int_Tables_number   1
_chemical_formula_structural   Pr2Mn3(SbS3)4
_chemical_formula_sum   'Pr4 Mn6 Sb8 S24'
_cell_volume   942.00006694
_cell_formula_units_Z   2
loop_
 _symmetry_equiv_pos_site_id
 _symmetry_equiv_pos_as_xyz
  1  'x, y, z'
loop_
 _atom_site_type_symbol
 _atom_site_label
 _atom_site_symmetry_multiplicity
 _atom_site_fract_x
 _atom_site_fract_y
 _atom_site_fract_z
 _atom_site_occupancy
  Pr  Pr0  1  0.26152340  0.47837776  0.86617384  1
  Pr  Pr1  1  0.73401250  0.50184351  0.13734968  1
  Pr  Pr2  1  0.77833160  0.99289185  0.87370463  1
  Pr  Pr3  1  0.23123512  0.02593773  0.12884198  1
  Mn  Mn4  1  0.28068238  0.54439328  0.57232483  1
  Mn  Mn5  1  0.71094738  0.48178006  0.38985299  1
  Mn  Mn6  1  0.00031026  0.00123645  0.99557795  1
  Mn  Mn7  1  0.79910816  0.96261328  0.60722493  1
  Mn  Mn8  1  0.18219194  0.99642142  0.40388091  1
  Mn  Mn9  1  0.52044344  0.46661276  0.02812258  1
  Sb  Sb10  1  0.90624860  0.02134921  0.46718202  1
  Sb  Sb11  1  0.11888094  0.94987264  0.55512531  1
  Sb  Sb12  1  0.02897398  0.52019088  0.80929014  1
  Sb  Sb13  1  0.97011028  0.49438173  0.19291985  1
  Sb  Sb14  1  0.39007533  0.48329195  0.44760358  1
  Sb  Sb15  1  0.61897287  0.46724375  0.55958873  1
  Sb  Sb16  1  0.53873224  0.97706185  0.81841390  1
  Sb  Sb17  1  0.46439447  0.03718372  0.18322622  1
  S  S18  1  0.94291084  0.94080846  0.81854658  1
  S  S19  1  0.06779213  0.01974749  0.21050461  1
  S  S20  1  0.42960655  0.99145558  0.99483353  1
  S  S21  1  0.59912074  0.02627378  0.04149723  1
  S  S22  1  0.18771500  0.95750670  0.90675598  1
  S  S23  1  0.83500881  0.04801332  0.11365879  1
  S  S24  1  0.09635308  0.51476165  0.66694135  1
  S  S25  1  0.90482304  0.49161195  0.35996464  1
  S  S26  1  0.74467993  0.96094433  0.31746344  1
  S  S27  1  0.26248491  0.95952232  0.69343717  1
  S  S28  1  0.14995853  0.48108678  0.43389707  1
  S  S29  1  0.84072390  0.45713559  0.56123419  1
  S  S30  1  0.45586779  0.54259703  0.83905283  1
  S  S31  1  0.57944703  0.54870265  0.22688314  1
  S  S32  1  0.92807850  0.49518685  0.99787133  1
  S  S33  1  0.08533459  0.48463209  0.00913405  1
  S  S34  1  0.67696666  0.52996927  0.90494681  1
  S  S35  1  0.34388715  0.49746033  0.11041223  1
  S  S36  1  0.58962616  0.99829339  0.64346773  1
  S  S37  1  0.41953476  0.05273125  0.36176378  1
  S  S38  1  0.24015364  0.48531339  0.29039276  1
  S  S39  1  0.78360115  0.43777268  0.69487815  1
  S  S40  1  0.67715127  0.95936548  0.45074062  1
  S  S41  1  0.31759352  0.01563231  0.52609997  1
