# generated using pymatgen
data_Pr2Mn3(SbS3)4
_symmetry_space_group_name_H-M   'P 1'
_cell_length_a   20.02960800
_cell_length_b   3.90410600
_cell_length_c   14.95364829
_cell_angle_alpha   90.00000000
_cell_angle_beta   126.33350609
_cell_angle_gamma   90.00000000
_symmetry_Int_Tables_number   1
_chemical_formula_structural   Pr2Mn3(SbS3)4
_chemical_formula_sum   'Pr4 Mn6 Sb8 S24'
_cell_volume   942.00006694
_cell_formula_units_Z   2
loop_
 _symmetry_equiv_pos_site_id
 _symmetry_equiv_pos_as_xyz
  1  'x, y, z'
loop_
 _atom_site_type_symbol
 _atom_site_label
 _atom_site_symmetry_multiplicity
 _atom_site_fract_x
 _atom_site_fract_y
 _atom_site_fract_z
 _atom_site_occupancy
  Pr  Pr0  1  0.26162717  0.47879797  0.86642362  1
  Pr  Pr1  1  0.73409867  0.50205257  0.13757506  1
  Pr  Pr2  1  0.77837601  0.99211805  0.87375481  1
  Pr  Pr3  1  0.23125250  0.02611730  0.12871795  1
  Mn  Mn4  1  0.28085392  0.54410686  0.57221810  1
  Mn  Mn5  1  0.71110956  0.48142643  0.38965685  1
  Mn  Mn6  1  0.00018263  0.00165223  0.99538930  1
  Mn  Mn7  1  0.79915523  0.96137700  0.60751687  1
  Mn  Mn8  1  0.18230677  0.99588435  0.40427047  1
  Mn  Mn9  1  0.52045405  0.46603487  0.02827711  1
  Sb  Sb10  1  0.90621187  0.02190048  0.46719044  1
  Sb  Sb11  1  0.11871148  0.95027648  0.55486250  1
  Sb  Sb12  1  0.02898225  0.52064851  0.80927958  1
  Sb  Sb13  1  0.97024768  0.49414490  0.19306712  1
  Sb  Sb14  1  0.39004255  0.48327334  0.44757801  1
  Sb  Sb15  1  0.61910554  0.46770547  0.55969560  1
  Sb  Sb16  1  0.53862357  0.97698413  0.81818185  1
  Sb  Sb17  1  0.46456824  0.03679683  0.18331476  1
  S  S18  1  0.94287789  0.94130689  0.81829697  1
  S  S19  1  0.06793532  0.01976717  0.21085657  1
  S  S20  1  0.42953425  0.99277425  0.99484731  1
  S  S21  1  0.59923600  0.02701713  0.04164322  1
  S  S22  1  0.18735083  0.95749581  0.90690132  1
  S  S23  1  0.83486838  0.04677746  0.11391760  1
  S  S24  1  0.09625700  0.51452814  0.66668168  1
  S  S25  1  0.90453202  0.48946261  0.35963075  1
  S  S26  1  0.74461045  0.96145297  0.31760346  1
  S  S27  1  0.26257398  0.96055341  0.69372003  1
  S  S28  1  0.14977663  0.48078853  0.43398605  1
  S  S29  1  0.84088146  0.45761584  0.56118772  1
  S  S30  1  0.45636406  0.54413370  0.83918208  1
  S  S31  1  0.57946530  0.54939294  0.22709063  1
  S  S32  1  0.92820996  0.49596118  0.99750632  1
  S  S33  1  0.08526658  0.48521698  0.00910996  1
  S  S34  1  0.67691178  0.53151971  0.90465070  1
  S  S35  1  0.34377753  0.49753379  0.11031922  1
  S  S36  1  0.58944236  0.99921277  0.64361859  1
  S  S37  1  0.41959206  0.05392393  0.36188293  1
  S  S38  1  0.24013348  0.48507378  0.29031803  1
  S  S39  1  0.78349589  0.43751811  0.69473589  1
  S  S40  1  0.67706307  0.96098106  0.45082728  1
  S  S41  1  0.31748980  0.01674017  0.52588141  1
