# generated using pymatgen
data_Pr2Mn3(SbS3)4
_symmetry_space_group_name_H-M   'P 1'
_cell_length_a   20.02960800
_cell_length_b   3.90410600
_cell_length_c   14.95364829
_cell_angle_alpha   90.00000000
_cell_angle_beta   126.33350609
_cell_angle_gamma   90.00000000
_symmetry_Int_Tables_number   1
_chemical_formula_structural   Pr2Mn3(SbS3)4
_chemical_formula_sum   'Pr4 Mn6 Sb8 S24'
_cell_volume   942.00006694
_cell_formula_units_Z   2
loop_
 _symmetry_equiv_pos_site_id
 _symmetry_equiv_pos_as_xyz
  1  'x, y, z'
loop_
 _atom_site_type_symbol
 _atom_site_label
 _atom_site_symmetry_multiplicity
 _atom_site_fract_x
 _atom_site_fract_y
 _atom_site_fract_z
 _atom_site_occupancy
  Pr  Pr0  1  0.26164348  0.47930976  0.86660004  1
  Pr  Pr1  1  0.73418603  0.50219870  0.13780446  1
  Pr  Pr2  1  0.77844453  0.99145966  0.87392609  1
  Pr  Pr3  1  0.23130443  0.02620154  0.12856730  1
  Mn  Mn4  1  0.28093447  0.54420751  0.57187549  1
  Mn  Mn5  1  0.71137051  0.48122498  0.38953884  1
  Mn  Mn6  1  0.00009275  0.00210598  0.99521410  1
  Mn  Mn7  1  0.79922493  0.96027944  0.60783539  1
  Mn  Mn8  1  0.18252574  0.99561014  0.40480943  1
  Mn  Mn9  1  0.52032992  0.46535250  0.02836362  1
  Sb  Sb10  1  0.90615165  0.02242942  0.46719064  1
  Sb  Sb11  1  0.11861148  0.95050091  0.55464593  1
  Sb  Sb12  1  0.02895613  0.52113874  0.80921425  1
  Sb  Sb13  1  0.97037462  0.49362151  0.19315945  1
  Sb  Sb14  1  0.39008668  0.48355710  0.44769612  1
  Sb  Sb15  1  0.61928624  0.46837447  0.55979934  1
  Sb  Sb16  1  0.53855770  0.97655483  0.81800525  1
  Sb  Sb17  1  0.46469851  0.03636414  0.18338966  1
  S  S18  1  0.94286763  0.94165701  0.81806835  1
  S  S19  1  0.06800892  0.01965497  0.21101123  1
  S  S20  1  0.42946599  0.99370971  0.99486952  1
  S  S21  1  0.59952518  0.02818760  0.04192404  1
  S  S22  1  0.18703953  0.95788061  0.90703413  1
  S  S23  1  0.83471024  0.04521345  0.11421966  1
  S  S24  1  0.09610260  0.51398759  0.66640229  1
  S  S25  1  0.90448503  0.48706660  0.35973209  1
  S  S26  1  0.74450094  0.96176351  0.31769081  1
  S  S27  1  0.26284430  0.96101821  0.69409732  1
  S  S28  1  0.14960557  0.48058691  0.43405603  1
  S  S29  1  0.84096575  0.45773622  0.56082119  1
  S  S30  1  0.45674267  0.54599171  0.83926713  1
  S  S31  1  0.57967176  0.55025090  0.22747680  1
  S  S32  1  0.92839416  0.49643307  0.99728314  1
  S  S33  1  0.08512558  0.48574579  0.00894641  1
  S  S34  1  0.67675096  0.53256354  0.90444470  1
  S  S35  1  0.34358264  0.49781447  0.11007894  1
  S  S36  1  0.58940485  0.00037390  0.64382977  1
  S  S37  1  0.41966470  0.05465015  0.36201388  1
  S  S38  1  0.24014161  0.48474256  0.29005614  1
  S  S39  1  0.78347377  0.43698506  0.69484023  1
  S  S40  1  0.67689030  0.96207898  0.45076755  1
  S  S41  1  0.31748178  0.01771703  0.52566178  1
