# generated using pymatgen
data_Pr2Mn3(SbS3)4
_symmetry_space_group_name_H-M   'P 1'
_cell_length_a   20.02960800
_cell_length_b   3.90410600
_cell_length_c   14.95364829
_cell_angle_alpha   90.00000000
_cell_angle_beta   126.33350609
_cell_angle_gamma   90.00000000
_symmetry_Int_Tables_number   1
_chemical_formula_structural   Pr2Mn3(SbS3)4
_chemical_formula_sum   'Pr4 Mn6 Sb8 S24'
_cell_volume   942.00006694
_cell_formula_units_Z   2
loop_
 _symmetry_equiv_pos_site_id
 _symmetry_equiv_pos_as_xyz
  1  'x, y, z'
loop_
 _atom_site_type_symbol
 _atom_site_label
 _atom_site_symmetry_multiplicity
 _atom_site_fract_x
 _atom_site_fract_y
 _atom_site_fract_z
 _atom_site_occupancy
  Pr  Pr0  1  0.26167523  0.47956199  0.86678825  1
  Pr  Pr1  1  0.73427620  0.50219769  0.13787953  1
  Pr  Pr2  1  0.77853958  0.99033842  0.87412757  1
  Pr  Pr3  1  0.23131509  0.02627771  0.12846527  1
  Mn  Mn4  1  0.28098647  0.54472787  0.57160260  1
  Mn  Mn5  1  0.71157311  0.48120205  0.38933969  1
  Mn  Mn6  1  0.00001482  0.00201364  0.99512953  1
  Mn  Mn7  1  0.79919859  0.95953441  0.60809221  1
  Mn  Mn8  1  0.18269066  0.99554418  0.40533006  1
  Mn  Mn9  1  0.52015670  0.46464210  0.02830805  1
  Sb  Sb10  1  0.90610067  0.02276455  0.46724582  1
  Sb  Sb11  1  0.11855003  0.95064869  0.55449506  1
  Sb  Sb12  1  0.02893758  0.52163730  0.80905760  1
  Sb  Sb13  1  0.97054995  0.49296613  0.19323884  1
  Sb  Sb14  1  0.39016136  0.48398363  0.44789928  1
  Sb  Sb15  1  0.61939552  0.46925552  0.55983514  1
  Sb  Sb16  1  0.53852876  0.97614822  0.81793708  1
  Sb  Sb17  1  0.46478998  0.03590836  0.18343806  1
  S  S18  1  0.94280672  0.94286914  0.81790674  1
  S  S19  1  0.06793230  0.01981780  0.21100024  1
  S  S20  1  0.42927616  0.99466071  0.99484144  1
  S  S21  1  0.59970652  0.02894709  0.04229368  1
  S  S22  1  0.18675295  0.95840547  0.90708091  1
  S  S23  1  0.83449004  0.04440976  0.11439180  1
  S  S24  1  0.09599139  0.51318132  0.66605905  1
  S  S25  1  0.90452707  0.48546123  0.35965846  1
  S  S26  1  0.74448137  0.96332018  0.31785849  1
  S  S27  1  0.26314302  0.96140520  0.69444764  1
  S  S28  1  0.14964069  0.48025668  0.43437739  1
  S  S29  1  0.84085519  0.45814956  0.56032069  1
  S  S30  1  0.45714964  0.54799834  0.83930038  1
  S  S31  1  0.57977734  0.55119721  0.22772508  1
  S  S32  1  0.92852465  0.49673561  0.99689777  1
  S  S33  1  0.08485642  0.48564167  0.00867589  1
  S  S34  1  0.67672468  0.53363418  0.90435126  1
  S  S35  1  0.34344849  0.49815727  0.10990228  1
  S  S36  1  0.58929378  0.00124509  0.64378727  1
  S  S37  1  0.41983462  0.05514324  0.36210412  1
  S  S38  1  0.24005794  0.48388583  0.28979491  1
  S  S39  1  0.78350851  0.43579180  0.69489758  1
  S  S40  1  0.67682902  0.96265892  0.45082066  1
  S  S41  1  0.31732648  0.01934194  0.52544898  1
