# generated using pymatgen
data_Pr2Mn3(SbS3)4
_symmetry_space_group_name_H-M   'P 1'
_cell_length_a   20.02960800
_cell_length_b   3.90410600
_cell_length_c   14.95364829
_cell_angle_alpha   90.00000000
_cell_angle_beta   126.33350609
_cell_angle_gamma   90.00000000
_symmetry_Int_Tables_number   1
_chemical_formula_structural   Pr2Mn3(SbS3)4
_chemical_formula_sum   'Pr4 Mn6 Sb8 S24'
_cell_volume   942.00006694
_cell_formula_units_Z   2
loop_
 _symmetry_equiv_pos_site_id
 _symmetry_equiv_pos_as_xyz
  1  'x, y, z'
loop_
 _atom_site_type_symbol
 _atom_site_label
 _atom_site_symmetry_multiplicity
 _atom_site_fract_x
 _atom_site_fract_y
 _atom_site_fract_z
 _atom_site_occupancy
  Pr  Pr0  1  0.26167797  0.47942187  0.86692590  1
  Pr  Pr1  1  0.73427993  0.50185539  0.13784441  1
  Pr  Pr2  1  0.77856069  0.98923547  0.87431394  1
  Pr  Pr3  1  0.23132253  0.02603606  0.12841708  1
  Mn  Mn4  1  0.28107944  0.54542942  0.57123250  1
  Mn  Mn5  1  0.71191808  0.48141209  0.38926639  1
  Mn  Mn6  1  0.99994167  0.00245327  0.99506264  1
  Mn  Mn7  1  0.79923668  0.95813192  0.60830646  1
  Mn  Mn8  1  0.18281847  0.99564263  0.40594839  1
  Mn  Mn9  1  0.52008409  0.46426125  0.02837646  1
  Sb  Sb10  1  0.90603576  0.02336435  0.46730648  1
  Sb  Sb11  1  0.11841805  0.95112708  0.55434506  1
  Sb  Sb12  1  0.02878939  0.52198496  0.80885815  1
  Sb  Sb13  1  0.97068465  0.49219993  0.19323183  1
  Sb  Sb14  1  0.39030995  0.48429918  0.44819507  1
  Sb  Sb15  1  0.61951000  0.47006603  0.55985797  1
  Sb  Sb16  1  0.53851236  0.97569319  0.81781470  1
  Sb  Sb17  1  0.46483415  0.03555711  0.18347173  1
  S  S18  1  0.94299321  0.94412454  0.81821649  1
  S  S19  1  0.06784209  0.01998748  0.21104755  1
  S  S20  1  0.42918230  0.99524493  0.99487400  1
  S  S21  1  0.59997344  0.02972124  0.04278958  1
  S  S22  1  0.18649346  0.95862016  0.90720823  1
  S  S23  1  0.83428971  0.04342398  0.11452698  1
  S  S24  1  0.09598100  0.51201343  0.66580666  1
  S  S25  1  0.90460305  0.48384925  0.35955492  1
  S  S26  1  0.74469219  0.96457010  0.31800958  1
  S  S27  1  0.26344935  0.96152829  0.69485293  1
  S  S28  1  0.14964949  0.47924432  0.43474712  1
  S  S29  1  0.84062631  0.45855532  0.55963827  1
  S  S30  1  0.45742025  0.55023483  0.83924176  1
  S  S31  1  0.57982794  0.55127378  0.22801757  1
  S  S32  1  0.92862019  0.49720079  0.99633799  1
  S  S33  1  0.08467735  0.48498806  0.00845116  1
  S  S34  1  0.67675458  0.53622446  0.90427642  1
  S  S35  1  0.34328631  0.49873031  0.10973717  1
  S  S36  1  0.58927404  0.00201021  0.64381500  1
  S  S37  1  0.42000793  0.05532009  0.36210703  1
  S  S38  1  0.24022102  0.48288234  0.28973595  1
  S  S39  1  0.78352711  0.43498322  0.69511900  1
  S  S40  1  0.67676962  0.96336807  0.45081647  1
  S  S41  1  0.31720913  0.02057525  0.52526835  1
