# generated using pymatgen
data_Pr2Mn3(SbS3)4
_symmetry_space_group_name_H-M   'P 1'
_cell_length_a   20.02960800
_cell_length_b   3.90410600
_cell_length_c   14.95364829
_cell_angle_alpha   90.00000000
_cell_angle_beta   126.33350609
_cell_angle_gamma   90.00000000
_symmetry_Int_Tables_number   1
_chemical_formula_structural   Pr2Mn3(SbS3)4
_chemical_formula_sum   'Pr4 Mn6 Sb8 S24'
_cell_volume   942.00006694
_cell_formula_units_Z   2
loop_
 _symmetry_equiv_pos_site_id
 _symmetry_equiv_pos_as_xyz
  1  'x, y, z'
loop_
 _atom_site_type_symbol
 _atom_site_label
 _atom_site_symmetry_multiplicity
 _atom_site_fract_x
 _atom_site_fract_y
 _atom_site_fract_z
 _atom_site_occupancy
  Pr  Pr0  1  0.27005103  0.50738889  0.87252880  1
  Pr  Pr1  1  0.73453844  0.51870698  0.13544350  1
  Pr  Pr2  1  0.76450881  0.03361372  0.87091316  1
  Pr  Pr3  1  0.22853720  0.96408338  0.12816941  1
  Mn  Mn4  1  0.29926795  0.46372817  0.60961819  1
  Mn  Mn5  1  0.68658506  0.45461105  0.36593073  1
  Mn  Mn6  1  0.99894441  0.98159945  0.00717841  1
  Mn  Mn7  1  0.79045533  0.02582823  0.61390575  1
  Mn  Mn8  1  0.19803476  0.02513523  0.37065080  1
  Mn  Mn9  1  0.47997623  0.47187829  0.97943883  1
  Sb  Sb10  1  0.89073335  0.97133538  0.44809053  1
  Sb  Sb11  1  0.11328746  0.97719341  0.54777412  1
  Sb  Sb12  1  0.03872816  0.52269549  0.82704906  1
  Sb  Sb13  1  0.96850617  0.48485881  0.19255536  1
  Sb  Sb14  1  0.39855876  0.49336768  0.45421686  1
  Sb  Sb15  1  0.61285525  0.48385848  0.54774831  1
  Sb  Sb16  1  0.52913716  0.97258639  0.80504542  1
  Sb  Sb17  1  0.46529120  0.03144119  0.18504662  1
  S  S18  1  0.93970260  0.00170301  0.80465049  1
  S  S19  1  0.06604979  0.99467876  0.20072178  1
  S  S20  1  0.41784967  0.98305771  0.97439039  1
  S  S21  1  0.58555725  0.02389543  0.00897288  1
  S  S22  1  0.16177468  0.02469165  0.89552585  1
  S  S23  1  0.82699856  0.97926385  0.10153862  1
  S  S24  1  0.08841048  0.50050690  0.63567824  1
  S  S25  1  0.91534206  0.50306875  0.35490110  1
  S  S26  1  0.73503428  0.99768739  0.29737507  1
  S  S27  1  0.26308855  0.01584350  0.70414296  1
  S  S28  1  0.17173245  0.52091769  0.44151103  1
  S  S29  1  0.80667669  0.52257515  0.53795954  1
  S  S30  1  0.43327763  0.47228366  0.79960981  1
  S  S31  1  0.55463642  0.49342606  0.17826818  1
  S  S32  1  0.92133866  0.51968460  0.98723908  1
  S  S33  1  0.08551164  0.49791005  0.02178566  1
  S  S34  1  0.66855406  0.55985592  0.89391412  1
  S  S35  1  0.32926098  0.46325248  0.10193218  1
  S  S36  1  0.58857184  0.99816952  0.64315522  1
  S  S37  1  0.39177645  0.99464709  0.33088509  1
  S  S38  1  0.24671787  0.46531839  0.31750487  1
  S  S39  1  0.76381524  0.49034593  0.69351740  1
  S  S40  1  0.65792530  0.98828350  0.43370830  1
  S  S41  1  0.32972638  0.98588426  0.55464947  1
