# generated using pymatgen
data_Pr2Mn3(SbS3)4
_symmetry_space_group_name_H-M   'P 1'
_cell_length_a   20.02960800
_cell_length_b   3.90410600
_cell_length_c   14.95364829
_cell_angle_alpha   90.00000000
_cell_angle_beta   126.33350609
_cell_angle_gamma   90.00000000
_symmetry_Int_Tables_number   1
_chemical_formula_structural   Pr2Mn3(SbS3)4
_chemical_formula_sum   'Pr4 Mn6 Sb8 S24'
_cell_volume   942.00006694
_cell_formula_units_Z   2
loop_
 _symmetry_equiv_pos_site_id
 _symmetry_equiv_pos_as_xyz
  1  'x, y, z'
loop_
 _atom_site_type_symbol
 _atom_site_label
 _atom_site_symmetry_multiplicity
 _atom_site_fract_x
 _atom_site_fract_y
 _atom_site_fract_z
 _atom_site_occupancy
  Pr  Pr0  1  0.26166362  0.47923733  0.86702236  1
  Pr  Pr1  1  0.73435122  0.50171634  0.13797874  1
  Pr  Pr2  1  0.77866735  0.98806693  0.87455085  1
  Pr  Pr3  1  0.23134221  0.02583652  0.12840883  1
  Mn  Mn4  1  0.28116492  0.54646822  0.57085771  1
  Mn  Mn5  1  0.71218340  0.48157533  0.38911534  1
  Mn  Mn6  1  0.99996222  0.00291881  0.99505874  1
  Mn  Mn7  1  0.79933441  0.95718200  0.60862444  1
  Mn  Mn8  1  0.18296171  0.99581900  0.40642983  1
  Mn  Mn9  1  0.52017308  0.46390926  0.02857045  1
  Sb  Sb10  1  0.90593073  0.02391118  0.46737409  1
  Sb  Sb11  1  0.11828255  0.95162071  0.55410183  1
  Sb  Sb12  1  0.02862504  0.52223924  0.80860315  1
  Sb  Sb13  1  0.97081110  0.49133342  0.19322148  1
  Sb  Sb14  1  0.39041150  0.48443393  0.44839258  1
  Sb  Sb15  1  0.61968075  0.47016317  0.55995070  1
  Sb  Sb16  1  0.53849351  0.97508804  0.81775226  1
  Sb  Sb17  1  0.46491132  0.03515808  0.18349311  1
  S  S18  1  0.94317589  0.94543343  0.81838449  1
  S  S19  1  0.06757042  0.01976802  0.21093989  1
  S  S20  1  0.42919973  0.99579804  0.99497067  1
  S  S21  1  0.60012765  0.02995741  0.04323989  1
  S  S22  1  0.18633494  0.95893059  0.90744567  1
  S  S23  1  0.83415211  0.04223154  0.11478479  1
  S  S24  1  0.09603875  0.51077821  0.66570308  1
  S  S25  1  0.90466156  0.48193331  0.35962492  1
  S  S26  1  0.74496756  0.96536757  0.31802976  1
  S  S27  1  0.26364853  0.96208125  0.69518292  1
  S  S28  1  0.14965763  0.47858547  0.43502813  1
  S  S29  1  0.84033877  0.45899594  0.55892590  1
  S  S30  1  0.45770095  0.55182377  0.83932268  1
  S  S31  1  0.57979426  0.55179617  0.22832776  1
  S  S32  1  0.92862755  0.49716346  0.99589679  1
  S  S33  1  0.08457326  0.48467764  0.00825685  1
  S  S34  1  0.67675317  0.53899567  0.90432806  1
  S  S35  1  0.34308901  0.49970349  0.10967358  1
  S  S36  1  0.58925604  0.00304215  0.64393498  1
  S  S37  1  0.42015355  0.05512988  0.36183765  1
  S  S38  1  0.24045471  0.48161338  0.28982705  1
  S  S39  1  0.78360021  0.43449561  0.69532316  1
  S  S40  1  0.67671165  0.96383994  0.45074444  1
  S  S41  1  0.31706286  0.02197308  0.52541536  1
