# generated using pymatgen
data_Pr2Mn3(SbS3)4
_symmetry_space_group_name_H-M   'P 1'
_cell_length_a   20.02960800
_cell_length_b   3.90410600
_cell_length_c   14.95364829
_cell_angle_alpha   90.00000000
_cell_angle_beta   126.33350609
_cell_angle_gamma   90.00000000
_symmetry_Int_Tables_number   1
_chemical_formula_structural   Pr2Mn3(SbS3)4
_chemical_formula_sum   'Pr4 Mn6 Sb8 S24'
_cell_volume   942.00006694
_cell_formula_units_Z   2
loop_
 _symmetry_equiv_pos_site_id
 _symmetry_equiv_pos_as_xyz
  1  'x, y, z'
loop_
 _atom_site_type_symbol
 _atom_site_label
 _atom_site_symmetry_multiplicity
 _atom_site_fract_x
 _atom_site_fract_y
 _atom_site_fract_z
 _atom_site_occupancy
  Pr  Pr0  1  0.26161294  0.47932273  0.86708690  1
  Pr  Pr1  1  0.73439795  0.50161024  0.13805156  1
  Pr  Pr2  1  0.77882399  0.98678811  0.87483861  1
  Pr  Pr3  1  0.23135329  0.02585754  0.12843356  1
  Mn  Mn4  1  0.28132666  0.54753330  0.57056120  1
  Mn  Mn5  1  0.71232150  0.48209249  0.38903572  1
  Mn  Mn6  1  0.99998311  0.00373425  0.99512882  1
  Mn  Mn7  1  0.79950464  0.95670626  0.60904038  1
  Mn  Mn8  1  0.18306468  0.99628770  0.40689295  1
  Mn  Mn9  1  0.52022962  0.46414791  0.02874433  1
  Sb  Sb10  1  0.90587337  0.02447924  0.46750702  1
  Sb  Sb11  1  0.11823559  0.95184382  0.55391156  1
  Sb  Sb12  1  0.02854657  0.52258469  0.80844571  1
  Sb  Sb13  1  0.97093915  0.49066784  0.19315512  1
  Sb  Sb14  1  0.39044668  0.48431729  0.44860048  1
  Sb  Sb15  1  0.61979806  0.47027652  0.56002885  1
  Sb  Sb16  1  0.53852009  0.97439233  0.81774540  1
  Sb  Sb17  1  0.46498114  0.03511831  0.18360248  1
  S  S18  1  0.94316571  0.94643096  0.81848860  1
  S  S19  1  0.06714512  0.01939106  0.21074348  1
  S  S20  1  0.42941370  0.99583400  0.99511461  1
  S  S21  1  0.60022909  0.02991540  0.04372928  1
  S  S22  1  0.18626017  0.95925608  0.90791006  1
  S  S23  1  0.83408385  0.04115739  0.11532429  1
  S  S24  1  0.09619371  0.50996289  0.66572541  1
  S  S25  1  0.90483710  0.48038200  0.35980953  1
  S  S26  1  0.74517624  0.96617961  0.31788836  1
  S  S27  1  0.26372222  0.96188574  0.69531880  1
  S  S28  1  0.14951859  0.47855866  0.43517916  1
  S  S29  1  0.84003389  0.45979352  0.55835151  1
  S  S30  1  0.45788608  0.55327080  0.83933030  1
  S  S31  1  0.57966962  0.55219648  0.22853109  1
  S  S32  1  0.92866042  0.49616747  0.99549456  1
  S  S33  1  0.08452445  0.48410574  0.00807629  1
  S  S34  1  0.67683524  0.54148279  0.90449609  1
  S  S35  1  0.34290529  0.50104260  0.10954364  1
  S  S36  1  0.58926817  0.00405301  0.64405556  1
  S  S37  1  0.42036460  0.05475311  0.36160443  1
  S  S38  1  0.24058556  0.48069474  0.28978621  1
  S  S39  1  0.78367708  0.43405768  0.69547007  1
  S  S40  1  0.67668868  0.96445911  0.45073561  1
  S  S41  1  0.31690339  0.02399349  0.52551642  1
