# generated using pymatgen
data_Pr2Mn3(SbS3)4
_symmetry_space_group_name_H-M   'P 1'
_cell_length_a   20.02960800
_cell_length_b   3.90410600
_cell_length_c   14.95364829
_cell_angle_alpha   90.00000000
_cell_angle_beta   126.33350609
_cell_angle_gamma   90.00000000
_symmetry_Int_Tables_number   1
_chemical_formula_structural   Pr2Mn3(SbS3)4
_chemical_formula_sum   'Pr4 Mn6 Sb8 S24'
_cell_volume   942.00006694
_cell_formula_units_Z   2
loop_
 _symmetry_equiv_pos_site_id
 _symmetry_equiv_pos_as_xyz
  1  'x, y, z'
loop_
 _atom_site_type_symbol
 _atom_site_label
 _atom_site_symmetry_multiplicity
 _atom_site_fract_x
 _atom_site_fract_y
 _atom_site_fract_z
 _atom_site_occupancy
  Pr  Pr0  1  0.26163385  0.47959141  0.86723907  1
  Pr  Pr1  1  0.73442538  0.50186002  0.13811710  1
  Pr  Pr2  1  0.77904082  0.98554112  0.87515568  1
  Pr  Pr3  1  0.23134725  0.02602798  0.12845263  1
  Mn  Mn4  1  0.28147456  0.54813336  0.57021240  1
  Mn  Mn5  1  0.71262197  0.48268339  0.38899037  1
  Mn  Mn6  1  0.00004581  0.00423556  0.99516721  1
  Mn  Mn7  1  0.79968280  0.95636682  0.60951987  1
  Mn  Mn8  1  0.18317498  0.99630970  0.40738315  1
  Mn  Mn9  1  0.52035228  0.46450649  0.02893329  1
  Sb  Sb10  1  0.90589751  0.02467646  0.46770888  1
  Sb  Sb11  1  0.11817222  0.95121695  0.55378473  1
  Sb  Sb12  1  0.02853778  0.52249094  0.80838748  1
  Sb  Sb13  1  0.97108961  0.49016793  0.19318820  1
  Sb  Sb14  1  0.39040324  0.48403341  0.44875017  1
  Sb  Sb15  1  0.61990164  0.47037049  0.55998360  1
  Sb  Sb16  1  0.53846729  0.97385408  0.81770465  1
  Sb  Sb17  1  0.46499480  0.03521820  0.18364618  1
  S  S18  1  0.94304304  0.94725835  0.81854848  1
  S  S19  1  0.06661271  0.01859895  0.21048170  1
  S  S20  1  0.42967655  0.99616314  0.99522740  1
  S  S21  1  0.60026071  0.03018428  0.04417861  1
  S  S22  1  0.18621293  0.95949338  0.90838675  1
  S  S23  1  0.83384516  0.04008448  0.11567060  1
  S  S24  1  0.09630218  0.50850518  0.66579091  1
  S  S25  1  0.90501160  0.47870901  0.35993459  1
  S  S26  1  0.74554733  0.96736598  0.31794147  1
  S  S27  1  0.26382248  0.96194500  0.69540815  1
  S  S28  1  0.14926956  0.47853909  0.43521697  1
  S  S29  1  0.83981010  0.46023200  0.55797036  1
  S  S30  1  0.45805401  0.55376693  0.83955114  1
  S  S31  1  0.57952895  0.55282752  0.22873662  1
  S  S32  1  0.92864047  0.49539528  0.99499273  1
  S  S33  1  0.08454456  0.48434438  0.00786568  1
  S  S34  1  0.67678078  0.54411302  0.90467165  1
  S  S35  1  0.34284224  0.50250367  0.10970880  1
  S  S36  1  0.58920473  0.00448974  0.64409017  1
  S  S37  1  0.42056170  0.05439891  0.36148150  1
  S  S38  1  0.24075383  0.47964929  0.28977007  1
  S  S39  1  0.78364612  0.43399357  0.69561954  1
  S  S40  1  0.67660187  0.96514197  0.45058034  1
  S  S41  1  0.31674564  0.02585659  0.52558780  1
