# generated using pymatgen
data_Pr2Mn3(SbS3)4
_symmetry_space_group_name_H-M   'P 1'
_cell_length_a   20.02960800
_cell_length_b   3.90410600
_cell_length_c   14.95364829
_cell_angle_alpha   90.00000000
_cell_angle_beta   126.33350609
_cell_angle_gamma   90.00000000
_symmetry_Int_Tables_number   1
_chemical_formula_structural   Pr2Mn3(SbS3)4
_chemical_formula_sum   'Pr4 Mn6 Sb8 S24'
_cell_volume   942.00006694
_cell_formula_units_Z   2
loop_
 _symmetry_equiv_pos_site_id
 _symmetry_equiv_pos_as_xyz
  1  'x, y, z'
loop_
 _atom_site_type_symbol
 _atom_site_label
 _atom_site_symmetry_multiplicity
 _atom_site_fract_x
 _atom_site_fract_y
 _atom_site_fract_z
 _atom_site_occupancy
  Pr  Pr0  1  0.26165957  0.47980857  0.86736070  1
  Pr  Pr1  1  0.73449577  0.50209586  0.13817909  1
  Pr  Pr2  1  0.77923883  0.98443487  0.87541361  1
  Pr  Pr3  1  0.23139613  0.02621270  0.12862838  1
  Mn  Mn4  1  0.28169743  0.54872677  0.57007996  1
  Mn  Mn5  1  0.71281515  0.48337431  0.38872539  1
  Mn  Mn6  1  0.00017314  0.00494663  0.99522254  1
  Mn  Mn7  1  0.79993639  0.95609653  0.60995880  1
  Mn  Mn8  1  0.18331261  0.99628919  0.40787890  1
  Mn  Mn9  1  0.52055005  0.46533204  0.02914816  1
  Sb  Sb10  1  0.90591336  0.02480115  0.46782738  1
  Sb  Sb11  1  0.11809134  0.95052876  0.55365831  1
  Sb  Sb12  1  0.02851666  0.52228197  0.80833972  1
  Sb  Sb13  1  0.97123736  0.48954411  0.19334347  1
  Sb  Sb14  1  0.39045874  0.48327016  0.44887729  1
  Sb  Sb15  1  0.62009947  0.47042511  0.55997183  1
  Sb  Sb16  1  0.53839953  0.97315069  0.81751274  1
  Sb  Sb17  1  0.46498366  0.03524453  0.18358690  1
  S  S18  1  0.94291584  0.94818178  0.81849728  1
  S  S19  1  0.06611478  0.01809473  0.21028865  1
  S  S20  1  0.42988571  0.99630561  0.99544930  1
  S  S21  1  0.60028536  0.03044912  0.04450088  1
  S  S22  1  0.18620389  0.95912026  0.90895832  1
  S  S23  1  0.83353006  0.03834235  0.11584463  1
  S  S24  1  0.09634052  0.50685853  0.66580300  1
  S  S25  1  0.90535231  0.47782481  0.36023382  1
  S  S26  1  0.74584189  0.96830532  0.31787901  1
  S  S27  1  0.26383283  0.96151261  0.69530220  1
  S  S28  1  0.14908863  0.47877644  0.43529178  1
  S  S29  1  0.83961832  0.46081202  0.55775225  1
  S  S30  1  0.45841785  0.55451389  0.83990842  1
  S  S31  1  0.57933375  0.55332837  0.22896140  1
  S  S32  1  0.92849070  0.49476362  0.99468431  1
  S  S33  1  0.08456814  0.48482328  0.00772711  1
  S  S34  1  0.67681553  0.54682369  0.90480362  1
  S  S35  1  0.34279895  0.50335718  0.11015265  1
  S  S36  1  0.58920741  0.00457914  0.64402804  1
  S  S37  1  0.42068273  0.05418199  0.36136121  1
  S  S38  1  0.24085557  0.47914999  0.28981205  1
  S  S39  1  0.78374366  0.43418697  0.69589038  1
  S  S40  1  0.67660081  0.96591711  0.45053536  1
  S  S41  1  0.31661936  0.02750101  0.52555854  1
