# generated using pymatgen
data_Pr2Mn3(SbS3)4
_symmetry_space_group_name_H-M   'P 1'
_cell_length_a   20.02960800
_cell_length_b   3.90410600
_cell_length_c   14.95364829
_cell_angle_alpha   90.00000000
_cell_angle_beta   126.33350609
_cell_angle_gamma   90.00000000
_symmetry_Int_Tables_number   1
_chemical_formula_structural   Pr2Mn3(SbS3)4
_chemical_formula_sum   'Pr4 Mn6 Sb8 S24'
_cell_volume   942.00006694
_cell_formula_units_Z   2
loop_
 _symmetry_equiv_pos_site_id
 _symmetry_equiv_pos_as_xyz
  1  'x, y, z'
loop_
 _atom_site_type_symbol
 _atom_site_label
 _atom_site_symmetry_multiplicity
 _atom_site_fract_x
 _atom_site_fract_y
 _atom_site_fract_z
 _atom_site_occupancy
  Pr  Pr0  1  0.26170639  0.47980488  0.86742579  1
  Pr  Pr1  1  0.73449536  0.50224308  0.13812594  1
  Pr  Pr2  1  0.77937146  0.98354345  0.87564011  1
  Pr  Pr3  1  0.23142736  0.02653206  0.12885510  1
  Mn  Mn4  1  0.28192638  0.54911309  0.56992374  1
  Mn  Mn5  1  0.71290124  0.48390295  0.38831002  1
  Mn  Mn6  1  0.00033398  0.00495286  0.99519819  1
  Mn  Mn7  1  0.80018021  0.95586020  0.61051067  1
  Mn  Mn8  1  0.18351351  0.99599660  0.40821962  1
  Mn  Mn9  1  0.52080699  0.46592682  0.02944597  1
  Sb  Sb10  1  0.90590013  0.02461219  0.46792945  1
  Sb  Sb11  1  0.11795245  0.94987956  0.55353613  1
  Sb  Sb12  1  0.02844621  0.52216656  0.80833798  1
  Sb  Sb13  1  0.97131046  0.48924883  0.19349789  1
  Sb  Sb14  1  0.39055440  0.48249045  0.44902647  1
  Sb  Sb15  1  0.62022795  0.47061564  0.55986456  1
  Sb  Sb16  1  0.53836505  0.97232601  0.81735139  1
  Sb  Sb17  1  0.46497314  0.03510642  0.18339240  1
  S  S18  1  0.94275862  0.94924252  0.81843809  1
  S  S19  1  0.06555822  0.01717225  0.21009381  1
  S  S20  1  0.42993880  0.99669352  0.99545634  1
  S  S21  1  0.60030330  0.03011617  0.04478208  1
  S  S22  1  0.18607398  0.95891660  0.90925932  1
  S  S23  1  0.83321050  0.03624782  0.11607506  1
  S  S24  1  0.09642072  0.50516931  0.66566457  1
  S  S25  1  0.90556774  0.47692380  0.36041319  1
  S  S26  1  0.74606965  0.96916792  0.31772975  1
  S  S27  1  0.26392870  0.96046529  0.69537139  1
  S  S28  1  0.14894861  0.47931826  0.43528183  1
  S  S29  1  0.83936543  0.46041903  0.55757418  1
  S  S30  1  0.45866096  0.55515657  0.84003374  1
  S  S31  1  0.57927718  0.55365451  0.22941595  1
  S  S32  1  0.92834436  0.49463022  0.99419227  1
  S  S33  1  0.08444984  0.48466655  0.00752484  1
  S  S34  1  0.67676201  0.54962850  0.90505682  1
  S  S35  1  0.34274587  0.50433892  0.11052801  1
  S  S36  1  0.58917685  0.00414850  0.64392632  1
  S  S37  1  0.42096985  0.05435956  0.36142038  1
  S  S38  1  0.24079706  0.47843285  0.28973575  1
  S  S39  1  0.78370377  0.43445504  0.69611936  1
  S  S40  1  0.67654956  0.96660615  0.45061051  1
  S  S41  1  0.31647611  0.02920909  0.52552637  1
