# generated using pymatgen
data_Pr2Mn3(SbS3)4
_symmetry_space_group_name_H-M   'P 1'
_cell_length_a   20.02960800
_cell_length_b   3.90410600
_cell_length_c   14.95364829
_cell_angle_alpha   90.00000000
_cell_angle_beta   126.33350609
_cell_angle_gamma   90.00000000
_symmetry_Int_Tables_number   1
_chemical_formula_structural   Pr2Mn3(SbS3)4
_chemical_formula_sum   'Pr4 Mn6 Sb8 S24'
_cell_volume   942.00006694
_cell_formula_units_Z   2
loop_
 _symmetry_equiv_pos_site_id
 _symmetry_equiv_pos_as_xyz
  1  'x, y, z'
loop_
 _atom_site_type_symbol
 _atom_site_label
 _atom_site_symmetry_multiplicity
 _atom_site_fract_x
 _atom_site_fract_y
 _atom_site_fract_z
 _atom_site_occupancy
  Pr  Pr0  1  0.26175612  0.47994629  0.86750266  1
  Pr  Pr1  1  0.73452578  0.50226510  0.13806154  1
  Pr  Pr2  1  0.77942633  0.98258674  0.87584478  1
  Pr  Pr3  1  0.23143287  0.02637265  0.12896464  1
  Mn  Mn4  1  0.28217341  0.54958965  0.56996241  1
  Mn  Mn5  1  0.71307483  0.48401337  0.38797120  1
  Mn  Mn6  1  0.00056408  0.00419916  0.99532405  1
  Mn  Mn7  1  0.80034388  0.95541445  0.61107470  1
  Mn  Mn8  1  0.18369287  0.99568940  0.40855845  1
  Mn  Mn9  1  0.52104561  0.46650117  0.02980520  1
  Sb  Sb10  1  0.90595462  0.02423793  0.46814700  1
  Sb  Sb11  1  0.11783104  0.94932785  0.55336772  1
  Sb  Sb12  1  0.02833928  0.52211182  0.80824013  1
  Sb  Sb13  1  0.97130769  0.48892848  0.19363103  1
  Sb  Sb14  1  0.39066761  0.48164264  0.44915474  1
  Sb  Sb15  1  0.62039969  0.47094791  0.55979314  1
  Sb  Sb16  1  0.53829368  0.97183537  0.81714191  1
  Sb  Sb17  1  0.46495580  0.03474181  0.18325044  1
  S  S18  1  0.94272172  0.95027468  0.81843946  1
  S  S19  1  0.06509654  0.01598682  0.20988699  1
  S  S20  1  0.43007441  0.99734710  0.99562662  1
  S  S21  1  0.60019648  0.03007504  0.04496474  1
  S  S22  1  0.18589558  0.95906197  0.90950159  1
  S  S23  1  0.83297839  0.03434322  0.11613488  1
  S  S24  1  0.09644812  0.50360860  0.66544945  1
  S  S25  1  0.90590519  0.47601405  0.36057273  1
  S  S26  1  0.74638536  0.97049248  0.31777528  1
  S  S27  1  0.26409303  0.95981424  0.69557123  1
  S  S28  1  0.14893457  0.48008786  0.43527977  1
  S  S29  1  0.83902049  0.46026227  0.55721254  1
  S  S30  1  0.45894469  0.55560483  0.84015090  1
  S  S31  1  0.57920379  0.55343224  0.22967831  1
  S  S32  1  0.92812181  0.49413285  0.99382287  1
  S  S33  1  0.08435374  0.48419228  0.00728500  1
  S  S34  1  0.67672012  0.55142852  0.90520918  1
  S  S35  1  0.34251534  0.50588557  0.11077164  1
  S  S36  1  0.58909235  0.00319094  0.64379847  1
  S  S37  1  0.42132814  0.05391285  0.36138470  1
  S  S38  1  0.24051956  0.47814019  0.28949449  1
  S  S39  1  0.78357050  0.43461661  0.69634080  1
  S  S40  1  0.67652837  0.96743081  0.45072363  1
  S  S41  1  0.31651427  0.03101972  0.52571027  1
