# generated using pymatgen
data_Pr2Mn3(SbS3)4
_symmetry_space_group_name_H-M   'P 1'
_cell_length_a   20.02960800
_cell_length_b   3.90410600
_cell_length_c   14.95364829
_cell_angle_alpha   90.00000000
_cell_angle_beta   126.33350609
_cell_angle_gamma   90.00000000
_symmetry_Int_Tables_number   1
_chemical_formula_structural   Pr2Mn3(SbS3)4
_chemical_formula_sum   'Pr4 Mn6 Sb8 S24'
_cell_volume   942.00006694
_cell_formula_units_Z   2
loop_
 _symmetry_equiv_pos_site_id
 _symmetry_equiv_pos_as_xyz
  1  'x, y, z'
loop_
 _atom_site_type_symbol
 _atom_site_label
 _atom_site_symmetry_multiplicity
 _atom_site_fract_x
 _atom_site_fract_y
 _atom_site_fract_z
 _atom_site_occupancy
  Pr  Pr0  1  0.26186607  0.48021415  0.86762318  1
  Pr  Pr1  1  0.73461694  0.50193128  0.13806961  1
  Pr  Pr2  1  0.77944401  0.98173596  0.87592008  1
  Pr  Pr3  1  0.23146428  0.02648071  0.12908922  1
  Mn  Mn4  1  0.28227678  0.55013404  0.56998393  1
  Mn  Mn5  1  0.71320262  0.48426282  0.38762764  1
  Mn  Mn6  1  0.00081498  0.00371537  0.99540452  1
  Mn  Mn7  1  0.80044633  0.95573391  0.61155191  1
  Mn  Mn8  1  0.18376046  0.99535111  0.40867760  1
  Mn  Mn9  1  0.52123998  0.46748786  0.03011967  1
  Sb  Sb10  1  0.90601284  0.02374307  0.46838231  1
  Sb  Sb11  1  0.11776185  0.94872213  0.55318875  1
  Sb  Sb12  1  0.02829819  0.52202398  0.80820631  1
  Sb  Sb13  1  0.97129759  0.48837247  0.19366114  1
  Sb  Sb14  1  0.39080027  0.48074310  0.44927534  1
  Sb  Sb15  1  0.62056141  0.47113738  0.55979721  1
  Sb  Sb16  1  0.53823026  0.97137858  0.81695036  1
  Sb  Sb17  1  0.46493518  0.03473316  0.18315565  1
  S  S18  1  0.94267951  0.95179928  0.81840428  1
  S  S19  1  0.06480277  0.01475195  0.20981612  1
  S  S20  1  0.43022449  0.99760641  0.99590086  1
  S  S21  1  0.60010209  0.02942083  0.04497329  1
  S  S22  1  0.18560111  0.95892342  0.90965725  1
  S  S23  1  0.83269290  0.03205247  0.11606300  1
  S  S24  1  0.09633294  0.50194083  0.66510604  1
  S  S25  1  0.90605521  0.47538392  0.36067411  1
  S  S26  1  0.74664245  0.97141457  0.31775712  1
  S  S27  1  0.26421208  0.95892027  0.69573941  1
  S  S28  1  0.14871110  0.48081052  0.43504780  1
  S  S29  1  0.83868957  0.45922307  0.55698594  1
  S  S30  1  0.45920149  0.55575814  0.84025795  1
  S  S31  1  0.57914231  0.55320066  0.22998269  1
  S  S32  1  0.92795222  0.49380682  0.99354752  1
  S  S33  1  0.08420755  0.48332053  0.00688770  1
  S  S34  1  0.67669904  0.55372155  0.90539968  1
  S  S35  1  0.34223640  0.50752940  0.11105659  1
  S  S36  1  0.58917680  0.00236320  0.64386641  1
  S  S37  1  0.42162148  0.05352795  0.36130999  1
  S  S38  1  0.24009662  0.47780042  0.28919959  1
  S  S39  1  0.78346813  0.43536602  0.69660123  1
  S  S40  1  0.67648180  0.96859589  0.45085567  1
  S  S41  1  0.31651859  0.03286642  0.52577658  1
