# generated using pymatgen
data_Pr2Mn3(SbS3)4
_symmetry_space_group_name_H-M   'P 1'
_cell_length_a   20.02960800
_cell_length_b   3.90410600
_cell_length_c   14.95364829
_cell_angle_alpha   90.00000000
_cell_angle_beta   126.33350609
_cell_angle_gamma   90.00000000
_symmetry_Int_Tables_number   1
_chemical_formula_structural   Pr2Mn3(SbS3)4
_chemical_formula_sum   'Pr4 Mn6 Sb8 S24'
_cell_volume   942.00006694
_cell_formula_units_Z   2
loop_
 _symmetry_equiv_pos_site_id
 _symmetry_equiv_pos_as_xyz
  1  'x, y, z'
loop_
 _atom_site_type_symbol
 _atom_site_label
 _atom_site_symmetry_multiplicity
 _atom_site_fract_x
 _atom_site_fract_y
 _atom_site_fract_z
 _atom_site_occupancy
  Pr  Pr0  1  0.26194324  0.48082153  0.86768941  1
  Pr  Pr1  1  0.73472675  0.50166269  0.13796271  1
  Pr  Pr2  1  0.77944842  0.98121334  0.87586990  1
  Pr  Pr3  1  0.23151302  0.02631541  0.12920187  1
  Mn  Mn4  1  0.28234754  0.55045582  0.57008774  1
  Mn  Mn5  1  0.71334481  0.48466820  0.38734134  1
  Mn  Mn6  1  0.00093416  0.00323842  0.99538103  1
  Mn  Mn7  1  0.80070940  0.95619307  0.61214873  1
  Mn  Mn8  1  0.18378752  0.99481955  0.40895663  1
  Mn  Mn9  1  0.52139711  0.46816530  0.03031534  1
  Sb  Sb10  1  0.90595550  0.02321492  0.46863948  1
  Sb  Sb11  1  0.11768646  0.94829558  0.55294086  1
  Sb  Sb12  1  0.02830339  0.52227007  0.80814823  1
  Sb  Sb13  1  0.97138788  0.48747321  0.19371091  1
  Sb  Sb14  1  0.39089057  0.47987963  0.44933661  1
  Sb  Sb15  1  0.62075446  0.47129464  0.55989149  1
  Sb  Sb16  1  0.53819724  0.97100061  0.81684138  1
  Sb  Sb17  1  0.46485502  0.03481407  0.18299964  1
  S  S18  1  0.94285859  0.95359685  0.81864245  1
  S  S19  1  0.06447919  0.01333491  0.20984279  1
  S  S20  1  0.43043911  0.99838930  0.99621193  1
  S  S21  1  0.60005718  0.02918625  0.04513391  1
  S  S22  1  0.18521520  0.95835260  0.90968322  1
  S  S23  1  0.83238279  0.02935046  0.11606818  1
  S  S24  1  0.09627940  0.50064711  0.66473343  1
  S  S25  1  0.90637016  0.47531033  0.36098462  1
  S  S26  1  0.74686060  0.97270689  0.31782544  1
  S  S27  1  0.26439052  0.95778310  0.69618934  1
  S  S28  1  0.14836476  0.48118208  0.43478922  1
  S  S29  1  0.83829670  0.45814052  0.55660861  1
  S  S30  1  0.45934175  0.55584686  0.84033594  1
  S  S31  1  0.57908528  0.55235380  0.23017271  1
  S  S32  1  0.92794393  0.49426938  0.99346135  1
  S  S33  1  0.08395316  0.48265594  0.00650904  1
  S  S34  1  0.67673911  0.55529037  0.90555266  1
  S  S35  1  0.34208246  0.50945947  0.11140347  1
  S  S36  1  0.58920707  0.00110269  0.64394156  1
  S  S37  1  0.42186735  0.05273434  0.36120042  1
  S  S38  1  0.23960505  0.47670211  0.28882947  1
  S  S39  1  0.78338511  0.43656751  0.69675328  1
  S  S40  1  0.67652981  0.97029261  0.45098664  1
  S  S41  1  0.31663193  0.03454408  0.52608544  1
