# generated using pymatgen
data_Pr2Mn3(SbS3)4
_symmetry_space_group_name_H-M   'P 1'
_cell_length_a   20.02960800
_cell_length_b   3.90410600
_cell_length_c   14.95364829
_cell_angle_alpha   90.00000000
_cell_angle_beta   126.33350609
_cell_angle_gamma   90.00000000
_symmetry_Int_Tables_number   1
_chemical_formula_structural   Pr2Mn3(SbS3)4
_chemical_formula_sum   'Pr4 Mn6 Sb8 S24'
_cell_volume   942.00006694
_cell_formula_units_Z   2
loop_
 _symmetry_equiv_pos_site_id
 _symmetry_equiv_pos_as_xyz
  1  'x, y, z'
loop_
 _atom_site_type_symbol
 _atom_site_label
 _atom_site_symmetry_multiplicity
 _atom_site_fract_x
 _atom_site_fract_y
 _atom_site_fract_z
 _atom_site_occupancy
  Pr  Pr0  1  0.26199061  0.48126319  0.86774715  1
  Pr  Pr1  1  0.73487991  0.50175023  0.13795447  1
  Pr  Pr2  1  0.77948011  0.98067873  0.87588108  1
  Pr  Pr3  1  0.23154331  0.02612410  0.12931289  1
  Mn  Mn4  1  0.28229737  0.55066011  0.57011656  1
  Mn  Mn5  1  0.71353077  0.48472603  0.38704844  1
  Mn  Mn6  1  0.00108425  0.00335825  0.99532190  1
  Mn  Mn7  1  0.80102350  0.95668653  0.61275191  1
  Mn  Mn8  1  0.18380610  0.99449407  0.40918193  1
  Mn  Mn9  1  0.52144502  0.46890912  0.03040384  1
  Sb  Sb10  1  0.90602764  0.02301764  0.46895850  1
  Sb  Sb11  1  0.11754164  0.94789189  0.55256083  1
  Sb  Sb12  1  0.02833088  0.52205352  0.80803817  1
  Sb  Sb13  1  0.97150450  0.48665976  0.19374750  1
  Sb  Sb14  1  0.39095534  0.47896767  0.44944854  1
  Sb  Sb15  1  0.62093086  0.47167139  0.55988706  1
  Sb  Sb16  1  0.53812738  0.97047580  0.81676134  1
  Sb  Sb17  1  0.46487056  0.03464767  0.18287483  1
  S  S18  1  0.94317823  0.95540798  0.81887254  1
  S  S19  1  0.06435729  0.01200630  0.20988565  1
  S  S20  1  0.43060862  0.99932063  0.99638640  1
  S  S21  1  0.60007443  0.02853749  0.04535551  1
  S  S22  1  0.18497098  0.95794952  0.90986880  1
  S  S23  1  0.83229796  0.02723644  0.11621151  1
  S  S24  1  0.09633091  0.49883672  0.66449652  1
  S  S25  1  0.90680043  0.47537392  0.36146466  1
  S  S26  1  0.74714901  0.97399457  0.31805906  1
  S  S27  1  0.26451687  0.95775914  0.69657493  1
  S  S28  1  0.14821683  0.48118323  0.43472926  1
  S  S29  1  0.83793297  0.45640323  0.55621642  1
  S  S30  1  0.45945813  0.55536648  0.84038314  1
  S  S31  1  0.57909731  0.55146384  0.23047102  1
  S  S32  1  0.92800163  0.49506990  0.99350979  1
  S  S33  1  0.08369994  0.48128372  0.00622604  1
  S  S34  1  0.67684750  0.55716287  0.90581362  1
  S  S35  1  0.34182743  0.51113051  0.11165161  1
  S  S36  1  0.58927235  0.99976861  0.64413182  1
  S  S37  1  0.42190285  0.05199038  0.36093602  1
  S  S38  1  0.23922497  0.47597302  0.28841677  1
  S  S39  1  0.78335468  0.43778422  0.69688852  1
  S  S40  1  0.67664441  0.97210325  0.45131084  1
  S  S41  1  0.31690206  0.03607064  0.52659739  1
