# generated using pymatgen
data_Pr2Mn3(SbS3)4
_symmetry_space_group_name_H-M   'P 1'
_cell_length_a   20.02960800
_cell_length_b   3.90410600
_cell_length_c   14.95364829
_cell_angle_alpha   90.00000000
_cell_angle_beta   126.33350609
_cell_angle_gamma   90.00000000
_symmetry_Int_Tables_number   1
_chemical_formula_structural   Pr2Mn3(SbS3)4
_chemical_formula_sum   'Pr4 Mn6 Sb8 S24'
_cell_volume   942.00006694
_cell_formula_units_Z   2
loop_
 _symmetry_equiv_pos_site_id
 _symmetry_equiv_pos_as_xyz
  1  'x, y, z'
loop_
 _atom_site_type_symbol
 _atom_site_label
 _atom_site_symmetry_multiplicity
 _atom_site_fract_x
 _atom_site_fract_y
 _atom_site_fract_z
 _atom_site_occupancy
  Pr  Pr0  1  0.26203475  0.48172462  0.86784470  1
  Pr  Pr1  1  0.73497988  0.50174273  0.13787194  1
  Pr  Pr2  1  0.77945644  0.98057624  0.87586052  1
  Pr  Pr3  1  0.23164460  0.02595093  0.12943799  1
  Mn  Mn4  1  0.28229811  0.55067819  0.57023669  1
  Mn  Mn5  1  0.71370837  0.48485564  0.38683747  1
  Mn  Mn6  1  0.00117556  0.00360920  0.99527454  1
  Mn  Mn7  1  0.80125135  0.95743340  0.61322815  1
  Mn  Mn8  1  0.18388145  0.99409797  0.40944312  1
  Mn  Mn9  1  0.52147912  0.46963523  0.03061809  1
  Sb  Sb10  1  0.90613744  0.02257519  0.46930393  1
  Sb  Sb11  1  0.11740007  0.94785207  0.55212768  1
  Sb  Sb12  1  0.02831718  0.52170588  0.80782837  1
  Sb  Sb13  1  0.97161327  0.48582829  0.19382698  1
  Sb  Sb14  1  0.39103317  0.47825844  0.44968156  1
  Sb  Sb15  1  0.62104743  0.47187596  0.55984583  1
  Sb  Sb16  1  0.53813520  0.97000627  0.81669416  1
  Sb  Sb17  1  0.46482364  0.03448568  0.18271457  1
  S  S18  1  0.94330155  0.95649509  0.81892956  1
  S  S19  1  0.06435277  0.01033571  0.20981060  1
  S  S20  1  0.43084462  0.00051323  0.99661106  1
  S  S21  1  0.59998502  0.02769071  0.04538744  1
  S  S22  1  0.18464788  0.95745491  0.91000799  1
  S  S23  1  0.83229275  0.02551272  0.11644832  1
  S  S24  1  0.09637206  0.49658866  0.66429505  1
  S  S25  1  0.90722004  0.47579341  0.36188495  1
  S  S26  1  0.74740249  0.97444783  0.31816300  1
  S  S27  1  0.26454578  0.95767719  0.69692473  1
  S  S28  1  0.14807856  0.48149374  0.43461663  1
  S  S29  1  0.83770202  0.45473851  0.55593175  1
  S  S30  1  0.45969841  0.55514065  0.84058221  1
  S  S31  1  0.57907440  0.55061962  0.23076526  1
  S  S32  1  0.92797689  0.49531406  0.99329213  1
  S  S33  1  0.08348693  0.48006421  0.00605084  1
  S  S34  1  0.67709694  0.55917003  0.90602552  1
  S  S35  1  0.34163118  0.51250926  0.11204118  1
  S  S36  1  0.58929402  0.99897934  0.64412087  1
  S  S37  1  0.42182992  0.05187933  0.36034149  1
  S  S38  1  0.23892397  0.47570891  0.28798634  1
  S  S39  1  0.78319915  0.43882149  0.69695699  1
  S  S40  1  0.67664879  0.97432553  0.45143714  1
  S  S41  1  0.31722219  0.03779525  0.52693862  1
