# generated using pymatgen
data_Pr2Mn3(SbS3)4
_symmetry_space_group_name_H-M   'P 1'
_cell_length_a   20.02960800
_cell_length_b   3.90410600
_cell_length_c   14.95364829
_cell_angle_alpha   90.00000000
_cell_angle_beta   126.33350609
_cell_angle_gamma   90.00000000
_symmetry_Int_Tables_number   1
_chemical_formula_structural   Pr2Mn3(SbS3)4
_chemical_formula_sum   'Pr4 Mn6 Sb8 S24'
_cell_volume   942.00006694
_cell_formula_units_Z   2
loop_
 _symmetry_equiv_pos_site_id
 _symmetry_equiv_pos_as_xyz
  1  'x, y, z'
loop_
 _atom_site_type_symbol
 _atom_site_label
 _atom_site_symmetry_multiplicity
 _atom_site_fract_x
 _atom_site_fract_y
 _atom_site_fract_z
 _atom_site_occupancy
  Pr  Pr0  1  0.27000084  0.50749684  0.87280949  1
  Pr  Pr1  1  0.73449760  0.51885796  0.13538752  1
  Pr  Pr2  1  0.76451515  0.03381909  0.87106443  1
  Pr  Pr3  1  0.22844590  0.96320641  0.12802680  1
  Mn  Mn4  1  0.29920051  0.46260065  0.60960187  1
  Mn  Mn5  1  0.68658497  0.45459569  0.36583207  1
  Mn  Mn6  1  0.99890109  0.98163366  0.00725579  1
  Mn  Mn7  1  0.79043099  0.02512094  0.61405033  1
  Mn  Mn8  1  0.19805404  0.02567922  0.37066407  1
  Mn  Mn9  1  0.47983499  0.47276638  0.97918053  1
  Sb  Sb10  1  0.89088102  0.97122031  0.44824186  1
  Sb  Sb11  1  0.11331650  0.97689447  0.54778589  1
  Sb  Sb12  1  0.03872990  0.52192670  0.82716837  1
  Sb  Sb13  1  0.96845745  0.48450108  0.19250294  1
  Sb  Sb14  1  0.39855035  0.49341750  0.45418699  1
  Sb  Sb15  1  0.61300400  0.48416597  0.54785952  1
  Sb  Sb16  1  0.52909290  0.97278399  0.80513589  1
  Sb  Sb17  1  0.46529988  0.03152144  0.18505538  1
  S  S18  1  0.93936547  0.00063327  0.80411418  1
  S  S19  1  0.06603268  0.99386511  0.20072646  1
  S  S20  1  0.41799520  0.98288516  0.97436380  1
  S  S21  1  0.58548962  0.02474665  0.00879935  1
  S  S22  1  0.16176282  0.02534079  0.89541464  1
  S  S23  1  0.82716970  0.97858366  0.10172862  1
  S  S24  1  0.08875435  0.50050366  0.63583867  1
  S  S25  1  0.91523383  0.50451729  0.35503890  1
  S  S26  1  0.73514585  0.99672752  0.29771060  1
  S  S27  1  0.26321618  0.01518441  0.70423244  1
  S  S28  1  0.17182200  0.52087964  0.44173528  1
  S  S29  1  0.80642859  0.52312092  0.53785919  1
  S  S30  1  0.43308887  0.47223725  0.79920057  1
  S  S31  1  0.55458384  0.49270063  0.17799716  1
  S  S32  1  0.92116846  0.52088584  0.98717013  1
  S  S33  1  0.08529940  0.49700250  0.02161786  1
  S  S34  1  0.66863104  0.55937177  0.89374184  1
  S  S35  1  0.32919438  0.46370142  0.10188334  1
  S  S36  1  0.58866695  0.99660550  0.64296936  1
  S  S37  1  0.39194184  0.99510779  0.33093050  1
  S  S38  1  0.24656023  0.46594903  0.31738898  1
  S  S39  1  0.76377377  0.48980679  0.69355020  1
  S  S40  1  0.65776506  0.98856420  0.43346843  1
  S  S41  1  0.32968809  0.98564510  0.55470679  1
