# generated using pymatgen
data_Pr2Mn3(SbS3)4
_symmetry_space_group_name_H-M   'P 1'
_cell_length_a   20.02960800
_cell_length_b   3.90410600
_cell_length_c   14.95364829
_cell_angle_alpha   90.00000000
_cell_angle_beta   126.33350609
_cell_angle_gamma   90.00000000
_symmetry_Int_Tables_number   1
_chemical_formula_structural   Pr2Mn3(SbS3)4
_chemical_formula_sum   'Pr4 Mn6 Sb8 S24'
_cell_volume   942.00006694
_cell_formula_units_Z   2
loop_
 _symmetry_equiv_pos_site_id
 _symmetry_equiv_pos_as_xyz
  1  'x, y, z'
loop_
 _atom_site_type_symbol
 _atom_site_label
 _atom_site_symmetry_multiplicity
 _atom_site_fract_x
 _atom_site_fract_y
 _atom_site_fract_z
 _atom_site_occupancy
  Pr  Pr0  1  0.26207044  0.48224384  0.86790960  1
  Pr  Pr1  1  0.73510105  0.50199452  0.13773452  1
  Pr  Pr2  1  0.77941914  0.98036812  0.87584889  1
  Pr  Pr3  1  0.23172781  0.02597364  0.12957052  1
  Mn  Mn4  1  0.28226414  0.55076667  0.57025836  1
  Mn  Mn5  1  0.71388036  0.48488826  0.38655148  1
  Mn  Mn6  1  0.00103393  0.00347566  0.99508251  1
  Mn  Mn7  1  0.80139636  0.95756995  0.61351610  1
  Mn  Mn8  1  0.18385380  0.99379346  0.40944450  1
  Mn  Mn9  1  0.52153224  0.47038877  0.03079180  1
  Sb  Sb10  1  0.90624558  0.02211821  0.46957836  1
  Sb  Sb11  1  0.11730599  0.94742819  0.55181658  1
  Sb  Sb12  1  0.02823594  0.52130645  0.80761255  1
  Sb  Sb13  1  0.97173572  0.48522395  0.19398082  1
  Sb  Sb14  1  0.39112927  0.47786250  0.44988352  1
  Sb  Sb15  1  0.62118899  0.47188508  0.55979959  1
  Sb  Sb16  1  0.53805499  0.96956352  0.81656378  1
  Sb  Sb17  1  0.46482094  0.03432407  0.18259548  1
  S  S18  1  0.94349598  0.95725218  0.81911657  1
  S  S19  1  0.06425422  0.00899062  0.20975168  1
  S  S20  1  0.43102447  0.00160802  0.99667770  1
  S  S21  1  0.59995631  0.02648427  0.04548433  1
  S  S22  1  0.18429891  0.95730172  0.91030819  1
  S  S23  1  0.83224314  0.02381215  0.11677803  1
  S  S24  1  0.09661559  0.49456507  0.66438743  1
  S  S25  1  0.90755231  0.47635761  0.36229779  1
  S  S26  1  0.74762991  0.97492060  0.31816735  1
  S  S27  1  0.26456987  0.95767727  0.69716070  1
  S  S28  1  0.14801930  0.48187430  0.43470291  1
  S  S29  1  0.83769007  0.45347590  0.55577389  1
  S  S30  1  0.45985432  0.55466711  0.84062186  1
  S  S31  1  0.57892720  0.54992954  0.23105362  1
  S  S32  1  0.92796815  0.49602760  0.99311109  1
  S  S33  1  0.08343723  0.47915087  0.00610108  1
  S  S34  1  0.67749651  0.56155756  0.90619345  1
  S  S35  1  0.34157901  0.51356879  0.11252558  1
  S  S36  1  0.58939011  0.99794810  0.64412048  1
  S  S37  1  0.42157518  0.05145022  0.35958563  1
  S  S38  1  0.23851526  0.47526998  0.28742637  1
  S  S39  1  0.78301942  0.43978261  0.69698133  1
  S  S40  1  0.67661623  0.97628406  0.45145976  1
  S  S41  1  0.31769128  0.03975981  0.52729006  1
