# generated using pymatgen
data_Pr2Mn3(SbS3)4
_symmetry_space_group_name_H-M   'P 1'
_cell_length_a   20.02960800
_cell_length_b   3.90410600
_cell_length_c   14.95364829
_cell_angle_alpha   90.00000000
_cell_angle_beta   126.33350609
_cell_angle_gamma   90.00000000
_symmetry_Int_Tables_number   1
_chemical_formula_structural   Pr2Mn3(SbS3)4
_chemical_formula_sum   'Pr4 Mn6 Sb8 S24'
_cell_volume   942.00006694
_cell_formula_units_Z   2
loop_
 _symmetry_equiv_pos_site_id
 _symmetry_equiv_pos_as_xyz
  1  'x, y, z'
loop_
 _atom_site_type_symbol
 _atom_site_label
 _atom_site_symmetry_multiplicity
 _atom_site_fract_x
 _atom_site_fract_y
 _atom_site_fract_z
 _atom_site_occupancy
  Pr  Pr0  1  0.26206989  0.48267826  0.86788322  1
  Pr  Pr1  1  0.73522716  0.50225821  0.13763902  1
  Pr  Pr2  1  0.77938720  0.98029754  0.87585818  1
  Pr  Pr3  1  0.23182562  0.02557825  0.12978354  1
  Mn  Mn4  1  0.28224360  0.55144286  0.57030293  1
  Mn  Mn5  1  0.71400132  0.48547138  0.38626984  1
  Mn  Mn6  1  0.00082754  0.00364901  0.99496549  1
  Mn  Mn7  1  0.80158545  0.95815498  0.61386129  1
  Mn  Mn8  1  0.18376725  0.99391232  0.40934651  1
  Mn  Mn9  1  0.52168970  0.47110631  0.03103238  1
  Sb  Sb10  1  0.90633086  0.02198841  0.46977704  1
  Sb  Sb11  1  0.11728022  0.94684085  0.55158096  1
  Sb  Sb12  1  0.02821278  0.52093384  0.80745746  1
  Sb  Sb13  1  0.97187702  0.48461841  0.19406974  1
  Sb  Sb14  1  0.39129257  0.47741608  0.45011769  1
  Sb  Sb15  1  0.62131546  0.47191536  0.55973641  1
  Sb  Sb16  1  0.53789796  0.96934508  0.81651830  1
  Sb  Sb17  1  0.46482493  0.03420157  0.18253409  1
  S  S18  1  0.94370619  0.95795460  0.81929144  1
  S  S19  1  0.06405489  0.00829865  0.20945989  1
  S  S20  1  0.43132674  0.00237402  0.99671791  1
  S  S21  1  0.59993227  0.02470601  0.04561252  1
  S  S22  1  0.18397781  0.95686181  0.91054609  1
  S  S23  1  0.83221434  0.02271603  0.11691684  1
  S  S24  1  0.09672991  0.49257274  0.66437381  1
  S  S25  1  0.90783260  0.47662681  0.36256379  1
  S  S26  1  0.74783884  0.97528985  0.31822137  1
  S  S27  1  0.26452051  0.95775524  0.69731411  1
  S  S28  1  0.14800821  0.48134148  0.43486886  1
  S  S29  1  0.83775624  0.45229734  0.55562237  1
  S  S30  1  0.45985381  0.55472058  0.84047121  1
  S  S31  1  0.57863904  0.54889681  0.23103601  1
  S  S32  1  0.92807203  0.49729359  0.99306377  1
  S  S33  1  0.08328802  0.47835829  0.00640210  1
  S  S34  1  0.67790226  0.56339626  0.90645150  1
  S  S35  1  0.34158717  0.51402321  0.11319870  1
  S  S36  1  0.58966162  0.99695885  0.64409227  1
  S  S37  1  0.42134031  0.05118408  0.35887355  1
  S  S38  1  0.23817499  0.47459183  0.28691031  1
  S  S39  1  0.78278460  0.44026496  0.69692852  1
  S  S40  1  0.67680085  0.97773898  0.45158913  1
  S  S41  1  0.31828255  0.04184637  0.52766235  1
