# generated using pymatgen
data_Pr2Mn3(SbS3)4
_symmetry_space_group_name_H-M   'P 1'
_cell_length_a   20.02960800
_cell_length_b   3.90410600
_cell_length_c   14.95364829
_cell_angle_alpha   90.00000000
_cell_angle_beta   126.33350609
_cell_angle_gamma   90.00000000
_symmetry_Int_Tables_number   1
_chemical_formula_structural   Pr2Mn3(SbS3)4
_chemical_formula_sum   'Pr4 Mn6 Sb8 S24'
_cell_volume   942.00006694
_cell_formula_units_Z   2
loop_
 _symmetry_equiv_pos_site_id
 _symmetry_equiv_pos_as_xyz
  1  'x, y, z'
loop_
 _atom_site_type_symbol
 _atom_site_label
 _atom_site_symmetry_multiplicity
 _atom_site_fract_x
 _atom_site_fract_y
 _atom_site_fract_z
 _atom_site_occupancy
  Pr  Pr0  1  0.26207952  0.48310459  0.86794080  1
  Pr  Pr1  1  0.73536729  0.50254337  0.13753534  1
  Pr  Pr2  1  0.77937340  0.98028191  0.87581310  1
  Pr  Pr3  1  0.23190955  0.02511447  0.12998079  1
  Mn  Mn4  1  0.28226891  0.55254322  0.57040748  1
  Mn  Mn5  1  0.71414821  0.48614280  0.38610624  1
  Mn  Mn6  1  0.00059282  0.00359943  0.99491788  1
  Mn  Mn7  1  0.80167626  0.95902615  0.61420880  1
  Mn  Mn8  1  0.18368232  0.99373939  0.40928166  1
  Mn  Mn9  1  0.52182821  0.47186319  0.03118025  1
  Sb  Sb10  1  0.90642319  0.02205613  0.46995429  1
  Sb  Sb11  1  0.11718246  0.94614826  0.55134021  1
  Sb  Sb12  1  0.02827587  0.52046114  0.80741526  1
  Sb  Sb13  1  0.97198324  0.48397188  0.19420746  1
  Sb  Sb14  1  0.39143065  0.47682098  0.45026663  1
  Sb  Sb15  1  0.62142174  0.47233065  0.55961887  1
  Sb  Sb16  1  0.53772218  0.96919973  0.81643356  1
  Sb  Sb17  1  0.46490903  0.03412401  0.18257593  1
  S  S18  1  0.94407686  0.95878810  0.81955157  1
  S  S19  1  0.06386209  0.00758032  0.20921940  1
  S  S20  1  0.43164772  0.00283108  0.99674899  1
  S  S21  1  0.59996974  0.02291233  0.04587034  1
  S  S22  1  0.18370407  0.95624398  0.91070400  1
  S  S23  1  0.83212459  0.02163121  0.11722007  1
  S  S24  1  0.09671037  0.49020102  0.66413904  1
  S  S25  1  0.90779351  0.47687327  0.36259316  1
  S  S26  1  0.74818315  0.97539306  0.31842928  1
  S  S27  1  0.26449332  0.95805620  0.69751192  1
  S  S28  1  0.14807278  0.48132627  0.43483084  1
  S  S29  1  0.83768157  0.45167447  0.55544488  1
  S  S30  1  0.45973491  0.55442855  0.84013569  1
  S  S31  1  0.57849349  0.54776192  0.23118890  1
  S  S32  1  0.92821041  0.49840481  0.99291236  1
  S  S33  1  0.08309164  0.47745538  0.00660492  1
  S  S34  1  0.67825425  0.56448017  0.90661067  1
  S  S35  1  0.34170687  0.51372393  0.11400617  1
  S  S36  1  0.58986416  0.99597631  0.64411802  1
  S  S37  1  0.42120578  0.05112849  0.35821883  1
  S  S38  1  0.23779124  0.47352519  0.28640697  1
  S  S39  1  0.78259441  0.43978251  0.69683307  1
  S  S40  1  0.67697851  0.97908986  0.45176726  1
  S  S41  1  0.31870276  0.04383148  0.52800093  1
