# generated using pymatgen
data_Pr2Mn3(SbS3)4
_symmetry_space_group_name_H-M   'P 1'
_cell_length_a   20.02960800
_cell_length_b   3.90410600
_cell_length_c   14.95364829
_cell_angle_alpha   90.00000000
_cell_angle_beta   126.33350609
_cell_angle_gamma   90.00000000
_symmetry_Int_Tables_number   1
_chemical_formula_structural   Pr2Mn3(SbS3)4
_chemical_formula_sum   'Pr4 Mn6 Sb8 S24'
_cell_volume   942.00006694
_cell_formula_units_Z   2
loop_
 _symmetry_equiv_pos_site_id
 _symmetry_equiv_pos_as_xyz
  1  'x, y, z'
loop_
 _atom_site_type_symbol
 _atom_site_label
 _atom_site_symmetry_multiplicity
 _atom_site_fract_x
 _atom_site_fract_y
 _atom_site_fract_z
 _atom_site_occupancy
  Pr  Pr0  1  0.26207737  0.48358603  0.86792329  1
  Pr  Pr1  1  0.73550826  0.50308770  0.13751885  1
  Pr  Pr2  1  0.77938081  0.97962129  0.87582881  1
  Pr  Pr3  1  0.23201386  0.02462828  0.13007776  1
  Mn  Mn4  1  0.28222908  0.55366925  0.57040249  1
  Mn  Mn5  1  0.71414465  0.48694998  0.38582325  1
  Mn  Mn6  1  0.00028389  0.00395308  0.99496738  1
  Mn  Mn7  1  0.80186570  0.95979621  0.61461507  1
  Mn  Mn8  1  0.18367623  0.99379018  0.40916015  1
  Mn  Mn9  1  0.52192936  0.47254215  0.03123935  1
  Sb  Sb10  1  0.90654273  0.02193716  0.47017158  1
  Sb  Sb11  1  0.11710553  0.94558170  0.55120121  1
  Sb  Sb12  1  0.02835878  0.51993134  0.80740738  1
  Sb  Sb13  1  0.97206273  0.48313192  0.19443999  1
  Sb  Sb14  1  0.39150364  0.47605479  0.45032235  1
  Sb  Sb15  1  0.62149108  0.47264048  0.55942164  1
  Sb  Sb16  1  0.53751395  0.96857605  0.81626251  1
  Sb  Sb17  1  0.46499635  0.03400044  0.18264214  1
  S  S18  1  0.94429966  0.96032736  0.81955701  1
  S  S19  1  0.06380107  0.00671802  0.20898373  1
  S  S20  1  0.43194241  0.00335293  0.99694042  1
  S  S21  1  0.60005871  0.02134365  0.04598060  1
  S  S22  1  0.18359464  0.95575190  0.91090813  1
  S  S23  1  0.83195417  0.02113773  0.11740320  1
  S  S24  1  0.09665358  0.48810069  0.66404428  1
  S  S25  1  0.90779659  0.47733057  0.36273099  1
  S  S26  1  0.74843694  0.97553268  0.31851078  1
  S  S27  1  0.26445773  0.95798366  0.69748072  1
  S  S28  1  0.14834203  0.48112438  0.43506169  1
  S  S29  1  0.83762101  0.45143640  0.55534791  1
  S  S30  1  0.45967634  0.55397857  0.83982990  1
  S  S31  1  0.57824579  0.54643401  0.23120309  1
  S  S32  1  0.92828264  0.49930076  0.99270589  1
  S  S33  1  0.08281074  0.47648546  0.00669448  1
  S  S34  1  0.67851049  0.56500152  0.90677784  1
  S  S35  1  0.34191350  0.51317411  0.11487816  1
  S  S36  1  0.59004325  0.99490471  0.64409281  1
  S  S37  1  0.42119451  0.05059097  0.35766246  1
  S  S38  1  0.23742553  0.47326825  0.28592467  1
  S  S39  1  0.78234386  0.43893560  0.69657113  1
  S  S40  1  0.67711337  0.98050214  0.45200300  1
  S  S41  1  0.31919571  0.04565888  0.52841871  1
