# generated using pymatgen
data_Pr2Mn3(SbS3)4
_symmetry_space_group_name_H-M   'P 1'
_cell_length_a   20.02960800
_cell_length_b   3.90410600
_cell_length_c   14.95364829
_cell_angle_alpha   90.00000000
_cell_angle_beta   126.33350609
_cell_angle_gamma   90.00000000
_symmetry_Int_Tables_number   1
_chemical_formula_structural   Pr2Mn3(SbS3)4
_chemical_formula_sum   'Pr4 Mn6 Sb8 S24'
_cell_volume   942.00006694
_cell_formula_units_Z   2
loop_
 _symmetry_equiv_pos_site_id
 _symmetry_equiv_pos_as_xyz
  1  'x, y, z'
loop_
 _atom_site_type_symbol
 _atom_site_label
 _atom_site_symmetry_multiplicity
 _atom_site_fract_x
 _atom_site_fract_y
 _atom_site_fract_z
 _atom_site_occupancy
  Pr  Pr0  1  0.26217119  0.48425717  0.86793826  1
  Pr  Pr1  1  0.73559801  0.50351768  0.13751638  1
  Pr  Pr2  1  0.77940053  0.97920505  0.87587247  1
  Pr  Pr3  1  0.23217711  0.02423075  0.13021223  1
  Mn  Mn4  1  0.28212282  0.55425737  0.57038906  1
  Mn  Mn5  1  0.71407691  0.48797009  0.38548844  1
  Mn  Mn6  1  0.00005400  0.00353865  0.99487717  1
  Mn  Mn7  1  0.80209240  0.96053678  0.61489777  1
  Mn  Mn8  1  0.18369408  0.99406570  0.40905939  1
  Mn  Mn9  1  0.52201908  0.47362367  0.03139549  1
  Sb  Sb10  1  0.90658970  0.02173874  0.47033668  1
  Sb  Sb11  1  0.11703669  0.94516896  0.55112560  1
  Sb  Sb12  1  0.02846089  0.51958085  0.80732283  1
  Sb  Sb13  1  0.97215188  0.48229846  0.19469809  1
  Sb  Sb14  1  0.39153518  0.47566673  0.45037361  1
  Sb  Sb15  1  0.62164538  0.47276097  0.55928069  1
  Sb  Sb16  1  0.53732439  0.96817562  0.81608336  1
  Sb  Sb17  1  0.46502567  0.03393183  0.18274411  1
  S  S18  1  0.94448224  0.96162441  0.81961536  1
  S  S19  1  0.06374947  0.00628128  0.20883099  1
  S  S20  1  0.43208576  0.00374862  0.99692842  1
  S  S21  1  0.60009055  0.02005930  0.04601605  1
  S  S22  1  0.18356363  0.95515982  0.91126393  1
  S  S23  1  0.83171631  0.02010498  0.11756709  1
  S  S24  1  0.09670738  0.48694718  0.66410042  1
  S  S25  1  0.90767954  0.47783286  0.36278426  1
  S  S26  1  0.74873064  0.97601906  0.31857165  1
  S  S27  1  0.26444601  0.95850110  0.69738182  1
  S  S28  1  0.14858362  0.48069775  0.43526039  1
  S  S29  1  0.83755554  0.45156313  0.55533323  1
  S  S30  1  0.45960387  0.55389943  0.83955679  1
  S  S31  1  0.57820422  0.54449095  0.23152177  1
  S  S32  1  0.92815265  0.50087475  0.99235435  1
  S  S33  1  0.08265340  0.47597965  0.00674306  1
  S  S34  1  0.67866676  0.56511914  0.90694302  1
  S  S35  1  0.34200251  0.51270220  0.11571991  1
  S  S36  1  0.59009228  0.99403493  0.64386329  1
  S  S37  1  0.42130204  0.04956104  0.35722577  1
  S  S38  1  0.23716641  0.47322741  0.28568761  1
  S  S39  1  0.78206191  0.43836899  0.69612220  1
  S  S40  1  0.67745531  0.98160638  0.45257153  1
  S  S41  1  0.31967859  0.04720370  0.52871860  1
