# generated using pymatgen
data_Pr2Mn3(SbS3)4
_symmetry_space_group_name_H-M   'P 1'
_cell_length_a   20.02960800
_cell_length_b   3.90410600
_cell_length_c   14.95364829
_cell_angle_alpha   90.00000000
_cell_angle_beta   126.33350609
_cell_angle_gamma   90.00000000
_symmetry_Int_Tables_number   1
_chemical_formula_structural   Pr2Mn3(SbS3)4
_chemical_formula_sum   'Pr4 Mn6 Sb8 S24'
_cell_volume   942.00006694
_cell_formula_units_Z   2
loop_
 _symmetry_equiv_pos_site_id
 _symmetry_equiv_pos_as_xyz
  1  'x, y, z'
loop_
 _atom_site_type_symbol
 _atom_site_label
 _atom_site_symmetry_multiplicity
 _atom_site_fract_x
 _atom_site_fract_y
 _atom_site_fract_z
 _atom_site_occupancy
  Pr  Pr0  1  0.26223956  0.48474325  0.86800218  1
  Pr  Pr1  1  0.73572188  0.50361083  0.13758448  1
  Pr  Pr2  1  0.77937468  0.97860119  0.87588063  1
  Pr  Pr3  1  0.23225804  0.02391310  0.13023752  1
  Mn  Mn4  1  0.28191707  0.55436693  0.57031740  1
  Mn  Mn5  1  0.71406749  0.48875481  0.38531982  1
  Mn  Mn6  1  0.99999169  0.00303627  0.99493222  1
  Mn  Mn7  1  0.80227463  0.96131866  0.61520571  1
  Mn  Mn8  1  0.18372306  0.99440381  0.40905814  1
  Mn  Mn9  1  0.52215396  0.47464916  0.03151257  1
  Sb  Sb10  1  0.90660720  0.02168648  0.47042864  1
  Sb  Sb11  1  0.11696202  0.94435847  0.55117361  1
  Sb  Sb12  1  0.02857253  0.51923295  0.80723989  1
  Sb  Sb13  1  0.97231633  0.48144771  0.19498968  1
  Sb  Sb14  1  0.39153090  0.47526301  0.45048336  1
  Sb  Sb15  1  0.62173788  0.47302705  0.55899485  1
  Sb  Sb16  1  0.53707891  0.96752053  0.81583415  1
  Sb  Sb17  1  0.46508148  0.03388696  0.18283211  1
  S  S18  1  0.94480556  0.96333084  0.81985395  1
  S  S19  1  0.06382392  0.00609585  0.20896768  1
  S  S20  1  0.43220793  0.00469277  0.99701697  1
  S  S21  1  0.60009064  0.01849925  0.04621153  1
  S  S22  1  0.18366880  0.95494760  0.91175335  1
  S  S23  1  0.83148750  0.01945828  0.11764884  1
  S  S24  1  0.09679033  0.48550874  0.66412952  1
  S  S25  1  0.90761919  0.47865996  0.36283165  1
  S  S26  1  0.74889292  0.97634268  0.31872982  1
  S  S27  1  0.26446173  0.95904712  0.69733813  1
  S  S28  1  0.14863679  0.47995818  0.43537042  1
  S  S29  1  0.83766487  0.45146039  0.55545350  1
  S  S30  1  0.45946387  0.55356497  0.83904460  1
  S  S31  1  0.57802705  0.54248503  0.23179258  1
  S  S32  1  0.92812124  0.50268682  0.99207255  1
  S  S33  1  0.08238697  0.47588741  0.00667598  1
  S  S34  1  0.67880706  0.56545770  0.90679890  1
  S  S35  1  0.34201588  0.51231760  0.11631180  1
  S  S36  1  0.59009356  0.99308386  0.64327310  1
  S  S37  1  0.42151300  0.04910296  0.35700512  1
  S  S38  1  0.23699815  0.47326622  0.28544124  1
  S  S39  1  0.78180350  0.43791073  0.69552118  1
  S  S40  1  0.67778955  0.98258834  0.45284639  1
  S  S41  1  0.32015007  0.04877778  0.52888140  1
