# generated using pymatgen
data_Pr2Mn3(SbS3)4
_symmetry_space_group_name_H-M   'P 1'
_cell_length_a   20.02960800
_cell_length_b   3.90410600
_cell_length_c   14.95364829
_cell_angle_alpha   90.00000000
_cell_angle_beta   126.33350609
_cell_angle_gamma   90.00000000
_symmetry_Int_Tables_number   1
_chemical_formula_structural   Pr2Mn3(SbS3)4
_chemical_formula_sum   'Pr4 Mn6 Sb8 S24'
_cell_volume   942.00006694
_cell_formula_units_Z   2
loop_
 _symmetry_equiv_pos_site_id
 _symmetry_equiv_pos_as_xyz
  1  'x, y, z'
loop_
 _atom_site_type_symbol
 _atom_site_label
 _atom_site_symmetry_multiplicity
 _atom_site_fract_x
 _atom_site_fract_y
 _atom_site_fract_z
 _atom_site_occupancy
  Pr  Pr0  1  0.26222638  0.48538125  0.86794948  1
  Pr  Pr1  1  0.73586434  0.50336239  0.13775343  1
  Pr  Pr2  1  0.77936897  0.97789358  0.87591596  1
  Pr  Pr3  1  0.23239297  0.02386404  0.13028424  1
  Mn  Mn4  1  0.28176156  0.55404205  0.57015426  1
  Mn  Mn5  1  0.71406228  0.48942534  0.38512173  1
  Mn  Mn6  1  0.99991966  0.00194418  0.99495074  1
  Mn  Mn7  1  0.80250263  0.96171167  0.61559671  1
  Mn  Mn8  1  0.18377627  0.99497561  0.40898892  1
  Mn  Mn9  1  0.52221557  0.47529471  0.03148922  1
  Sb  Sb10  1  0.90661007  0.02150453  0.47048899  1
  Sb  Sb11  1  0.11690837  0.94339306  0.55124097  1
  Sb  Sb12  1  0.02863549  0.51920090  0.80711127  1
  Sb  Sb13  1  0.97250950  0.48051363  0.19535343  1
  Sb  Sb14  1  0.39156258  0.47480346  0.45055757  1
  Sb  Sb15  1  0.62174713  0.47337137  0.55871593  1
  Sb  Sb16  1  0.53684114  0.96693053  0.81554023  1
  Sb  Sb17  1  0.46512906  0.03348651  0.18291419  1
  S  S18  1  0.94515376  0.96501159  0.82004506  1
  S  S19  1  0.06381942  0.00613528  0.20904632  1
  S  S20  1  0.43219477  0.00566144  0.99707455  1
  S  S21  1  0.60020804  0.01686848  0.04645720  1
  S  S22  1  0.18395538  0.95521714  0.91229651  1
  S  S23  1  0.83131717  0.01854018  0.11773963  1
  S  S24  1  0.09692662  0.48461365  0.66408489  1
  S  S25  1  0.90763492  0.48039895  0.36277345  1
  S  S26  1  0.74909615  0.97644764  0.31902034  1
  S  S27  1  0.26431687  0.95971224  0.69706491  1
  S  S28  1  0.14866478  0.47918957  0.43559324  1
  S  S29  1  0.83784289  0.45095382  0.55570072  1
  S  S30  1  0.45930021  0.55313902  0.83860507  1
  S  S31  1  0.57783972  0.54035597  0.23197856  1
  S  S32  1  0.92807482  0.50431130  0.99182852  1
  S  S33  1  0.08218372  0.47571364  0.00675959  1
  S  S34  1  0.67902337  0.56571523  0.90684027  1
  S  S35  1  0.34198174  0.51188121  0.11679315  1
  S  S36  1  0.59012630  0.99240401  0.64305726  1
  S  S37  1  0.42177286  0.04899083  0.35710254  1
  S  S38  1  0.23688497  0.47298441  0.28527995  1
  S  S39  1  0.78150118  0.43733772  0.69502596  1
  S  S40  1  0.67815255  0.98314706  0.45300952  1
  S  S41  1  0.32056256  0.05016832  0.52911916  1
