# generated using pymatgen
data_Pr2Mn3(SbS3)4
_symmetry_space_group_name_H-M   'P 1'
_cell_length_a   20.02960800
_cell_length_b   3.90410600
_cell_length_c   14.95364829
_cell_angle_alpha   90.00000000
_cell_angle_beta   126.33350609
_cell_angle_gamma   90.00000000
_symmetry_Int_Tables_number   1
_chemical_formula_structural   Pr2Mn3(SbS3)4
_chemical_formula_sum   'Pr4 Mn6 Sb8 S24'
_cell_volume   942.00006694
_cell_formula_units_Z   2
loop_
 _symmetry_equiv_pos_site_id
 _symmetry_equiv_pos_as_xyz
  1  'x, y, z'
loop_
 _atom_site_type_symbol
 _atom_site_label
 _atom_site_symmetry_multiplicity
 _atom_site_fract_x
 _atom_site_fract_y
 _atom_site_fract_z
 _atom_site_occupancy
  Pr  Pr0  1  0.26219629  0.48614811  0.86796789  1
  Pr  Pr1  1  0.73599089  0.50338199  0.13786555  1
  Pr  Pr2  1  0.77933293  0.97734226  0.87587246  1
  Pr  Pr3  1  0.23256222  0.02375968  0.13044637  1
  Mn  Mn4  1  0.28160839  0.55360870  0.57007112  1
  Mn  Mn5  1  0.71407176  0.49028282  0.38489347  1
  Mn  Mn6  1  0.99987037  0.00054198  0.99487076  1
  Mn  Mn7  1  0.80266516  0.96214019  0.61600695  1
  Mn  Mn8  1  0.18382636  0.99554925  0.40888541  1
  Mn  Mn9  1  0.52226564  0.47564777  0.03156576  1
  Sb  Sb10  1  0.90661610  0.02120944  0.47046114  1
  Sb  Sb11  1  0.11688570  0.94254569  0.55130827  1
  Sb  Sb12  1  0.02876741  0.51896164  0.80697024  1
  Sb  Sb13  1  0.97267681  0.47984395  0.19571862  1
  Sb  Sb14  1  0.39161018  0.47466386  0.45061869  1
  Sb  Sb15  1  0.62172808  0.47381343  0.55842631  1
  Sb  Sb16  1  0.53661948  0.96648352  0.81524869  1
  Sb  Sb17  1  0.46518498  0.03292840  0.18301205  1
  S  S18  1  0.94551092  0.96687083  0.82036141  1
  S  S19  1  0.06386185  0.00591464  0.20902688  1
  S  S20  1  0.43209507  0.00646219  0.99693989  1
  S  S21  1  0.60023622  0.01484624  0.04659289  1
  S  S22  1  0.18423533  0.95541184  0.91276524  1
  S  S23  1  0.83125514  0.01735063  0.11769870  1
  S  S24  1  0.09710561  0.48362838  0.66405453  1
  S  S25  1  0.90777138  0.48171424  0.36291404  1
  S  S26  1  0.74939621  0.97681869  0.31950206  1
  S  S27  1  0.26431784  0.96070919  0.69694541  1
  S  S28  1  0.14877189  0.47828351  0.43593458  1
  S  S29  1  0.83803325  0.45096375  0.55592073  1
  S  S30  1  0.45911201  0.55353288  0.83816435  1
  S  S31  1  0.57773917  0.53788562  0.23219793  1
  S  S32  1  0.92805495  0.50603586  0.99142228  1
  S  S33  1  0.08202730  0.47562948  0.00661769  1
  S  S34  1  0.67917240  0.56539486  0.90704479  1
  S  S35  1  0.34199391  0.51124980  0.11716090  1
  S  S36  1  0.59015675  0.99193071  0.64292102  1
  S  S37  1  0.42203790  0.04888647  0.35721660  1
  S  S38  1  0.23666020  0.47268783  0.28511947  1
  S  S39  1  0.78124396  0.43685145  0.69462913  1
  S  S40  1  0.67853147  0.98315789  0.45322585  1
  S  S41  1  0.32095305  0.05143614  0.52935902  1
