# generated using pymatgen
data_Pr2Mn3(SbS3)4
_symmetry_space_group_name_H-M   'P 1'
_cell_length_a   20.02960800
_cell_length_b   3.90410600
_cell_length_c   14.95364829
_cell_angle_alpha   90.00000000
_cell_angle_beta   126.33350609
_cell_angle_gamma   90.00000000
_symmetry_Int_Tables_number   1
_chemical_formula_structural   Pr2Mn3(SbS3)4
_chemical_formula_sum   'Pr4 Mn6 Sb8 S24'
_cell_volume   942.00006694
_cell_formula_units_Z   2
loop_
 _symmetry_equiv_pos_site_id
 _symmetry_equiv_pos_as_xyz
  1  'x, y, z'
loop_
 _atom_site_type_symbol
 _atom_site_label
 _atom_site_symmetry_multiplicity
 _atom_site_fract_x
 _atom_site_fract_y
 _atom_site_fract_z
 _atom_site_occupancy
  Pr  Pr0  1  0.26218337  0.48669830  0.86807905  1
  Pr  Pr1  1  0.73604986  0.50321514  0.13785431  1
  Pr  Pr2  1  0.77930852  0.97671471  0.87595044  1
  Pr  Pr3  1  0.23274354  0.02392729  0.13053595  1
  Mn  Mn4  1  0.28146237  0.55287585  0.57005145  1
  Mn  Mn5  1  0.71410357  0.49134492  0.38463057  1
  Mn  Mn6  1  0.99987801  0.99917853  0.99490762  1
  Mn  Mn7  1  0.80258929  0.96247515  0.61619134  1
  Mn  Mn8  1  0.18380773  0.99616698  0.40861469  1
  Mn  Mn9  1  0.52234183  0.47588275  0.03161861  1
  Sb  Sb10  1  0.90665623  0.02110461  0.47056305  1
  Sb  Sb11  1  0.11695817  0.94215129  0.55148990  1
  Sb  Sb12  1  0.02878918  0.51890506  0.80674716  1
  Sb  Sb13  1  0.97275776  0.47898710  0.19597996  1
  Sb  Sb14  1  0.39164643  0.47453927  0.45072704  1
  Sb  Sb15  1  0.62170195  0.47412540  0.55827174  1
  Sb  Sb16  1  0.53638547  0.96592760  0.81497511  1
  Sb  Sb17  1  0.46522287  0.03261899  0.18308027  1
  S  S18  1  0.94587639  0.96878310  0.82064799  1
  S  S19  1  0.06402992  0.00579131  0.20905255  1
  S  S20  1  0.43187619  0.00763088  0.99684453  1
  S  S21  1  0.60040629  0.01323172  0.04687616  1
  S  S22  1  0.18449582  0.95613199  0.91311085  1
  S  S23  1  0.83123326  0.01641411  0.11776686  1
  S  S24  1  0.09711835  0.48269397  0.66378288  1
  S  S25  1  0.90790008  0.48221072  0.36310701  1
  S  S26  1  0.74948405  0.97663216  0.31978208  1
  S  S27  1  0.26440194  0.96110814  0.69682258  1
  S  S28  1  0.14889802  0.47751254  0.43630825  1
  S  S29  1  0.83837686  0.45077106  0.55630636  1
  S  S30  1  0.45899522  0.55384120  0.83788453  1
  S  S31  1  0.57763079  0.53566527  0.23217865  1
  S  S32  1  0.92806418  0.50733338  0.99112046  1
  S  S33  1  0.08186213  0.47558361  0.00655832  1
  S  S34  1  0.67927935  0.56562224  0.90717134  1
  S  S35  1  0.34182272  0.51036141  0.11732332  1
  S  S36  1  0.59012719  0.99125267  0.64275582  1
  S  S37  1  0.42226567  0.04881543  0.35717903  1
  S  S38  1  0.23633728  0.47212660  0.28491352  1
  S  S39  1  0.78100968  0.43653018  0.69441972  1
  S  S40  1  0.67906141  0.98289557  0.45353903  1
  S  S41  1  0.32132488  0.05193621  0.52965812  1
