# generated using pymatgen
data_Pr2Mn3(SbS3)4
_symmetry_space_group_name_H-M   'P 1'
_cell_length_a   20.02960800
_cell_length_b   3.90410600
_cell_length_c   14.95364829
_cell_angle_alpha   90.00000000
_cell_angle_beta   126.33350609
_cell_angle_gamma   90.00000000
_symmetry_Int_Tables_number   1
_chemical_formula_structural   Pr2Mn3(SbS3)4
_chemical_formula_sum   'Pr4 Mn6 Sb8 S24'
_cell_volume   942.00006694
_cell_formula_units_Z   2
loop_
 _symmetry_equiv_pos_site_id
 _symmetry_equiv_pos_as_xyz
  1  'x, y, z'
loop_
 _atom_site_type_symbol
 _atom_site_label
 _atom_site_symmetry_multiplicity
 _atom_site_fract_x
 _atom_site_fract_y
 _atom_site_fract_z
 _atom_site_occupancy
  Pr  Pr0  1  0.26215119  0.48711065  0.86817669  1
  Pr  Pr1  1  0.73610572  0.50333744  0.13789758  1
  Pr  Pr2  1  0.77924079  0.97610080  0.87600194  1
  Pr  Pr3  1  0.23287360  0.02377191  0.13056562  1
  Mn  Mn4  1  0.28128839  0.55226452  0.57004936  1
  Mn  Mn5  1  0.71412252  0.49218026  0.38433404  1
  Mn  Mn6  1  0.00000018  0.99819071  0.99496030  1
  Mn  Mn7  1  0.80240167  0.96304959  0.61628954  1
  Mn  Mn8  1  0.18378783  0.99653881  0.40841460  1
  Mn  Mn9  1  0.52247938  0.47601463  0.03172708  1
  Sb  Sb10  1  0.90670211  0.02110306  0.47068287  1
  Sb  Sb11  1  0.11699599  0.94179925  0.55161376  1
  Sb  Sb12  1  0.02881580  0.51890551  0.80653843  1
  Sb  Sb13  1  0.97285388  0.47799160  0.19633234  1
  Sb  Sb14  1  0.39171929  0.47455278  0.45090421  1
  Sb  Sb15  1  0.62161721  0.47431374  0.55801980  1
  Sb  Sb16  1  0.53616481  0.96534549  0.81471932  1
  Sb  Sb17  1  0.46522949  0.03259407  0.18315282  1
  S  S18  1  0.94620793  0.97084561  0.82095322  1
  S  S19  1  0.06420076  0.00602215  0.20911652  1
  S  S20  1  0.43184471  0.00964330  0.99684307  1
  S  S21  1  0.60053584  0.01161343  0.04703800  1
  S  S22  1  0.18470793  0.95628639  0.91333249  1
  S  S23  1  0.83147350  0.01615112  0.11799055  1
  S  S24  1  0.09713079  0.48156717  0.66351974  1
  S  S25  1  0.90790776  0.48255912  0.36321194  1
  S  S26  1  0.74967936  0.97715024  0.32011906  1
  S  S27  1  0.26445563  0.96124936  0.69655554  1
  S  S28  1  0.14931280  0.47652278  0.43695500  1
  S  S29  1  0.83872404  0.45073235  0.55673789  1
  S  S30  1  0.45881843  0.55451096  0.83767507  1
  S  S31  1  0.57741302  0.53417046  0.23222480  1
  S  S32  1  0.92808503  0.50860777  0.99093364  1
  S  S33  1  0.08177583  0.47525352  0.00668964  1
  S  S34  1  0.67932306  0.56612371  0.90723658  1
  S  S35  1  0.34172770  0.51017439  0.11754825  1
  S  S36  1  0.59027281  0.99018039  0.64286619  1
  S  S37  1  0.42228446  0.04860293  0.35700784  1
  S  S38  1  0.23591640  0.47176358  0.28472102  1
  S  S39  1  0.78091834  0.43605002  0.69431707  1
  S  S40  1  0.67949333  0.98304674  0.45376718  1
  S  S41  1  0.32165335  0.05256303  0.52985554  1
