# generated using pymatgen
data_Pr2Mn3(SbS3)4
_symmetry_space_group_name_H-M   'P 1'
_cell_length_a   20.02960800
_cell_length_b   3.90410600
_cell_length_c   14.95364829
_cell_angle_alpha   90.00000000
_cell_angle_beta   126.33350609
_cell_angle_gamma   90.00000000
_symmetry_Int_Tables_number   1
_chemical_formula_structural   Pr2Mn3(SbS3)4
_chemical_formula_sum   'Pr4 Mn6 Sb8 S24'
_cell_volume   942.00006694
_cell_formula_units_Z   2
loop_
 _symmetry_equiv_pos_site_id
 _symmetry_equiv_pos_as_xyz
  1  'x, y, z'
loop_
 _atom_site_type_symbol
 _atom_site_label
 _atom_site_symmetry_multiplicity
 _atom_site_fract_x
 _atom_site_fract_y
 _atom_site_fract_z
 _atom_site_occupancy
  Pr  Pr0  1  0.26993875  0.50750325  0.87311015  1
  Pr  Pr1  1  0.73445565  0.51909925  0.13532808  1
  Pr  Pr2  1  0.76448871  0.03381742  0.87115418  1
  Pr  Pr3  1  0.22830772  0.96241885  0.12783945  1
  Mn  Mn4  1  0.29901801  0.46127779  0.60951549  1
  Mn  Mn5  1  0.68660054  0.45435138  0.36571168  1
  Mn  Mn6  1  0.99890680  0.98158569  0.00745450  1
  Mn  Mn7  1  0.79035449  0.02485778  0.61418720  1
  Mn  Mn8  1  0.19810708  0.02630985  0.37078367  1
  Mn  Mn9  1  0.47967082  0.47341558  0.97877432  1
  Sb  Sb10  1  0.89102358  0.97097354  0.44841430  1
  Sb  Sb11  1  0.11335993  0.97671231  0.54788410  1
  Sb  Sb12  1  0.03874287  0.52142173  0.82725999  1
  Sb  Sb13  1  0.96844520  0.48418261  0.19244872  1
  Sb  Sb14  1  0.39857605  0.49325791  0.45411460  1
  Sb  Sb15  1  0.61311420  0.48446334  0.54792740  1
  Sb  Sb16  1  0.52914399  0.97307892  0.80526737  1
  Sb  Sb17  1  0.46535092  0.03186041  0.18508496  1
  S  S18  1  0.93919009  0.99950312  0.80389674  1
  S  S19  1  0.06606378  0.99279338  0.20078914  1
  S  S20  1  0.41814391  0.98215340  0.97435429  1
  S  S21  1  0.58531404  0.02525646  0.00856918  1
  S  S22  1  0.16177330  0.02529332  0.89525861  1
  S  S23  1  0.82741995  0.97775781  0.10209979  1
  S  S24  1  0.08898474  0.50065990  0.63600142  1
  S  S25  1  0.91515188  0.50586106  0.35518896  1
  S  S26  1  0.73527038  0.99615764  0.29802505  1
  S  S27  1  0.26345835  0.01446158  0.70444569  1
  S  S28  1  0.17203767  0.52066915  0.44206759  1
  S  S29  1  0.80618527  0.52382321  0.53774167  1
  S  S30  1  0.43292994  0.47215133  0.79884267  1
  S  S31  1  0.55458785  0.49182917  0.17782416  1
  S  S32  1  0.92101336  0.52177029  0.98711326  1
  S  S33  1  0.08503499  0.49634221  0.02150134  1
  S  S34  1  0.66871957  0.55865346  0.89359393  1
  S  S35  1  0.32914042  0.46391449  0.10180282  1
  S  S36  1  0.58879922  0.99535526  0.64285862  1
  S  S37  1  0.39211574  0.99593275  0.33091155  1
  S  S38  1  0.24635106  0.46671200  0.31720566  1
  S  S39  1  0.76368413  0.48923900  0.69355906  1
  S  S40  1  0.65757720  0.98889633  0.43330277  1
  S  S41  1  0.32965932  0.98513204  0.55481595  1
