# generated using pymatgen
data_Pr2Mn3(SbS3)4
_symmetry_space_group_name_H-M   'P 1'
_cell_length_a   20.02960800
_cell_length_b   3.90410600
_cell_length_c   14.95364829
_cell_angle_alpha   90.00000000
_cell_angle_beta   126.33350609
_cell_angle_gamma   90.00000000
_symmetry_Int_Tables_number   1
_chemical_formula_structural   Pr2Mn3(SbS3)4
_chemical_formula_sum   'Pr4 Mn6 Sb8 S24'
_cell_volume   942.00006694
_cell_formula_units_Z   2
loop_
 _symmetry_equiv_pos_site_id
 _symmetry_equiv_pos_as_xyz
  1  'x, y, z'
loop_
 _atom_site_type_symbol
 _atom_site_label
 _atom_site_symmetry_multiplicity
 _atom_site_fract_x
 _atom_site_fract_y
 _atom_site_fract_z
 _atom_site_occupancy
  Pr  Pr0  1  0.26218842  0.48747056  0.86835397  1
  Pr  Pr1  1  0.73619508  0.50338149  0.13789864  1
  Pr  Pr2  1  0.77919955  0.97526489  0.87607354  1
  Pr  Pr3  1  0.23305104  0.02376965  0.13066206  1
  Mn  Mn4  1  0.28123386  0.55203346  0.57014560  1
  Mn  Mn5  1  0.71409702  0.49337284  0.38408647  1
  Mn  Mn6  1  0.00014446  0.99684879  0.99510841  1
  Mn  Mn7  1  0.80221283  0.96403376  0.61628875  1
  Mn  Mn8  1  0.18374722  0.99664587  0.40815774  1
  Mn  Mn9  1  0.52250996  0.47603426  0.03172668  1
  Sb  Sb10  1  0.90672443  0.02131733  0.47081084  1
  Sb  Sb11  1  0.11703273  0.94162741  0.55170321  1
  Sb  Sb12  1  0.02884376  0.51873898  0.80634776  1
  Sb  Sb13  1  0.97297046  0.47715870  0.19663780  1
  Sb  Sb14  1  0.39179010  0.47457476  0.45111092  1
  Sb  Sb15  1  0.62150381  0.47464562  0.55779515  1
  Sb  Sb16  1  0.53601394  0.96513535  0.81449196  1
  Sb  Sb17  1  0.46521289  0.03240182  0.18324724  1
  S  S18  1  0.94646219  0.97260502  0.82107550  1
  S  S19  1  0.06434963  0.00637109  0.20925815  1
  S  S20  1  0.43178707  0.01149880  0.99663966  1
  S  S21  1  0.60060505  0.00999202  0.04714360  1
  S  S22  1  0.18511507  0.95607907  0.91367147  1
  S  S23  1  0.83149266  0.01640756  0.11794484  1
  S  S24  1  0.09719834  0.48141353  0.66323448  1
  S  S25  1  0.90773853  0.48250380  0.36307176  1
  S  S26  1  0.74977816  0.97720205  0.32026136  1
  S  S27  1  0.26458877  0.96131989  0.69614907  1
  S  S28  1  0.14967850  0.47539196  0.43762603  1
  S  S29  1  0.83890769  0.45005807  0.55682221  1
  S  S30  1  0.45855902  0.55523527  0.83753436  1
  S  S31  1  0.57706495  0.53310745  0.23212548  1
  S  S32  1  0.92803701  0.50981914  0.99085997  1
  S  S33  1  0.08173316  0.47551827  0.00698185  1
  S  S34  1  0.67929522  0.56623601  0.90737474  1
  S  S35  1  0.34152742  0.50946705  0.11764480  1
  S  S36  1  0.59021651  0.98972949  0.64303671  1
  S  S37  1  0.42230561  0.04826430  0.35685227  1
  S  S38  1  0.23563212  0.47121428  0.28456484  1
  S  S39  1  0.78079977  0.43537404  0.69433012  1
  S  S40  1  0.67979889  0.98287513  0.45391628  1
  S  S41  1  0.32221768  0.05344011  0.53033016  1
