# generated using pymatgen
data_Pr2Mn3(SbS3)4
_symmetry_space_group_name_H-M   'P 1'
_cell_length_a   20.02960800
_cell_length_b   3.90410600
_cell_length_c   14.95364829
_cell_angle_alpha   90.00000000
_cell_angle_beta   126.33350609
_cell_angle_gamma   90.00000000
_symmetry_Int_Tables_number   1
_chemical_formula_structural   Pr2Mn3(SbS3)4
_chemical_formula_sum   'Pr4 Mn6 Sb8 S24'
_cell_volume   942.00006694
_cell_formula_units_Z   2
loop_
 _symmetry_equiv_pos_site_id
 _symmetry_equiv_pos_as_xyz
  1  'x, y, z'
loop_
 _atom_site_type_symbol
 _atom_site_label
 _atom_site_symmetry_multiplicity
 _atom_site_fract_x
 _atom_site_fract_y
 _atom_site_fract_z
 _atom_site_occupancy
  Pr  Pr0  1  0.26228155  0.48783254  0.86857200  1
  Pr  Pr1  1  0.73620847  0.50330572  0.13778835  1
  Pr  Pr2  1  0.77908219  0.97450077  0.87611076  1
  Pr  Pr3  1  0.23330694  0.02375106  0.13086610  1
  Mn  Mn4  1  0.28104302  0.55146089  0.57021482  1
  Mn  Mn5  1  0.71403151  0.49422574  0.38384154  1
  Mn  Mn6  1  0.00025102  0.99524854  0.99518860  1
  Mn  Mn7  1  0.80197470  0.96505540  0.61620330  1
  Mn  Mn8  1  0.18373079  0.99660041  0.40786967  1
  Mn  Mn9  1  0.52254787  0.47550927  0.03174528  1
  Sb  Sb10  1  0.90675288  0.02166322  0.47095830  1
  Sb  Sb11  1  0.11704478  0.94153249  0.55184066  1
  Sb  Sb12  1  0.02893081  0.51867882  0.80620740  1
  Sb  Sb13  1  0.97304974  0.47630425  0.19682504  1
  Sb  Sb14  1  0.39182292  0.47451614  0.45128302  1
  Sb  Sb15  1  0.62135647  0.47528629  0.55748720  1
  Sb  Sb16  1  0.53599112  0.96499348  0.81443134  1
  Sb  Sb17  1  0.46528435  0.03217527  0.18346859  1
  S  S18  1  0.94676238  0.97394790  0.82134895  1
  S  S19  1  0.06446314  0.00650181  0.20928736  1
  S  S20  1  0.43174963  0.01295441  0.99662280  1
  S  S21  1  0.60071116  0.00862953  0.04702843  1
  S  S22  1  0.18538487  0.95625862  0.91390011  1
  S  S23  1  0.83143112  0.01608303  0.11782993  1
  S  S24  1  0.09730008  0.48057308  0.66310112  1
  S  S25  1  0.90766471  0.48294587  0.36299533  1
  S  S26  1  0.75000553  0.97672845  0.32059017  1
  S  S27  1  0.26456451  0.96113241  0.69575148  1
  S  S28  1  0.15012408  0.47402622  0.43844194  1
  S  S29  1  0.83895160  0.44882299  0.55697839  1
  S  S30  1  0.45844803  0.55537718  0.83765627  1
  S  S31  1  0.57677742  0.53143989  0.23218361  1
  S  S32  1  0.92788770  0.51075020  0.99078399  1
  S  S33  1  0.08189535  0.47574328  0.00733232  1
  S  S34  1  0.67923920  0.56622412  0.90752684  1
  S  S35  1  0.34140308  0.50966798  0.11789345  1
  S  S36  1  0.58991530  0.98932811  0.64298540  1
  S  S37  1  0.42245069  0.04876349  0.35687773  1
  S  S38  1  0.23545772  0.47125330  0.28447371  1
  S  S39  1  0.78052325  0.43428369  0.69429974  1
  S  S40  1  0.68021434  0.98163631  0.45416725  1
  S  S41  1  0.32272999  0.05381498  0.53081565  1
