# generated using pymatgen
data_Pr2Mn3(SbS3)4
_symmetry_space_group_name_H-M   'P 1'
_cell_length_a   20.02960800
_cell_length_b   3.90410600
_cell_length_c   14.95364829
_cell_angle_alpha   90.00000000
_cell_angle_beta   126.33350609
_cell_angle_gamma   90.00000000
_symmetry_Int_Tables_number   1
_chemical_formula_structural   Pr2Mn3(SbS3)4
_chemical_formula_sum   'Pr4 Mn6 Sb8 S24'
_cell_volume   942.00006694
_cell_formula_units_Z   2
loop_
 _symmetry_equiv_pos_site_id
 _symmetry_equiv_pos_as_xyz
  1  'x, y, z'
loop_
 _atom_site_type_symbol
 _atom_site_label
 _atom_site_symmetry_multiplicity
 _atom_site_fract_x
 _atom_site_fract_y
 _atom_site_fract_z
 _atom_site_occupancy
  Pr  Pr0  1  0.26240226  0.48815009  0.86878663  1
  Pr  Pr1  1  0.73625774  0.50311163  0.13772077  1
  Pr  Pr2  1  0.77904329  0.97348190  0.87612654  1
  Pr  Pr3  1  0.23351906  0.02370891  0.13102224  1
  Mn  Mn4  1  0.28095145  0.55113201  0.57037520  1
  Mn  Mn5  1  0.71396995  0.49500030  0.38367031  1
  Mn  Mn6  1  0.00033033  0.99394264  0.99532615  1
  Mn  Mn7  1  0.80170316  0.96585347  0.61601712  1
  Mn  Mn8  1  0.18361842  0.99618125  0.40745614  1
  Mn  Mn9  1  0.52253177  0.47500312  0.03180589  1
  Sb  Sb10  1  0.90683882  0.02207208  0.47115661  1
  Sb  Sb11  1  0.11704151  0.94139927  0.55201818  1
  Sb  Sb12  1  0.02903829  0.51853703  0.80614450  1
  Sb  Sb13  1  0.97309705  0.47536580  0.19708226  1
  Sb  Sb14  1  0.39188746  0.47421707  0.45140035  1
  Sb  Sb15  1  0.62118575  0.47600725  0.55711271  1
  Sb  Sb16  1  0.53604201  0.96476312  0.81447781  1
  Sb  Sb17  1  0.46532203  0.03224302  0.18367082  1
  S  S18  1  0.94719981  0.97570649  0.82172053  1
  S  S19  1  0.06462370  0.00688634  0.20940031  1
  S  S20  1  0.43172555  0.01443729  0.99643783  1
  S  S21  1  0.60087739  0.00768292  0.04705335  1
  S  S22  1  0.18566243  0.95589675  0.91418541  1
  S  S23  1  0.83142807  0.01596272  0.11779313  1
  S  S24  1  0.09737167  0.48021575  0.66291604  1
  S  S25  1  0.90776991  0.48403919  0.36314884  1
  S  S26  1  0.75008047  0.97661912  0.32086170  1
  S  S27  1  0.26433208  0.96051832  0.69515402  1
  S  S28  1  0.15059780  0.47231503  0.43934063  1
  S  S29  1  0.83902764  0.44771408  0.55726675  1
  S  S30  1  0.45825600  0.55592949  0.83770297  1
  S  S31  1  0.57639115  0.53003075  0.23216726  1
  S  S32  1  0.92765493  0.51156991  0.99069379  1
  S  S33  1  0.08197584  0.47584433  0.00763874  1
  S  S34  1  0.67925157  0.56591114  0.90781788  1
  S  S35  1  0.34128742  0.50960900  0.11814480  1
  S  S36  1  0.58946836  0.98866962  0.64282762  1
  S  S37  1  0.42273914  0.04895840  0.35698836  1
  S  S38  1  0.23523192  0.47206697  0.28426173  1
  S  S39  1  0.78045263  0.43332994  0.69449646  1
  S  S40  1  0.68080523  0.98086161  0.45461766  1
  S  S41  1  0.32295084  0.05372568  0.53111368  1
