# generated using pymatgen
data_Pr2Mn3(SbS3)4
_symmetry_space_group_name_H-M   'P 1'
_cell_length_a   20.02960800
_cell_length_b   3.90410600
_cell_length_c   14.95364829
_cell_angle_alpha   90.00000000
_cell_angle_beta   126.33350609
_cell_angle_gamma   90.00000000
_symmetry_Int_Tables_number   1
_chemical_formula_structural   Pr2Mn3(SbS3)4
_chemical_formula_sum   'Pr4 Mn6 Sb8 S24'
_cell_volume   942.00006694
_cell_formula_units_Z   2
loop_
 _symmetry_equiv_pos_site_id
 _symmetry_equiv_pos_as_xyz
  1  'x, y, z'
loop_
 _atom_site_type_symbol
 _atom_site_label
 _atom_site_symmetry_multiplicity
 _atom_site_fract_x
 _atom_site_fract_y
 _atom_site_fract_z
 _atom_site_occupancy
  Pr  Pr0  1  0.26257252  0.48860608  0.86904543  1
  Pr  Pr1  1  0.73627716  0.50269469  0.13763783  1
  Pr  Pr2  1  0.77898020  0.97256903  0.87606559  1
  Pr  Pr3  1  0.23375149  0.02345851  0.13116929  1
  Mn  Mn4  1  0.28090547  0.55066291  0.57050367  1
  Mn  Mn5  1  0.71404496  0.49623135  0.38371419  1
  Mn  Mn6  1  0.00048736  0.99286909  0.99560719  1
  Mn  Mn7  1  0.80147339  0.96609414  0.61590402  1
  Mn  Mn8  1  0.18356655  0.99604917  0.40710606  1
  Mn  Mn9  1  0.52252302  0.47485992  0.03193561  1
  Sb  Sb10  1  0.90696986  0.02269616  0.47136295  1
  Sb  Sb11  1  0.11702269  0.94139280  0.55210346  1
  Sb  Sb12  1  0.02910629  0.51845668  0.80610318  1
  Sb  Sb13  1  0.97315436  0.47468858  0.19731515  1
  Sb  Sb14  1  0.39193576  0.47396606  0.45148890  1
  Sb  Sb15  1  0.62115662  0.47678328  0.55684216  1
  Sb  Sb16  1  0.53606769  0.96495857  0.81458275  1
  Sb  Sb17  1  0.46543172  0.03235740  0.18394810  1
  S  S18  1  0.94754446  0.97806217  0.82187881  1
  S  S19  1  0.06472430  0.00643494  0.20951608  1
  S  S20  1  0.43160018  0.01586369  0.99625625  1
  S  S21  1  0.60099962  0.00639858  0.04700760  1
  S  S22  1  0.18602141  0.95608271  0.91448586  1
  S  S23  1  0.83145665  0.01613479  0.11768886  1
  S  S24  1  0.09732573  0.47991554  0.66265977  1
  S  S25  1  0.90795676  0.48567650  0.36322982  1
  S  S26  1  0.75002464  0.97652003  0.32104289  1
  S  S27  1  0.26438217  0.95994068  0.69485003  1
  S  S28  1  0.15097596  0.47053268  0.44006425  1
  S  S29  1  0.83910772  0.44665226  0.55741061  1
  S  S30  1  0.45793726  0.55660434  0.83766320  1
  S  S31  1  0.57612247  0.52830481  0.23220248  1
  S  S32  1  0.92740954  0.51253273  0.99048467  1
  S  S33  1  0.08210266  0.47633769  0.00783918  1
  S  S34  1  0.67933854  0.56524828  0.90807935  1
  S  S35  1  0.34114906  0.50943221  0.11818481  1
  S  S36  1  0.58894925  0.98820498  0.64223771  1
  S  S37  1  0.42288293  0.04988876  0.35701638  1
  S  S38  1  0.23494946  0.47303780  0.28411559  1
  S  S39  1  0.78026126  0.43289564  0.69446148  1
  S  S40  1  0.68119497  0.98095408  0.45485240  1
  S  S41  1  0.32328622  0.05335301  0.53155629  1
