# generated using pymatgen
data_Pr2Mn3(SbS3)4
_symmetry_space_group_name_H-M   'P 1'
_cell_length_a   20.02960800
_cell_length_b   3.90410600
_cell_length_c   14.95364829
_cell_angle_alpha   90.00000000
_cell_angle_beta   126.33350609
_cell_angle_gamma   90.00000000
_symmetry_Int_Tables_number   1
_chemical_formula_structural   Pr2Mn3(SbS3)4
_chemical_formula_sum   'Pr4 Mn6 Sb8 S24'
_cell_volume   942.00006694
_cell_formula_units_Z   2
loop_
 _symmetry_equiv_pos_site_id
 _symmetry_equiv_pos_as_xyz
  1  'x, y, z'
loop_
 _atom_site_type_symbol
 _atom_site_label
 _atom_site_symmetry_multiplicity
 _atom_site_fract_x
 _atom_site_fract_y
 _atom_site_fract_z
 _atom_site_occupancy
  Pr  Pr0  1  0.26268669  0.48874509  0.86925052  1
  Pr  Pr1  1  0.73630590  0.50212434  0.13744364  1
  Pr  Pr2  1  0.77886468  0.97165328  0.87594689  1
  Pr  Pr3  1  0.23396838  0.02304902  0.13131108  1
  Mn  Mn4  1  0.28094320  0.55003359  0.57062843  1
  Mn  Mn5  1  0.71413962  0.49692305  0.38375303  1
  Mn  Mn6  1  0.00064748  0.99187742  0.99579776  1
  Mn  Mn7  1  0.80128136  0.96613467  0.61598579  1
  Mn  Mn8  1  0.18354795  0.99571934  0.40674037  1
  Mn  Mn9  1  0.52260798  0.47481132  0.03224336  1
  Sb  Sb10  1  0.90701635  0.02304680  0.47150381  1
  Sb  Sb11  1  0.11704977  0.94136197  0.55225893  1
  Sb  Sb12  1  0.02922870  0.51856617  0.80609088  1
  Sb  Sb13  1  0.97313410  0.47387613  0.19752432  1
  Sb  Sb14  1  0.39187324  0.47383178  0.45157649  1
  Sb  Sb15  1  0.62102576  0.47756308  0.55652585  1
  Sb  Sb16  1  0.53613184  0.96505672  0.81485681  1
  Sb  Sb17  1  0.46552762  0.03249137  0.18422802  1
  S  S18  1  0.94778064  0.98024393  0.82176955  1
  S  S19  1  0.06465838  0.00593303  0.20951142  1
  S  S20  1  0.43140170  0.01661885  0.99597935  1
  S  S21  1  0.60107173  0.00500952  0.04715217  1
  S  S22  1  0.18642554  0.95656795  0.91483874  1
  S  S23  1  0.83148800  0.01596074  0.11754049  1
  S  S24  1  0.09726025  0.47951082  0.66228771  1
  S  S25  1  0.90813205  0.48769980  0.36324880  1
  S  S26  1  0.74988203  0.97655221  0.32113838  1
  S  S27  1  0.26437094  0.95878433  0.69455466  1
  S  S28  1  0.15115093  0.46849045  0.44058295  1
  S  S29  1  0.83926116  0.44593774  0.55737666  1
  S  S30  1  0.45756515  0.55683397  0.83770963  1
  S  S31  1  0.57587077  0.52669272  0.23206663  1
  S  S32  1  0.92723122  0.51334679  0.99037555  1
  S  S33  1  0.08210189  0.47678604  0.00792253  1
  S  S34  1  0.67934965  0.56452925  0.90835645  1
  S  S35  1  0.34112933  0.50961431  0.11830497  1
  S  S36  1  0.58850874  0.98853504  0.64179807  1
  S  S37  1  0.42306396  0.05059495  0.35726044  1
  S  S38  1  0.23477671  0.47382501  0.28404285  1
  S  S39  1  0.78003520  0.43228587  0.69446054  1
  S  S40  1  0.68139788  0.98109535  0.45512280  1
  S  S41  1  0.32360741  0.05282123  0.53191937  1
