# generated using pymatgen
data_Pr2Mn3(SbS3)4
_symmetry_space_group_name_H-M   'P 1'
_cell_length_a   20.02960800
_cell_length_b   3.90410600
_cell_length_c   14.95364829
_cell_angle_alpha   90.00000000
_cell_angle_beta   126.33350609
_cell_angle_gamma   90.00000000
_symmetry_Int_Tables_number   1
_chemical_formula_structural   Pr2Mn3(SbS3)4
_chemical_formula_sum   'Pr4 Mn6 Sb8 S24'
_cell_volume   942.00006694
_cell_formula_units_Z   2
loop_
 _symmetry_equiv_pos_site_id
 _symmetry_equiv_pos_as_xyz
  1  'x, y, z'
loop_
 _atom_site_type_symbol
 _atom_site_label
 _atom_site_symmetry_multiplicity
 _atom_site_fract_x
 _atom_site_fract_y
 _atom_site_fract_z
 _atom_site_occupancy
  Pr  Pr0  1  0.26284900  0.48864066  0.86946447  1
  Pr  Pr1  1  0.73640168  0.50187272  0.13744797  1
  Pr  Pr2  1  0.77873132  0.97078055  0.87576472  1
  Pr  Pr3  1  0.23416841  0.02256224  0.13143352  1
  Mn  Mn4  1  0.28095134  0.54951840  0.57074839  1
  Mn  Mn5  1  0.71418130  0.49771048  0.38357777  1
  Mn  Mn6  1  0.00072712  0.99096326  0.99588830  1
  Mn  Mn7  1  0.80113353  0.96603960  0.61592094  1
  Mn  Mn8  1  0.18349593  0.99560522  0.40647983  1
  Mn  Mn9  1  0.52271595  0.47447173  0.03261473  1
  Sb  Sb10  1  0.90699284  0.02350793  0.47163726  1
  Sb  Sb11  1  0.11705597  0.94111668  0.55229054  1
  Sb  Sb12  1  0.02938965  0.51863045  0.80610269  1
  Sb  Sb13  1  0.97318724  0.47319335  0.19783197  1
  Sb  Sb14  1  0.39176128  0.47358650  0.45163717  1
  Sb  Sb15  1  0.62088661  0.47817860  0.55624278  1
  Sb  Sb16  1  0.53626771  0.96497907  0.81521089  1
  Sb  Sb17  1  0.46554085  0.03294895  0.18444102  1
  S  S18  1  0.94815088  0.98214148  0.82166139  1
  S  S19  1  0.06450752  0.00510384  0.20946315  1
  S  S20  1  0.43112062  0.01731995  0.99553060  1
  S  S21  1  0.60106604  0.00431570  0.04727100  1
  S  S22  1  0.18686273  0.95717695  0.91532084  1
  S  S23  1  0.83136174  0.01583333  0.11719485  1
  S  S24  1  0.09708570  0.47939523  0.66200560  1
  S  S25  1  0.90826061  0.48944218  0.36327253  1
  S  S26  1  0.74970865  0.97657769  0.32106245  1
  S  S27  1  0.26423084  0.95745936  0.69413823  1
  S  S28  1  0.15134994  0.46659372  0.44107974  1
  S  S29  1  0.83943569  0.44509538  0.55741053  1
  S  S30  1  0.45700901  0.55705458  0.83752856  1
  S  S31  1  0.57562007  0.52524841  0.23184377  1
  S  S32  1  0.92704455  0.51385634  0.99024512  1
  S  S33  1  0.08216795  0.47743945  0.00796849  1
  S  S34  1  0.67938126  0.56382892  0.90865686  1
  S  S35  1  0.34107036  0.50956416  0.11846195  1
  S  S36  1  0.58797154  0.98905417  0.64126839  1
  S  S37  1  0.42307945  0.05119083  0.35731925  1
  S  S38  1  0.23478564  0.47523115  0.28398139  1
  S  S39  1  0.77982642  0.43166734  0.69445108  1
  S  S40  1  0.68151202  0.98160634  0.45533552  1
  S  S41  1  0.32395438  0.05147032  0.53232419  1
