# generated using pymatgen
data_Pr2Mn3(SbS3)4
_symmetry_space_group_name_H-M   'P 1'
_cell_length_a   20.02960800
_cell_length_b   3.90410600
_cell_length_c   14.95364829
_cell_angle_alpha   90.00000000
_cell_angle_beta   126.33350609
_cell_angle_gamma   90.00000000
_symmetry_Int_Tables_number   1
_chemical_formula_structural   Pr2Mn3(SbS3)4
_chemical_formula_sum   'Pr4 Mn6 Sb8 S24'
_cell_volume   942.00006694
_cell_formula_units_Z   2
loop_
 _symmetry_equiv_pos_site_id
 _symmetry_equiv_pos_as_xyz
  1  'x, y, z'
loop_
 _atom_site_type_symbol
 _atom_site_label
 _atom_site_symmetry_multiplicity
 _atom_site_fract_x
 _atom_site_fract_y
 _atom_site_fract_z
 _atom_site_occupancy
  Pr  Pr0  1  0.26294844  0.48841928  0.86960673  1
  Pr  Pr1  1  0.73642623  0.50166328  0.13733298  1
  Pr  Pr2  1  0.77865056  0.96997363  0.87568122  1
  Pr  Pr3  1  0.23439854  0.02239497  0.13161641  1
  Mn  Mn4  1  0.28091744  0.54880026  0.57067976  1
  Mn  Mn5  1  0.71427806  0.49884976  0.38348647  1
  Mn  Mn6  1  0.00075321  0.98987548  0.99594363  1
  Mn  Mn7  1  0.80096318  0.96583320  0.61574348  1
  Mn  Mn8  1  0.18341164  0.99564577  0.40630259  1
  Mn  Mn9  1  0.52282823  0.47432668  0.03300976  1
  Sb  Sb10  1  0.90692948  0.02420302  0.47176825  1
  Sb  Sb11  1  0.11706374  0.94094114  0.55233067  1
  Sb  Sb12  1  0.02949210  0.51885929  0.80605442  1
  Sb  Sb13  1  0.97325312  0.47235723  0.19813408  1
  Sb  Sb14  1  0.39167458  0.47352686  0.45170841  1
  Sb  Sb15  1  0.62072049  0.47891030  0.55596599  1
  Sb  Sb16  1  0.53641456  0.96512763  0.81556302  1
  Sb  Sb17  1  0.46543721  0.03301186  0.18454035  1
  S  S18  1  0.94863116  0.98333146  0.82159346  1
  S  S19  1  0.06424764  0.00425577  0.20936895  1
  S  S20  1  0.43088193  0.01772485  0.99527707  1
  S  S21  1  0.60117630  0.00444345  0.04754675  1
  S  S22  1  0.18735249  0.95788564  0.91573611  1
  S  S23  1  0.83126342  0.01541393  0.11689585  1
  S  S24  1  0.09679494  0.47871637  0.66169345  1
  S  S25  1  0.90838588  0.49119849  0.36336270  1
  S  S26  1  0.74955160  0.97710003  0.32104333  1
  S  S27  1  0.26403629  0.95655401  0.69381391  1
  S  S28  1  0.15155328  0.46522602  0.44160435  1
  S  S29  1  0.83969185  0.44416297  0.55743786  1
  S  S30  1  0.45638412  0.55689119  0.83720687  1
  S  S31  1  0.57529124  0.52382666  0.23163436  1
  S  S32  1  0.92685767  0.51417929  0.99020650  1
  S  S33  1  0.08226497  0.47769168  0.00815263  1
  S  S34  1  0.67926044  0.56264881  0.90887949  1
  S  S35  1  0.34102854  0.50957667  0.11865368  1
  S  S36  1  0.58747179  0.99011135  0.64078668  1
  S  S37  1  0.42312989  0.05152206  0.35725969  1
  S  S38  1  0.23484372  0.47586598  0.28387320  1
  S  S39  1  0.77963210  0.43146824  0.69439246  1
  S  S40  1  0.68163390  0.98207755  0.45538007  1
  S  S41  1  0.32434334  0.05027201  0.53286348  1
