# generated using pymatgen
data_Pr2Mn3(SbS3)4
_symmetry_space_group_name_H-M   'P 1'
_cell_length_a   20.02960800
_cell_length_b   3.90410600
_cell_length_c   14.95364829
_cell_angle_alpha   90.00000000
_cell_angle_beta   126.33350609
_cell_angle_gamma   90.00000000
_symmetry_Int_Tables_number   1
_chemical_formula_structural   Pr2Mn3(SbS3)4
_chemical_formula_sum   'Pr4 Mn6 Sb8 S24'
_cell_volume   942.00006694
_cell_formula_units_Z   2
loop_
 _symmetry_equiv_pos_site_id
 _symmetry_equiv_pos_as_xyz
  1  'x, y, z'
loop_
 _atom_site_type_symbol
 _atom_site_label
 _atom_site_symmetry_multiplicity
 _atom_site_fract_x
 _atom_site_fract_y
 _atom_site_fract_z
 _atom_site_occupancy
  Pr  Pr0  1  0.26306827  0.48861288  0.86967763  1
  Pr  Pr1  1  0.73645014  0.50165892  0.13724517  1
  Pr  Pr2  1  0.77854195  0.96919795  0.87552765  1
  Pr  Pr3  1  0.23457310  0.02263067  0.13174504  1
  Mn  Mn4  1  0.28092950  0.54809728  0.57067564  1
  Mn  Mn5  1  0.71446607  0.50045451  0.38356784  1
  Mn  Mn6  1  0.00066061  0.98854244  0.99590401  1
  Mn  Mn7  1  0.80081212  0.96593465  0.61552493  1
  Mn  Mn8  1  0.18338137  0.99560575  0.40614511  1
  Mn  Mn9  1  0.52304044  0.47408933  0.03325856  1
  Sb  Sb10  1  0.90679339  0.02466998  0.47183682  1
  Sb  Sb11  1  0.11703326  0.94065066  0.55237788  1
  Sb  Sb12  1  0.02952000  0.51911340  0.80599631  1
  Sb  Sb13  1  0.97333289  0.47193287  0.19844531  1
  Sb  Sb14  1  0.39156854  0.47350596  0.45174086  1
  Sb  Sb15  1  0.62053127  0.47980785  0.55577786  1
  Sb  Sb16  1  0.53657849  0.96543422  0.81586046  1
  Sb  Sb17  1  0.46536336  0.03329084  0.18463916  1
  S  S18  1  0.94902091  0.98451078  0.82149868  1
  S  S19  1  0.06398884  0.00325771  0.20920919  1
  S  S20  1  0.43076053  0.01774705  0.99495581  1
  S  S21  1  0.60150592  0.00432990  0.04804271  1
  S  S22  1  0.18762886  0.95874711  0.91599817  1
  S  S23  1  0.83120353  0.01514796  0.11673347  1
  S  S24  1  0.09650698  0.47771777  0.66154702  1
  S  S25  1  0.90857699  0.49306676  0.36337326  1
  S  S26  1  0.74945062  0.97713954  0.32110092  1
  S  S27  1  0.26367400  0.95537657  0.69322639  1
  S  S28  1  0.15177230  0.46433047  0.44201718  1
  S  S29  1  0.83993590  0.44389307  0.55746647  1
  S  S30  1  0.45569680  0.55615562  0.83670668  1
  S  S31  1  0.57490577  0.52308571  0.23136764  1
  S  S32  1  0.92667299  0.51381946  0.99031490  1
  S  S33  1  0.08227316  0.47765840  0.00826086  1
  S  S34  1  0.67923628  0.56139858  0.90928093  1
  S  S35  1  0.34093810  0.50932339  0.11869720  1
  S  S36  1  0.58702334  0.99054172  0.64048640  1
  S  S37  1  0.42323254  0.05114331  0.35708799  1
  S  S38  1  0.23496818  0.47624283  0.28381517  1
  S  S39  1  0.77935857  0.43150102  0.69456693  1
  S  S40  1  0.68172815  0.98259822  0.45534551  1
  S  S41  1  0.32468052  0.04904769  0.53330015  1
