# generated using pymatgen
data_Pr2Mn3(SbS3)4
_symmetry_space_group_name_H-M   'P 1'
_cell_length_a   20.02960800
_cell_length_b   3.90410600
_cell_length_c   14.95364829
_cell_angle_alpha   90.00000000
_cell_angle_beta   126.33350609
_cell_angle_gamma   90.00000000
_symmetry_Int_Tables_number   1
_chemical_formula_structural   Pr2Mn3(SbS3)4
_chemical_formula_sum   'Pr4 Mn6 Sb8 S24'
_cell_volume   942.00006694
_cell_formula_units_Z   2
loop_
 _symmetry_equiv_pos_site_id
 _symmetry_equiv_pos_as_xyz
  1  'x, y, z'
loop_
 _atom_site_type_symbol
 _atom_site_label
 _atom_site_symmetry_multiplicity
 _atom_site_fract_x
 _atom_site_fract_y
 _atom_site_fract_z
 _atom_site_occupancy
  Pr  Pr0  1  0.26317863  0.48855476  0.86972607  1
  Pr  Pr1  1  0.73639004  0.50145871  0.13719731  1
  Pr  Pr2  1  0.77844810  0.96859527  0.87537416  1
  Pr  Pr3  1  0.23474508  0.02250127  0.13183981  1
  Mn  Mn4  1  0.28101241  0.54772997  0.57084881  1
  Mn  Mn5  1  0.71457155  0.50206273  0.38367024  1
  Mn  Mn6  1  0.00055344  0.98673650  0.99595063  1
  Mn  Mn7  1  0.80091432  0.96581228  0.61546189  1
  Mn  Mn8  1  0.18337289  0.99560803  0.40609235  1
  Mn  Mn9  1  0.52325576  0.47364397  0.03342892  1
  Sb  Sb10  1  0.90664619  0.02521463  0.47195684  1
  Sb  Sb11  1  0.11699637  0.94058808  0.55239720  1
  Sb  Sb12  1  0.02957989  0.51929069  0.80598523  1
  Sb  Sb13  1  0.97348834  0.47178302  0.19878488  1
  Sb  Sb14  1  0.39143707  0.47320542  0.45169953  1
  Sb  Sb15  1  0.62026188  0.48072776  0.55547790  1
  Sb  Sb16  1  0.53672624  0.96606786  0.81615491  1
  Sb  Sb17  1  0.46528599  0.03328554  0.18463343  1
  S  S18  1  0.94929445  0.98562888  0.82135802  1
  S  S19  1  0.06363677  0.00199077  0.20893723  1
  S  S20  1  0.43061754  0.01750940  0.99462916  1
  S  S21  1  0.60193004  0.00447949  0.04847045  1
  S  S22  1  0.18788337  0.95969518  0.91620002  1
  S  S23  1  0.83128596  0.01505239  0.11659391  1
  S  S24  1  0.09643034  0.47677122  0.66149042  1
  S  S25  1  0.90862919  0.49455983  0.36342840  1
  S  S26  1  0.74940801  0.97721557  0.32117619  1
  S  S27  1  0.26318213  0.95430580  0.69252065  1
  S  S28  1  0.15193663  0.46399302  0.44227838  1
  S  S29  1  0.84013511  0.44339000  0.55758020  1
  S  S30  1  0.45517987  0.55510289  0.83630722  1
  S  S31  1  0.57470450  0.52234598  0.23133724  1
  S  S32  1  0.92659678  0.51375562  0.99045793  1
  S  S33  1  0.08218191  0.47816646  0.00829377  1
  S  S34  1  0.67910140  0.55980378  0.90957655  1
  S  S35  1  0.34068974  0.50938084  0.11843034  1
  S  S36  1  0.58663981  0.99028908  0.64018870  1
  S  S37  1  0.42333089  0.05037961  0.35698661  1
  S  S38  1  0.23511837  0.47600608  0.28370925  1
  S  S39  1  0.77906880  0.43222965  0.69465691  1
  S  S40  1  0.68176344  0.98294347  0.45529382  1
  S  S41  1  0.32481918  0.04728595  0.53354044  1
