# generated using pymatgen
data_Pr2Mn3(SbS3)4
_symmetry_space_group_name_H-M   'P 1'
_cell_length_a   20.02960800
_cell_length_b   3.90410600
_cell_length_c   14.95364829
_cell_angle_alpha   90.00000000
_cell_angle_beta   126.33350609
_cell_angle_gamma   90.00000000
_symmetry_Int_Tables_number   1
_chemical_formula_structural   Pr2Mn3(SbS3)4
_chemical_formula_sum   'Pr4 Mn6 Sb8 S24'
_cell_volume   942.00006694
_cell_formula_units_Z   2
loop_
 _symmetry_equiv_pos_site_id
 _symmetry_equiv_pos_as_xyz
  1  'x, y, z'
loop_
 _atom_site_type_symbol
 _atom_site_label
 _atom_site_symmetry_multiplicity
 _atom_site_fract_x
 _atom_site_fract_y
 _atom_site_fract_z
 _atom_site_occupancy
  Pr  Pr0  1  0.26327114  0.48842759  0.86976253  1
  Pr  Pr1  1  0.73630399  0.50133643  0.13717774  1
  Pr  Pr2  1  0.77836865  0.96811893  0.87515468  1
  Pr  Pr3  1  0.23490685  0.02204650  0.13196011  1
  Mn  Mn4  1  0.28113849  0.54717857  0.57099800  1
  Mn  Mn5  1  0.71463237  0.50388695  0.38371639  1
  Mn  Mn6  1  0.00053755  0.98546505  0.99613784  1
  Mn  Mn7  1  0.80095670  0.96525527  0.61553953  1
  Mn  Mn8  1  0.18348521  0.99564697  0.40608059  1
  Mn  Mn9  1  0.52350652  0.47295528  0.03355984  1
  Sb  Sb10  1  0.90645326  0.02564660  0.47203824  1
  Sb  Sb11  1  0.11685184  0.94054612  0.55235569  1
  Sb  Sb12  1  0.02958044  0.51982081  0.80589878  1
  Sb  Sb13  1  0.97362855  0.47173536  0.19903693  1
  Sb  Sb14  1  0.39130203  0.47325560  0.45168338  1
  Sb  Sb15  1  0.62004800  0.48158627  0.55514636  1
  Sb  Sb16  1  0.53684754  0.96593314  0.81637049  1
  Sb  Sb17  1  0.46518367  0.03341577  0.18465228  1
  S  S18  1  0.94932148  0.98672347  0.82096767  1
  S  S19  1  0.06332700  0.00057494  0.20873574  1
  S  S20  1  0.43043021  0.01769064  0.99426023  1
  S  S21  1  0.60253547  0.00458547  0.04894315  1
  S  S22  1  0.18809403  0.96076070  0.91622245  1
  S  S23  1  0.83141093  0.01470604  0.11660415  1
  S  S24  1  0.09636478  0.47524851  0.66148625  1
  S  S25  1  0.90878421  0.49602759  0.36348071  1
  S  S26  1  0.74940691  0.97725848  0.32147751  1
  S  S27  1  0.26267102  0.95307591  0.69181136  1
  S  S28  1  0.15225732  0.46371843  0.44236806  1
  S  S29  1  0.84024373  0.44315070  0.55779829  1
  S  S30  1  0.45494466  0.55418663  0.83607166  1
  S  S31  1  0.57450693  0.52180224  0.23142773  1
  S  S32  1  0.92639653  0.51343889  0.99044198  1
  S  S33  1  0.08206818  0.47842925  0.00839766  1
  S  S34  1  0.67916632  0.55763568  0.90988437  1
  S  S35  1  0.34062253  0.50900852  0.11828271  1
  S  S36  1  0.58632234  0.99004508  0.63980349  1
  S  S37  1  0.42326471  0.05017722  0.35686630  1
  S  S38  1  0.23528997  0.47583707  0.28364525  1
  S  S39  1  0.77858335  0.43316896  0.69476199  1
  S  S40  1  0.68187357  0.98300654  0.45537348  1
  S  S41  1  0.32483411  0.04580144  0.53371432  1
