# generated using pymatgen
data_Pr2Mn3(SbS3)4
_symmetry_space_group_name_H-M   'P 1'
_cell_length_a   20.02960800
_cell_length_b   3.90410600
_cell_length_c   14.95364829
_cell_angle_alpha   90.00000000
_cell_angle_beta   126.33350609
_cell_angle_gamma   90.00000000
_symmetry_Int_Tables_number   1
_chemical_formula_structural   Pr2Mn3(SbS3)4
_chemical_formula_sum   'Pr4 Mn6 Sb8 S24'
_cell_volume   942.00006694
_cell_formula_units_Z   2
loop_
 _symmetry_equiv_pos_site_id
 _symmetry_equiv_pos_as_xyz
  1  'x, y, z'
loop_
 _atom_site_type_symbol
 _atom_site_label
 _atom_site_symmetry_multiplicity
 _atom_site_fract_x
 _atom_site_fract_y
 _atom_site_fract_z
 _atom_site_occupancy
  Pr  Pr0  1  0.26986363  0.50762242  0.87331221  1
  Pr  Pr1  1  0.73440805  0.51948983  0.13527311  1
  Pr  Pr2  1  0.76445611  0.03375313  0.87116424  1
  Pr  Pr3  1  0.22822981  0.96171119  0.12773107  1
  Mn  Mn4  1  0.29888133  0.46026670  0.60948867  1
  Mn  Mn5  1  0.68655920  0.45388244  0.36559732  1
  Mn  Mn6  1  0.99879955  0.98167885  0.00750135  1
  Mn  Mn7  1  0.79033579  0.02458505  0.61420900  1
  Mn  Mn8  1  0.19822602  0.02688498  0.37080776  1
  Mn  Mn9  1  0.47961038  0.47379177  0.97846488  1
  Sb  Sb10  1  0.89116856  0.97108021  0.44856237  1
  Sb  Sb11  1  0.11334706  0.97678522  0.54797241  1
  Sb  Sb12  1  0.03872365  0.52089059  0.82733165  1
  Sb  Sb13  1  0.96843775  0.48376070  0.19247251  1
  Sb  Sb14  1  0.39857382  0.49303336  0.45405804  1
  Sb  Sb15  1  0.61314639  0.48481824  0.54789179  1
  Sb  Sb16  1  0.52920813  0.97312447  0.80549732  1
  Sb  Sb17  1  0.46536558  0.03230184  0.18502215  1
  S  S18  1  0.93895036  0.99806713  0.80356597  1
  S  S19  1  0.06616196  0.99171227  0.20087026  1
  S  S20  1  0.41841011  0.98138119  0.97451764  1
  S  S21  1  0.58517178  0.02526011  0.00829798  1
  S  S22  1  0.16165644  0.02502348  0.89493338  1
  S  S23  1  0.82772591  0.97669354  0.10239209  1
  S  S24  1  0.08918767  0.50080218  0.63616414  1
  S  S25  1  0.91507559  0.50730497  0.35532359  1
  S  S26  1  0.73529848  0.99539239  0.29827635  1
  S  S27  1  0.26359321  0.01394940  0.70439698  1
  S  S28  1  0.17213774  0.52079881  0.44227552  1
  S  S29  1  0.80614495  0.52422464  0.53770593  1
  S  S30  1  0.43280133  0.47203003  0.79862496  1
  S  S31  1  0.55451575  0.49142585  0.17742095  1
  S  S32  1  0.92076120  0.52221649  0.98712434  1
  S  S33  1  0.08479459  0.49610232  0.02140439  1
  S  S34  1  0.66889237  0.55791006  0.89349835  1
  S  S35  1  0.32916860  0.46386164  0.10178983  1
  S  S36  1  0.58887499  0.99379333  0.64267622  1
  S  S37  1  0.39222343  0.99678835  0.33085474  1
  S  S38  1  0.24624591  0.46753515  0.31703573  1
  S  S39  1  0.76363497  0.48871194  0.69355279  1
  S  S40  1  0.65744390  0.98903631  0.43319448  1
  S  S41  1  0.32966658  0.98480592  0.55488159  1
