# generated using pymatgen
data_Pr2Mn3(SbS3)4
_symmetry_space_group_name_H-M   'P 1'
_cell_length_a   20.02960800
_cell_length_b   3.90410600
_cell_length_c   14.95364829
_cell_angle_alpha   90.00000000
_cell_angle_beta   126.33350609
_cell_angle_gamma   90.00000000
_symmetry_Int_Tables_number   1
_chemical_formula_structural   Pr2Mn3(SbS3)4
_chemical_formula_sum   'Pr4 Mn6 Sb8 S24'
_cell_volume   942.00006694
_cell_formula_units_Z   2
loop_
 _symmetry_equiv_pos_site_id
 _symmetry_equiv_pos_as_xyz
  1  'x, y, z'
loop_
 _atom_site_type_symbol
 _atom_site_label
 _atom_site_symmetry_multiplicity
 _atom_site_fract_x
 _atom_site_fract_y
 _atom_site_fract_z
 _atom_site_occupancy
  Pr  Pr0  1  0.26330173  0.48841310  0.86970696  1
  Pr  Pr1  1  0.73622277  0.50098541  0.13719209  1
  Pr  Pr2  1  0.77825161  0.96769702  0.87486240  1
  Pr  Pr3  1  0.23508308  0.02125541  0.13209359  1
  Mn  Mn4  1  0.28121915  0.54653970  0.57103520  1
  Mn  Mn5  1  0.71471381  0.50562581  0.38377947  1
  Mn  Mn6  1  0.00044654  0.98475460  0.99615523  1
  Mn  Mn7  1  0.80104267  0.96449976  0.61576803  1
  Mn  Mn8  1  0.18360455  0.99538186  0.40618005  1
  Mn  Mn9  1  0.52387933  0.47288206  0.03384452  1
  Sb  Sb10  1  0.90628554  0.02566618  0.47216855  1
  Sb  Sb11  1  0.11672596  0.94061653  0.55233851  1
  Sb  Sb12  1  0.02953080  0.52033784  0.80569701  1
  Sb  Sb13  1  0.97376773  0.47163619  0.19928448  1
  Sb  Sb14  1  0.39114665  0.47343297  0.45166835  1
  Sb  Sb15  1  0.61977943  0.48241043  0.55479004  1
  Sb  Sb16  1  0.53691020  0.96605163  0.81658005  1
  Sb  Sb17  1  0.46516375  0.03365063  0.18465872  1
  S  S18  1  0.94932235  0.98837305  0.82054848  1
  S  S19  1  0.06300292  0.99888077  0.20867561  1
  S  S20  1  0.43027444  0.01816565  0.99415149  1
  S  S21  1  0.60309194  0.00483601  0.04927626  1
  S  S22  1  0.18822464  0.96189616  0.91636111  1
  S  S23  1  0.83150425  0.01492399  0.11661765  1
  S  S24  1  0.09634552  0.47369061  0.66148816  1
  S  S25  1  0.90893739  0.49679521  0.36337812  1
  S  S26  1  0.74957680  0.97774495  0.32179484  1
  S  S27  1  0.26217464  0.95245627  0.69124684  1
  S  S28  1  0.15251752  0.46394783  0.44228463  1
  S  S29  1  0.84018716  0.44264814  0.55784418  1
  S  S30  1  0.45472830  0.55344799  0.83574299  1
  S  S31  1  0.57439960  0.52109587  0.23154146  1
  S  S32  1  0.92629550  0.51304601  0.99043622  1
  S  S33  1  0.08198726  0.47854577  0.00857396  1
  S  S34  1  0.67927814  0.55545103  0.91027586  1
  S  S35  1  0.34045935  0.50818108  0.11799397  1
  S  S36  1  0.58598716  0.98904841  0.63935558  1
  S  S37  1  0.42320171  0.04979608  0.35664267  1
  S  S38  1  0.23533875  0.47576144  0.28345170  1
  S  S39  1  0.77814444  0.43361331  0.69483072  1
  S  S40  1  0.68164422  0.98280846  0.45514147  1
  S  S41  1  0.32494090  0.04338165  0.53388633  1
