# generated using pymatgen
data_Pr2Mn3(SbS3)4
_symmetry_space_group_name_H-M   'P 1'
_cell_length_a   20.02960800
_cell_length_b   3.90410600
_cell_length_c   14.95364829
_cell_angle_alpha   90.00000000
_cell_angle_beta   126.33350609
_cell_angle_gamma   90.00000000
_symmetry_Int_Tables_number   1
_chemical_formula_structural   Pr2Mn3(SbS3)4
_chemical_formula_sum   'Pr4 Mn6 Sb8 S24'
_cell_volume   942.00006694
_cell_formula_units_Z   2
loop_
 _symmetry_equiv_pos_site_id
 _symmetry_equiv_pos_as_xyz
  1  'x, y, z'
loop_
 _atom_site_type_symbol
 _atom_site_label
 _atom_site_symmetry_multiplicity
 _atom_site_fract_x
 _atom_site_fract_y
 _atom_site_fract_z
 _atom_site_occupancy
  Pr  Pr0  1  0.26337593  0.48852294  0.86968892  1
  Pr  Pr1  1  0.73613524  0.50073690  0.13718861  1
  Pr  Pr2  1  0.77817961  0.96752289  0.87464540  1
  Pr  Pr3  1  0.23527245  0.02016035  0.13222796  1
  Mn  Mn4  1  0.28117017  0.54598954  0.57095364  1
  Mn  Mn5  1  0.71475156  0.50782225  0.38380823  1
  Mn  Mn6  1  0.00040171  0.98408435  0.99618925  1
  Mn  Mn7  1  0.80114432  0.96368010  0.61584144  1
  Mn  Mn8  1  0.18371134  0.99479047  0.40621007  1
  Mn  Mn9  1  0.52428860  0.47292831  0.03421497  1
  Sb  Sb10  1  0.90609449  0.02571653  0.47218128  1
  Sb  Sb11  1  0.11664775  0.94072748  0.55237427  1
  Sb  Sb12  1  0.02958059  0.52061610  0.80551392  1
  Sb  Sb13  1  0.97391932  0.47136892  0.19953738  1
  Sb  Sb14  1  0.39107704  0.47344932  0.45167250  1
  Sb  Sb15  1  0.61954743  0.48340006  0.55453093  1
  Sb  Sb16  1  0.53698704  0.96616926  0.81681548  1
  Sb  Sb17  1  0.46517837  0.03406567  0.18463266  1
  S  S18  1  0.94931530  0.99044537  0.82018410  1
  S  S19  1  0.06276940  0.99783208  0.20860533  1
  S  S20  1  0.43012865  0.01859745  0.99428031  1
  S  S21  1  0.60361074  0.00419469  0.04946736  1
  S  S22  1  0.18853624  0.96282012  0.91670224  1
  S  S23  1  0.83160636  0.01588527  0.11668828  1
  S  S24  1  0.09641534  0.47239441  0.66156939  1
  S  S25  1  0.90909156  0.49738017  0.36313234  1
  S  S26  1  0.74975515  0.97882286  0.32208052  1
  S  S27  1  0.26172751  0.95212660  0.69082866  1
  S  S28  1  0.15281294  0.46420021  0.44230865  1
  S  S29  1  0.84028161  0.44189976  0.55805779  1
  S  S30  1  0.45454637  0.55305699  0.83550118  1
  S  S31  1  0.57423628  0.51988838  0.23159336  1
  S  S32  1  0.92631335  0.51275328  0.99046272  1
  S  S33  1  0.08187724  0.47847350  0.00890439  1
  S  S34  1  0.67948842  0.55326943  0.91053471  1
  S  S35  1  0.34025849  0.50780510  0.11776613  1
  S  S36  1  0.58579734  0.98788980  0.63909904  1
  S  S37  1  0.42309355  0.04934719  0.35651639  1
  S  S38  1  0.23530649  0.47574892  0.28313251  1
  S  S39  1  0.77780856  0.43352121  0.69504526  1
  S  S40  1  0.68148030  0.98293874  0.45501630  1
  S  S41  1  0.32503433  0.04103749  0.53408334  1
