# generated using pymatgen
data_Pr2Mn3(SbS3)4
_symmetry_space_group_name_H-M   'P 1'
_cell_length_a   20.02960800
_cell_length_b   3.90410600
_cell_length_c   14.95364829
_cell_angle_alpha   90.00000000
_cell_angle_beta   126.33350609
_cell_angle_gamma   90.00000000
_symmetry_Int_Tables_number   1
_chemical_formula_structural   Pr2Mn3(SbS3)4
_chemical_formula_sum   'Pr4 Mn6 Sb8 S24'
_cell_volume   942.00006694
_cell_formula_units_Z   2
loop_
 _symmetry_equiv_pos_site_id
 _symmetry_equiv_pos_as_xyz
  1  'x, y, z'
loop_
 _atom_site_type_symbol
 _atom_site_label
 _atom_site_symmetry_multiplicity
 _atom_site_fract_x
 _atom_site_fract_y
 _atom_site_fract_z
 _atom_site_occupancy
  Pr  Pr0  1  0.26343003  0.48854800  0.86972114  1
  Pr  Pr1  1  0.73603046  0.50029297  0.13717180  1
  Pr  Pr2  1  0.77815966  0.96770862  0.87447190  1
  Pr  Pr3  1  0.23541470  0.01906522  0.13235272  1
  Mn  Mn4  1  0.28115711  0.54566196  0.57098597  1
  Mn  Mn5  1  0.71481691  0.50994907  0.38383842  1
  Mn  Mn6  1  0.00026155  0.98340978  0.99610721  1
  Mn  Mn7  1  0.80126890  0.96293045  0.61590615  1
  Mn  Mn8  1  0.18381719  0.99475175  0.40612019  1
  Mn  Mn9  1  0.52470517  0.47248739  0.03449333  1
  Sb  Sb10  1  0.90593773  0.02578028  0.47218914  1
  Sb  Sb11  1  0.11663549  0.94077309  0.55251649  1
  Sb  Sb12  1  0.02964486  0.52107458  0.80534412  1
  Sb  Sb13  1  0.97399514  0.47138799  0.19963630  1
  Sb  Sb14  1  0.39101942  0.47356321  0.45171138  1
  Sb  Sb15  1  0.61934203  0.48469594  0.55435396  1
  Sb  Sb16  1  0.53702046  0.96631460  0.81698211  1
  Sb  Sb17  1  0.46512567  0.03440819  0.18455448  1
  S  S18  1  0.94924425  0.99233292  0.81998181  1
  S  S19  1  0.06264004  0.99660318  0.20866511  1
  S  S20  1  0.42989544  0.01910860  0.99435408  1
  S  S21  1  0.60404921  0.00293543  0.04947136  1
  S  S22  1  0.18873716  0.96396033  0.91695491  1
  S  S23  1  0.83184135  0.01668474  0.11689430  1
  S  S24  1  0.09645311  0.47133218  0.66173438  1
  S  S25  1  0.90919579  0.49821473  0.36283299  1
  S  S26  1  0.74998868  0.98004381  0.32233546  1
  S  S27  1  0.26144667  0.95196449  0.69047873  1
  S  S28  1  0.15314400  0.46481116  0.44229383  1
  S  S29  1  0.84059945  0.44173063  0.55843414  1
  S  S30  1  0.45445528  0.55281159  0.83535420  1
  S  S31  1  0.57412336  0.51817411  0.23157609  1
  S  S32  1  0.92625049  0.51267255  0.99043939  1
  S  S33  1  0.08184620  0.47873487  0.00910108  1
  S  S34  1  0.67968967  0.55142684  0.91069932  1
  S  S35  1  0.34022917  0.50795491  0.11762760  1
  S  S36  1  0.58564942  0.98673270  0.63892327  1
  S  S37  1  0.42278795  0.04889057  0.35610323  1
  S  S38  1  0.23516387  0.47639235  0.28272951  1
  S  S39  1  0.77741380  0.43357812  0.69506726  1
  S  S40  1  0.68142390  0.98380744  0.45489523  1
  S  S41  1  0.32510467  0.03850276  0.53415180  1
