# generated using pymatgen
data_Pr2Mn3(SbS3)4
_symmetry_space_group_name_H-M   'P 1'
_cell_length_a   20.02960800
_cell_length_b   3.90410600
_cell_length_c   14.95364829
_cell_angle_alpha   90.00000000
_cell_angle_beta   126.33350609
_cell_angle_gamma   90.00000000
_symmetry_Int_Tables_number   1
_chemical_formula_structural   Pr2Mn3(SbS3)4
_chemical_formula_sum   'Pr4 Mn6 Sb8 S24'
_cell_volume   942.00006694
_cell_formula_units_Z   2
loop_
 _symmetry_equiv_pos_site_id
 _symmetry_equiv_pos_as_xyz
  1  'x, y, z'
loop_
 _atom_site_type_symbol
 _atom_site_label
 _atom_site_symmetry_multiplicity
 _atom_site_fract_x
 _atom_site_fract_y
 _atom_site_fract_z
 _atom_site_occupancy
  Pr  Pr0  1  0.26349138  0.48861509  0.86975949  1
  Pr  Pr1  1  0.73594645  0.49994837  0.13719957  1
  Pr  Pr2  1  0.77818625  0.96780219  0.87449584  1
  Pr  Pr3  1  0.23552127  0.01821654  0.13244641  1
  Mn  Mn4  1  0.28104613  0.54533626  0.57092563  1
  Mn  Mn5  1  0.71494168  0.51195033  0.38399986  1
  Mn  Mn6  1  0.00017012  0.98312162  0.99611892  1
  Mn  Mn7  1  0.80143220  0.96236251  0.61596705  1
  Mn  Mn8  1  0.18387364  0.99491170  0.40584926  1
  Mn  Mn9  1  0.52498427  0.47208668  0.03476207  1
  Sb  Sb10  1  0.90577597  0.02586271  0.47220789  1
  Sb  Sb11  1  0.11659206  0.94109697  0.55259493  1
  Sb  Sb12  1  0.02966262  0.52144439  0.80518223  1
  Sb  Sb13  1  0.97404010  0.47141262  0.19966573  1
  Sb  Sb14  1  0.39096934  0.47355570  0.45167932  1
  Sb  Sb15  1  0.61912287  0.48586810  0.55424736  1
  Sb  Sb16  1  0.53701866  0.96636413  0.81707499  1
  Sb  Sb17  1  0.46500613  0.03483487  0.18445283  1
  S  S18  1  0.94922200  0.99407348  0.81987477  1
  S  S19  1  0.06249476  0.99519062  0.20879029  1
  S  S20  1  0.42968038  0.01995422  0.99427403  1
  S  S21  1  0.60465061  0.00183161  0.04958137  1
  S  S22  1  0.18887735  0.96509401  0.91710900  1
  S  S23  1  0.83200259  0.01733906  0.11698239  1
  S  S24  1  0.09641667  0.47041765  0.66189541  1
  S  S25  1  0.90930964  0.49915619  0.36277246  1
  S  S26  1  0.75018227  0.98137287  0.32258827  1
  S  S27  1  0.26120551  0.95150285  0.69020640  1
  S  S28  1  0.15361881  0.46547053  0.44248346  1
  S  S29  1  0.84053647  0.44149745  0.55840462  1
  S  S30  1  0.45454538  0.55306902  0.83549773  1
  S  S31  1  0.57387702  0.51693418  0.23128414  1
  S  S32  1  0.92622884  0.51264967  0.99057214  1
  S  S33  1  0.08172629  0.47947407  0.00915618  1
  S  S34  1  0.67990561  0.54965855  0.91106120  1
  S  S35  1  0.34034452  0.50791737  0.11753978  1
  S  S36  1  0.58561459  0.98628785  0.63894739  1
  S  S37  1  0.42259233  0.04904749  0.35574410  1
  S  S38  1  0.23501206  0.47699470  0.28240855  1
  S  S39  1  0.77693193  0.43386756  0.69496970  1
  S  S40  1  0.68128596  0.98567790  0.45469073  1
  S  S41  1  0.32518611  0.03606400  0.53417215  1
