# generated using pymatgen
data_Pr2Mn3(SbS3)4
_symmetry_space_group_name_H-M   'P 1'
_cell_length_a   20.02960800
_cell_length_b   3.90410600
_cell_length_c   14.95364829
_cell_angle_alpha   90.00000000
_cell_angle_beta   126.33350609
_cell_angle_gamma   90.00000000
_symmetry_Int_Tables_number   1
_chemical_formula_structural   Pr2Mn3(SbS3)4
_chemical_formula_sum   'Pr4 Mn6 Sb8 S24'
_cell_volume   942.00006694
_cell_formula_units_Z   2
loop_
 _symmetry_equiv_pos_site_id
 _symmetry_equiv_pos_as_xyz
  1  'x, y, z'
loop_
 _atom_site_type_symbol
 _atom_site_label
 _atom_site_symmetry_multiplicity
 _atom_site_fract_x
 _atom_site_fract_y
 _atom_site_fract_z
 _atom_site_occupancy
  Pr  Pr0  1  0.26355935  0.48889512  0.86975009  1
  Pr  Pr1  1  0.73581093  0.49970776  0.13719368  1
  Pr  Pr2  1  0.77818873  0.96791520  0.87454546  1
  Pr  Pr3  1  0.23562635  0.01757808  0.13251966  1
  Mn  Mn4  1  0.28093918  0.54563972  0.57097722  1
  Mn  Mn5  1  0.71494791  0.51373352  0.38417805  1
  Mn  Mn6  1  0.00016658  0.98293925  0.99604931  1
  Mn  Mn7  1  0.80151812  0.96210039  0.61593465  1
  Mn  Mn8  1  0.18403808  0.99478986  0.40572402  1
  Mn  Mn9  1  0.52530315  0.47212220  0.03510718  1
  Sb  Sb10  1  0.90557282  0.02610434  0.47214892  1
  Sb  Sb11  1  0.11656914  0.94143515  0.55266000  1
  Sb  Sb12  1  0.02974091  0.52191600  0.80507062  1
  Sb  Sb13  1  0.97403555  0.47137305  0.19967239  1
  Sb  Sb14  1  0.39093753  0.47356115  0.45169568  1
  Sb  Sb15  1  0.61889488  0.48662465  0.55425789  1
  Sb  Sb16  1  0.53697132  0.96682238  0.81712553  1
  Sb  Sb17  1  0.46492840  0.03494874  0.18431443  1
  S  S18  1  0.94920177  0.99586277  0.81992666  1
  S  S19  1  0.06230368  0.99405833  0.20894169  1
  S  S20  1  0.42960584  0.02112786  0.99417843  1
  S  S21  1  0.60523616  0.00083964  0.04950679  1
  S  S22  1  0.18907027  0.96639181  0.91736687  1
  S  S23  1  0.83223295  0.01794830  0.11709251  1
  S  S24  1  0.09632365  0.46937463  0.66207514  1
  S  S25  1  0.90937746  0.50061235  0.36273448  1
  S  S26  1  0.75049082  0.98251063  0.32303203  1
  S  S27  1  0.26114618  0.95185517  0.69016938  1
  S  S28  1  0.15400962  0.46571755  0.44279062  1
  S  S29  1  0.84046404  0.44086070  0.55840151  1
  S  S30  1  0.45502650  0.55280811  0.83588724  1
  S  S31  1  0.57381478  0.51553014  0.23110540  1
  S  S32  1  0.92627338  0.51217723  0.99068753  1
  S  S33  1  0.08172803  0.48046204  0.00930959  1
  S  S34  1  0.68020288  0.54847818  0.91133592  1
  S  S35  1  0.34052799  0.50760574  0.11761883  1
  S  S36  1  0.58545885  0.98535439  0.63881947  1
  S  S37  1  0.42247344  0.04880633  0.35558540  1
  S  S38  1  0.23473023  0.47778572  0.28200552  1
  S  S39  1  0.77654073  0.43398242  0.69492915  1
  S  S40  1  0.68139069  0.98693412  0.45447787  1
  S  S41  1  0.32534409  0.03442575  0.53417258  1
