# generated using pymatgen
data_Pr2Mn3(SbS3)4
_symmetry_space_group_name_H-M   'P 1'
_cell_length_a   20.02960800
_cell_length_b   3.90410600
_cell_length_c   14.95364829
_cell_angle_alpha   90.00000000
_cell_angle_beta   126.33350609
_cell_angle_gamma   90.00000000
_symmetry_Int_Tables_number   1
_chemical_formula_structural   Pr2Mn3(SbS3)4
_chemical_formula_sum   'Pr4 Mn6 Sb8 S24'
_cell_volume   942.00006694
_cell_formula_units_Z   2
loop_
 _symmetry_equiv_pos_site_id
 _symmetry_equiv_pos_as_xyz
  1  'x, y, z'
loop_
 _atom_site_type_symbol
 _atom_site_label
 _atom_site_symmetry_multiplicity
 _atom_site_fract_x
 _atom_site_fract_y
 _atom_site_fract_z
 _atom_site_occupancy
  Pr  Pr0  1  0.26363220  0.48936881  0.86972607  1
  Pr  Pr1  1  0.73570594  0.49954839  0.13721992  1
  Pr  Pr2  1  0.77821649  0.96775651  0.87458392  1
  Pr  Pr3  1  0.23571190  0.01674202  0.13258548  1
  Mn  Mn4  1  0.28097042  0.54592545  0.57114669  1
  Mn  Mn5  1  0.71484785  0.51528999  0.38421588  1
  Mn  Mn6  1  0.00014435  0.98261944  0.99596510  1
  Mn  Mn7  1  0.80156047  0.96214594  0.61584547  1
  Mn  Mn8  1  0.18421902  0.99434832  0.40570344  1
  Mn  Mn9  1  0.52556643  0.47211776  0.03546352  1
  Sb  Sb10  1  0.90542767  0.02652390  0.47212901  1
  Sb  Sb11  1  0.11657129  0.94157351  0.55268024  1
  Sb  Sb12  1  0.02976390  0.52240753  0.80483280  1
  Sb  Sb13  1  0.97395957  0.47200597  0.19961427  1
  Sb  Sb14  1  0.39091257  0.47372303  0.45167218  1
  Sb  Sb15  1  0.61877739  0.48749184  0.55433679  1
  Sb  Sb16  1  0.53703619  0.96713109  0.81731547  1
  Sb  Sb17  1  0.46488939  0.03489305  0.18430070  1
  S  S18  1  0.94927141  0.99758954  0.82004025  1
  S  S19  1  0.06217567  0.99277337  0.20919418  1
  S  S20  1  0.42949901  0.02151289  0.99396600  1
  S  S21  1  0.60576818  0.99960230  0.04934376  1
  S  S22  1  0.18913912  0.96824189  0.91747954  1
  S  S23  1  0.83251527  0.01848825  0.11722331  1
  S  S24  1  0.09621531  0.46805567  0.66220449  1
  S  S25  1  0.90952263  0.50171897  0.36278553  1
  S  S26  1  0.75076445  0.98383764  0.32333875  1
  S  S27  1  0.26112877  0.95261538  0.69016097  1
  S  S28  1  0.15418048  0.46620466  0.44297691  1
  S  S29  1  0.84048779  0.43963140  0.55829156  1
  S  S30  1  0.45539314  0.55242484  0.83610913  1
  S  S31  1  0.57365480  0.51466022  0.23068549  1
  S  S32  1  0.92627497  0.51180075  0.99063875  1
  S  S33  1  0.08163370  0.48193224  0.00923738  1
  S  S34  1  0.68046169  0.54705183  0.91149674  1
  S  S35  1  0.34065058  0.50736837  0.11772288  1
  S  S36  1  0.58549979  0.98398103  0.63900213  1
  S  S37  1  0.42224240  0.04846234  0.35530661  1
  S  S38  1  0.23442597  0.47806906  0.28163108  1
  S  S39  1  0.77640815  0.43414499  0.69521153  1
  S  S40  1  0.68134759  0.98769158  0.45430304  1
  S  S41  1  0.32541161  0.03339207  0.53408904  1
