# generated using pymatgen
data_Pr2Mn3(SbS3)4
_symmetry_space_group_name_H-M   'P 1'
_cell_length_a   20.02960800
_cell_length_b   3.90410600
_cell_length_c   14.95364829
_cell_angle_alpha   90.00000000
_cell_angle_beta   126.33350609
_cell_angle_gamma   90.00000000
_symmetry_Int_Tables_number   1
_chemical_formula_structural   Pr2Mn3(SbS3)4
_chemical_formula_sum   'Pr4 Mn6 Sb8 S24'
_cell_volume   942.00006694
_cell_formula_units_Z   2
loop_
 _symmetry_equiv_pos_site_id
 _symmetry_equiv_pos_as_xyz
  1  'x, y, z'
loop_
 _atom_site_type_symbol
 _atom_site_label
 _atom_site_symmetry_multiplicity
 _atom_site_fract_x
 _atom_site_fract_y
 _atom_site_fract_z
 _atom_site_occupancy
  Pr  Pr0  1  0.26374046  0.48972239  0.86976240  1
  Pr  Pr1  1  0.73551321  0.49939910  0.13716205  1
  Pr  Pr2  1  0.77827197  0.96748930  0.87472480  1
  Pr  Pr3  1  0.23580774  0.01619583  0.13266225  1
  Mn  Mn4  1  0.28089865  0.54614398  0.57110623  1
  Mn  Mn5  1  0.71478515  0.51677160  0.38431858  1
  Mn  Mn6  1  0.00014183  0.98218086  0.99588210  1
  Mn  Mn7  1  0.80163711  0.96257632  0.61567670  1
  Mn  Mn8  1  0.18445865  0.99445774  0.40571760  1
  Mn  Mn9  1  0.52582613  0.47234684  0.03586421  1
  Sb  Sb10  1  0.90529434  0.02731435  0.47211816  1
  Sb  Sb11  1  0.11665718  0.94163492  0.55271573  1
  Sb  Sb12  1  0.02972156  0.52304646  0.80456446  1
  Sb  Sb13  1  0.97387701  0.47267927  0.19959979  1
  Sb  Sb14  1  0.39086995  0.47419283  0.45158151  1
  Sb  Sb15  1  0.61864128  0.48842199  0.55441585  1
  Sb  Sb16  1  0.53705834  0.96734674  0.81748665  1
  Sb  Sb17  1  0.46485345  0.03488797  0.18427708  1
  S  S18  1  0.94944978  0.99922283  0.82032580  1
  S  S19  1  0.06221885  0.99170228  0.20943319  1
  S  S20  1  0.42928412  0.02293004  0.99387796  1
  S  S21  1  0.60615379  0.99819093  0.04928005  1
  S  S22  1  0.18927037  0.97035527  0.91785511  1
  S  S23  1  0.83276398  0.01868334  0.11727302  1
  S  S24  1  0.09618309  0.46732394  0.66247302  1
  S  S25  1  0.90958046  0.50268762  0.36268052  1
  S  S26  1  0.75091047  0.98428038  0.32348465  1
  S  S27  1  0.26110737  0.95448915  0.69010492  1
  S  S28  1  0.15427733  0.46716119  0.44304892  1
  S  S29  1  0.84053969  0.43845556  0.55834174  1
  S  S30  1  0.45561396  0.55176807  0.83634779  1
  S  S31  1  0.57350383  0.51428056  0.23018289  1
  S  S32  1  0.92627747  0.51184403  0.99077699  1
  S  S33  1  0.08162363  0.48270519  0.00934357  1
  S  S34  1  0.68080100  0.54659952  0.91182958  1
  S  S35  1  0.34089421  0.50744962  0.11785606  1
  S  S36  1  0.58557246  0.98206763  0.63915307  1
  S  S37  1  0.42207669  0.04745708  0.35527412  1
  S  S38  1  0.23423032  0.47815288  0.28142925  1
  S  S39  1  0.77623491  0.43455997  0.69556834  1
  S  S40  1  0.68132931  0.98895222  0.45414135  1
  S  S41  1  0.32535557  0.03277644  0.53407176  1
