# generated using pymatgen
data_Pr2Mn3(SbS3)4
_symmetry_space_group_name_H-M   'P 1'
_cell_length_a   20.02960800
_cell_length_b   3.90410600
_cell_length_c   14.95364829
_cell_angle_alpha   90.00000000
_cell_angle_beta   126.33350609
_cell_angle_gamma   90.00000000
_symmetry_Int_Tables_number   1
_chemical_formula_structural   Pr2Mn3(SbS3)4
_chemical_formula_sum   'Pr4 Mn6 Sb8 S24'
_cell_volume   942.00006694
_cell_formula_units_Z   2
loop_
 _symmetry_equiv_pos_site_id
 _symmetry_equiv_pos_as_xyz
  1  'x, y, z'
loop_
 _atom_site_type_symbol
 _atom_site_label
 _atom_site_symmetry_multiplicity
 _atom_site_fract_x
 _atom_site_fract_y
 _atom_site_fract_z
 _atom_site_occupancy
  Pr  Pr0  1  0.26382949  0.48991940  0.86974644  1
  Pr  Pr1  1  0.73536875  0.49939720  0.13715074  1
  Pr  Pr2  1  0.77831934  0.96773770  0.87487977  1
  Pr  Pr3  1  0.23591877  0.01595954  0.13272439  1
  Mn  Mn4  1  0.28081027  0.54641048  0.57106221  1
  Mn  Mn5  1  0.71462247  0.51805073  0.38444610  1
  Mn  Mn6  1  0.00014052  0.98159549  0.99580327  1
  Mn  Mn7  1  0.80157384  0.96259798  0.61538093  1
  Mn  Mn8  1  0.18467154  0.99476196  0.40577217  1
  Mn  Mn9  1  0.52614102  0.47284807  0.03657122  1
  Sb  Sb10  1  0.90509155  0.02809729  0.47204388  1
  Sb  Sb11  1  0.11677267  0.94160848  0.55270744  1
  Sb  Sb12  1  0.02971542  0.52351564  0.80432521  1
  Sb  Sb13  1  0.97382772  0.47334126  0.19950957  1
  Sb  Sb14  1  0.39086151  0.47485929  0.45148571  1
  Sb  Sb15  1  0.61852099  0.48922093  0.55441453  1
  Sb  Sb16  1  0.53704713  0.96778501  0.81760543  1
  Sb  Sb17  1  0.46490256  0.03465869  0.18428348  1
  S  S18  1  0.94964956  0.00138769  0.82049954  1
  S  S19  1  0.06224337  0.99036133  0.20942707  1
  S  S20  1  0.42908526  0.02427150  0.99379466  1
  S  S21  1  0.60657708  0.99646435  0.04940607  1
  S  S22  1  0.18930168  0.97229851  0.91833432  1
  S  S23  1  0.83293015  0.01838888  0.11731211  1
  S  S24  1  0.09633768  0.46685039  0.66273766  1
  S  S25  1  0.90971231  0.50406926  0.36281499  1
  S  S26  1  0.75100091  0.98497486  0.32356449  1
  S  S27  1  0.26111189  0.95677483  0.69028697  1
  S  S28  1  0.15444058  0.46789094  0.44332037  1
  S  S29  1  0.84070843  0.43713729  0.55844396  1
  S  S30  1  0.45596313  0.55089223  0.83656702  1
  S  S31  1  0.57336784  0.51389081  0.22969522  1
  S  S32  1  0.92629584  0.51211610  0.99089588  1
  S  S33  1  0.08157546  0.48275453  0.00936052  1
  S  S34  1  0.68104284  0.54622517  0.91214674  1
  S  S35  1  0.34103970  0.50816439  0.11793685  1
  S  S36  1  0.58568814  0.98015800  0.63900963  1
  S  S37  1  0.42186164  0.04685506  0.35494655  1
  S  S38  1  0.23393481  0.47885506  0.28131171  1
  S  S39  1  0.77616133  0.43515113  0.69582751  1
  S  S40  1  0.68130521  0.98954666  0.45388276  1
  S  S41  1  0.32521710  0.03290642  0.53412676  1
