# generated using pymatgen
data_Pr2Mn3(SbS3)4
_symmetry_space_group_name_H-M   'P 1'
_cell_length_a   20.02960800
_cell_length_b   3.90410600
_cell_length_c   14.95364829
_cell_angle_alpha   90.00000000
_cell_angle_beta   126.33350609
_cell_angle_gamma   90.00000000
_symmetry_Int_Tables_number   1
_chemical_formula_structural   Pr2Mn3(SbS3)4
_chemical_formula_sum   'Pr4 Mn6 Sb8 S24'
_cell_volume   942.00006694
_cell_formula_units_Z   2
loop_
 _symmetry_equiv_pos_site_id
 _symmetry_equiv_pos_as_xyz
  1  'x, y, z'
loop_
 _atom_site_type_symbol
 _atom_site_label
 _atom_site_symmetry_multiplicity
 _atom_site_fract_x
 _atom_site_fract_y
 _atom_site_fract_z
 _atom_site_occupancy
  Pr  Pr0  1  0.26391423  0.48991615  0.86973712  1
  Pr  Pr1  1  0.73521651  0.49935711  0.13719034  1
  Pr  Pr2  1  0.77841567  0.96789924  0.87505589  1
  Pr  Pr3  1  0.23602274  0.01582951  0.13281513  1
  Mn  Mn4  1  0.28077008  0.54706918  0.57110902  1
  Mn  Mn5  1  0.71449750  0.51953339  0.38446882  1
  Mn  Mn6  1  0.00017819  0.98141940  0.99569416  1
  Mn  Mn7  1  0.80153715  0.96248863  0.61523807  1
  Mn  Mn8  1  0.18478510  0.99485836  0.40572367  1
  Mn  Mn9  1  0.52653873  0.47321870  0.03730452  1
  Sb  Sb10  1  0.90490580  0.02890050  0.47203174  1
  Sb  Sb11  1  0.11675089  0.94118422  0.55259496  1
  Sb  Sb12  1  0.02975109  0.52411627  0.80408229  1
  Sb  Sb13  1  0.97386306  0.47384993  0.19956007  1
  Sb  Sb14  1  0.39086696  0.47543491  0.45138060  1
  Sb  Sb15  1  0.61842243  0.48990921  0.55445288  1
  Sb  Sb16  1  0.53702003  0.96852887  0.81762601  1
  Sb  Sb17  1  0.46488399  0.03472577  0.18428492  1
  S  S18  1  0.94980038  0.00323711  0.82066546  1
  S  S19  1  0.06226885  0.98927432  0.20948651  1
  S  S20  1  0.42894155  0.02513279  0.99381789  1
  S  S21  1  0.60686484  0.99467055  0.04927520  1
  S  S22  1  0.18920027  0.97446937  0.91869275  1
  S  S23  1  0.83330153  0.01829620  0.11732579  1
  S  S24  1  0.09646497  0.46658424  0.66291463  1
  S  S25  1  0.90984524  0.50561244  0.36279345  1
  S  S26  1  0.75093758  0.98543583  0.32358968  1
  S  S27  1  0.26098507  0.95893658  0.69024967  1
  S  S28  1  0.15460581  0.46846412  0.44353253  1
  S  S29  1  0.84101553  0.43614048  0.55855780  1
  S  S30  1  0.45630920  0.55061828  0.83673819  1
  S  S31  1  0.57322483  0.51332892  0.22930583  1
  S  S32  1  0.92621256  0.51247711  0.99078290  1
  S  S33  1  0.08156459  0.48267101  0.00932388  1
  S  S34  1  0.68133197  0.54573633  0.91251636  1
  S  S35  1  0.34118210  0.50894150  0.11822101  1
  S  S36  1  0.58583411  0.97838599  0.63907859  1
  S  S37  1  0.42179861  0.04643670  0.35481506  1
  S  S38  1  0.23365207  0.47946898  0.28111838  1
  S  S39  1  0.77618476  0.43483052  0.69606599  1
  S  S40  1  0.68115300  0.99061287  0.45343962  1
  S  S41  1  0.32512200  0.03355474  0.53412228  1
