# generated using pymatgen
data_Pr2Mn3(SbS3)4
_symmetry_space_group_name_H-M   'P 1'
_cell_length_a   20.02960800
_cell_length_b   3.90410600
_cell_length_c   14.95364829
_cell_angle_alpha   90.00000000
_cell_angle_beta   126.33350609
_cell_angle_gamma   90.00000000
_symmetry_Int_Tables_number   1
_chemical_formula_structural   Pr2Mn3(SbS3)4
_chemical_formula_sum   'Pr4 Mn6 Sb8 S24'
_cell_volume   942.00006694
_cell_formula_units_Z   2
loop_
 _symmetry_equiv_pos_site_id
 _symmetry_equiv_pos_as_xyz
  1  'x, y, z'
loop_
 _atom_site_type_symbol
 _atom_site_label
 _atom_site_symmetry_multiplicity
 _atom_site_fract_x
 _atom_site_fract_y
 _atom_site_fract_z
 _atom_site_occupancy
  Pr  Pr0  1  0.26400612  0.48970029  0.86966606  1
  Pr  Pr1  1  0.73504619  0.49934485  0.13718536  1
  Pr  Pr2  1  0.77847473  0.96805371  0.87518892  1
  Pr  Pr3  1  0.23607987  0.01585307  0.13294842  1
  Mn  Mn4  1  0.28068355  0.54762566  0.57109903  1
  Mn  Mn5  1  0.71440516  0.52098622  0.38457001  1
  Mn  Mn6  1  0.00010475  0.98104550  0.99538809  1
  Mn  Mn7  1  0.80139675  0.96298200  0.61513194  1
  Mn  Mn8  1  0.18496661  0.99473896  0.40577645  1
  Mn  Mn9  1  0.52687303  0.47334634  0.03795313  1
  Sb  Sb10  1  0.90474214  0.02973261  0.47203019  1
  Sb  Sb11  1  0.11677635  0.94057983  0.55255398  1
  Sb  Sb12  1  0.02977521  0.52434512  0.80385307  1
  Sb  Sb13  1  0.97387665  0.47433476  0.19971196  1
  Sb  Sb14  1  0.39083831  0.47605088  0.45125889  1
  Sb  Sb15  1  0.61829515  0.49003269  0.55445998  1
  Sb  Sb16  1  0.53699468  0.96875572  0.81771486  1
  Sb  Sb17  1  0.46490815  0.03523997  0.18444539  1
  S  S18  1  0.94985127  0.00520738  0.82075464  1
  S  S19  1  0.06236797  0.98795573  0.20954341  1
  S  S20  1  0.42871565  0.02543454  0.99368216  1
  S  S21  1  0.60729347  0.99319618  0.04942334  1
  S  S22  1  0.18900281  0.97623586  0.91889082  1
  S  S23  1  0.83354292  0.01819800  0.11724149  1
  S  S24  1  0.09657413  0.46602414  0.66334041  1
  S  S25  1  0.90988558  0.50773143  0.36267232  1
  S  S26  1  0.75101501  0.98532652  0.32377330  1
  S  S27  1  0.26085579  0.96107746  0.69038182  1
  S  S28  1  0.15468344  0.46960884  0.44356664  1
  S  S29  1  0.84127821  0.43453651  0.55848606  1
  S  S30  1  0.45647642  0.55031338  0.83671513  1
  S  S31  1  0.57308688  0.51300268  0.22883871  1
  S  S32  1  0.92618063  0.51246798  0.99079576  1
  S  S33  1  0.08147169  0.48339374  0.00925597  1
  S  S34  1  0.68154034  0.54544675  0.91275800  1
  S  S35  1  0.34122192  0.50993765  0.11843133  1
  S  S36  1  0.58588400  0.97680169  0.63898141  1
  S  S37  1  0.42191316  0.04552632  0.35504619  1
  S  S38  1  0.23333752  0.47977254  0.28091239  1
  S  S39  1  0.77622529  0.43378174  0.69599517  1
  S  S40  1  0.68111228  0.99176502  0.45327233  1
  S  S41  1  0.32502924  0.03410274  0.53400877  1
