# generated using pymatgen
data_Pr2Mn3(SbS3)4
_symmetry_space_group_name_H-M   'P 1'
_cell_length_a   20.02960800
_cell_length_b   3.90410600
_cell_length_c   14.95364829
_cell_angle_alpha   90.00000000
_cell_angle_beta   126.33350609
_cell_angle_gamma   90.00000000
_symmetry_Int_Tables_number   1
_chemical_formula_structural   Pr2Mn3(SbS3)4
_chemical_formula_sum   'Pr4 Mn6 Sb8 S24'
_cell_volume   942.00006694
_cell_formula_units_Z   2
loop_
 _symmetry_equiv_pos_site_id
 _symmetry_equiv_pos_as_xyz
  1  'x, y, z'
loop_
 _atom_site_type_symbol
 _atom_site_label
 _atom_site_symmetry_multiplicity
 _atom_site_fract_x
 _atom_site_fract_y
 _atom_site_fract_z
 _atom_site_occupancy
  Pr  Pr0  1  0.26154515  0.49457450  0.86601187  1
  Pr  Pr1  1  0.74027293  0.50347148  0.13731234  1
  Pr  Pr2  1  0.76073080  0.00722638  0.86162191  1
  Pr  Pr3  1  0.23983729  0.99039742  0.13873805  1
  Mn  Mn4  1  0.29921441  0.50727736  0.62011065  1
  Mn  Mn5  1  0.69787694  0.49919502  0.38080713  1
  Mn  Mn6  1  0.00148413  0.00349809  0.00006950  1
  Mn  Mn7  1  0.80269548  0.99354290  0.61791357  1
  Mn  Mn8  1  0.19904752  0.98499357  0.37871832  1
  Mn  Mn9  1  0.50118606  0.48568077  0.99947482  1
  Sb  Sb10  1  0.89487087  0.01026291  0.45436293  1
  Sb  Sb11  1  0.10733223  0.98880570  0.55058581  1
  Sb  Sb12  1  0.03817722  0.48848719  0.81517314  1
  Sb  Sb13  1  0.96225337  0.50374098  0.18814855  1
  Sb  Sb14  1  0.39431819  0.48887197  0.45566814  1
  Sb  Sb15  1  0.60654528  0.49996514  0.54886827  1
  Sb  Sb16  1  0.53742893  0.00079374  0.81377973  1
  Sb  Sb17  1  0.46269935  0.00019137  0.18337228  1
  S  S18  1  0.93845916  0.98712515  0.79857448  1
  S  S19  1  0.05824151  0.99731514  0.19201190  1
  S  S20  1  0.40339406  0.97976608  0.97941099  1
  S  S21  1  0.59638100  0.99515352  0.01713119  1
  S  S22  1  0.17010979  0.98628942  0.90275204  1
  S  S23  1  0.82776183  0.00473928  0.10482656  1
  S  S24  1  0.08707548  0.49159186  0.64635815  1
  S  S25  1  0.91136373  0.48153289  0.35365549  1
  S  S26  1  0.74397451  0.96927944  0.29597614  1
  S  S27  1  0.25573974  0.00655493  0.69964850  1
  S  S28  1  0.15999660  0.49194581  0.44690614  1
  S  S29  1  0.83234877  0.49054956  0.54777729  1
  S  S30  1  0.43665010  0.50468186  0.79847669  1
  S  S31  1  0.56091130  0.49394874  0.19675368  1
  S  S32  1  0.90183399  0.47726422  0.97806058  1
  S  S33  1  0.09236218  0.48456486  0.01773450  1
  S  S34  1  0.66503571  0.50835002  0.89538602  1
  S  S35  1  0.33325529  0.50777434  0.10439915  1
  S  S36  1  0.59163363  0.01623391  0.64982989  1
  S  S37  1  0.41291684  0.98433650  0.35759290  1
  S  S38  1  0.24237106  0.47481885  0.29495308  1
  S  S39  1  0.76467297  0.50264295  0.70486404  1
  S  S40  1  0.66287820  0.00544493  0.46021662  1
  S  S41  1  0.33609244  0.99045481  0.54189736  1
