# generated using pymatgen
data_Pr2Mn3(SbS3)4
_symmetry_space_group_name_H-M   'P 1'
_cell_length_a   20.02960800
_cell_length_b   3.90410600
_cell_length_c   14.95364829
_cell_angle_alpha   90.00000000
_cell_angle_beta   126.33350609
_cell_angle_gamma   90.00000000
_symmetry_Int_Tables_number   1
_chemical_formula_structural   Pr2Mn3(SbS3)4
_chemical_formula_sum   'Pr4 Mn6 Sb8 S24'
_cell_volume   942.00006694
_cell_formula_units_Z   2
loop_
 _symmetry_equiv_pos_site_id
 _symmetry_equiv_pos_as_xyz
  1  'x, y, z'
loop_
 _atom_site_type_symbol
 _atom_site_label
 _atom_site_symmetry_multiplicity
 _atom_site_fract_x
 _atom_site_fract_y
 _atom_site_fract_z
 _atom_site_occupancy
  Pr  Pr0  1  0.26974688  0.50778580  0.87348205  1
  Pr  Pr1  1  0.73432927  0.51972520  0.13519207  1
  Pr  Pr2  1  0.76441362  0.03354614  0.87112966  1
  Pr  Pr3  1  0.22818357  0.96118636  0.12764244  1
  Mn  Mn4  1  0.29858554  0.45929815  0.60924197  1
  Mn  Mn5  1  0.68644107  0.45363482  0.36537381  1
  Mn  Mn6  1  0.99869519  0.98174735  0.00738146  1
  Mn  Mn7  1  0.79025437  0.02427170  0.61417876  1
  Mn  Mn8  1  0.19836706  0.02742519  0.37095206  1
  Mn  Mn9  1  0.47953545  0.47384645  0.97812415  1
  Sb  Sb10  1  0.89133177  0.97114434  0.44870793  1
  Sb  Sb11  1  0.11332388  0.97682852  0.54802202  1
  Sb  Sb12  1  0.03873475  0.52023729  0.82745060  1
  Sb  Sb13  1  0.96838033  0.48340146  0.19246969  1
  Sb  Sb14  1  0.39856676  0.49270989  0.45401935  1
  Sb  Sb15  1  0.61317016  0.48510450  0.54787271  1
  Sb  Sb16  1  0.52928114  0.97305687  0.80568217  1
  Sb  Sb17  1  0.46537745  0.03272035  0.18491382  1
  S  S18  1  0.93859284  0.99711351  0.80328361  1
  S  S19  1  0.06625674  0.99057474  0.20108321  1
  S  S20  1  0.41868061  0.98061173  0.97472178  1
  S  S21  1  0.58499702  0.02522691  0.00806644  1
  S  S22  1  0.16157633  0.02503243  0.89476715  1
  S  S23  1  0.82792358  0.97599707  0.10277606  1
  S  S24  1  0.08930641  0.50037214  0.63625045  1
  S  S25  1  0.91513820  0.50845394  0.35544258  1
  S  S26  1  0.73525628  0.99482560  0.29841268  1
  S  S27  1  0.26378979  0.01351396  0.70446339  1
  S  S28  1  0.17211016  0.52134157  0.44245909  1
  S  S29  1  0.80617760  0.52493048  0.53763391  1
  S  S30  1  0.43269230  0.47207296  0.79828720  1
  S  S31  1  0.55434002  0.49060868  0.17695538  1
  S  S32  1  0.92044050  0.52270190  0.98704050  1
  S  S33  1  0.08460026  0.49595290  0.02142774  1
  S  S34  1  0.66904379  0.55737118  0.89322862  1
  S  S35  1  0.32929062  0.46321193  0.10173234  1
  S  S36  1  0.58890931  0.99215225  0.64248005  1
  S  S37  1  0.39241460  0.99734275  0.33080800  1
  S  S38  1  0.24602133  0.46846143  0.31680776  1
  S  S39  1  0.76372557  0.48793424  0.69354333  1
  S  S40  1  0.65726580  0.98933211  0.43290828  1
  S  S41  1  0.32960539  0.98457128  0.55472188  1
