# generated using pymatgen
data_Pr2Mn3(SbS3)4
_symmetry_space_group_name_H-M   'P 1'
_cell_length_a   20.02960800
_cell_length_b   3.90410600
_cell_length_c   14.95364829
_cell_angle_alpha   90.00000000
_cell_angle_beta   126.33350609
_cell_angle_gamma   90.00000000
_symmetry_Int_Tables_number   1
_chemical_formula_structural   Pr2Mn3(SbS3)4
_chemical_formula_sum   'Pr4 Mn6 Sb8 S24'
_cell_volume   942.00006694
_cell_formula_units_Z   2
loop_
 _symmetry_equiv_pos_site_id
 _symmetry_equiv_pos_as_xyz
  1  'x, y, z'
loop_
 _atom_site_type_symbol
 _atom_site_label
 _atom_site_symmetry_multiplicity
 _atom_site_fract_x
 _atom_site_fract_y
 _atom_site_fract_z
 _atom_site_occupancy
  Pr  Pr0  1  0.26401075  0.48964600  0.86955821  1
  Pr  Pr1  1  0.73494349  0.49978764  0.13724520  1
  Pr  Pr2  1  0.77853185  0.96831031  0.87537861  1
  Pr  Pr3  1  0.23616214  0.01600089  0.13310480  1
  Mn  Mn4  1  0.28064494  0.54837693  0.57110718  1
  Mn  Mn5  1  0.71440940  0.52230837  0.38482679  1
  Mn  Mn6  1  0.00007522  0.98009514  0.99510714  1
  Mn  Mn7  1  0.80127393  0.96331487  0.61508351  1
  Mn  Mn8  1  0.18526506  0.99467975  0.40605022  1
  Mn  Mn9  1  0.52719475  0.47305021  0.03841498  1
  Sb  Sb10  1  0.90466616  0.03048632  0.47215534  1
  Sb  Sb11  1  0.11678308  0.93989574  0.55252520  1
  Sb  Sb12  1  0.02965554  0.52466543  0.80353934  1
  Sb  Sb13  1  0.97392089  0.47483692  0.19990451  1
  Sb  Sb14  1  0.39075133  0.47646989  0.45120829  1
  Sb  Sb15  1  0.61816904  0.49009527  0.55446707  1
  Sb  Sb16  1  0.53694827  0.96910301  0.81775893  1
  Sb  Sb17  1  0.46487976  0.03576422  0.18457717  1
  S  S18  1  0.94987613  0.00699599  0.82090602  1
  S  S19  1  0.06234018  0.98662022  0.20949599  1
  S  S20  1  0.42855788  0.02631518  0.99345623  1
  S  S21  1  0.60765768  0.99114210  0.04932769  1
  S  S22  1  0.18899500  0.97806565  0.91912348  1
  S  S23  1  0.83380921  0.01813715  0.11722106  1
  S  S24  1  0.09677195  0.46641988  0.66362982  1
  S  S25  1  0.90977836  0.50963903  0.36242183  1
  S  S26  1  0.75119363  0.98489666  0.32406352  1
  S  S27  1  0.26061611  0.96330737  0.69023551  1
  S  S28  1  0.15479289  0.47008067  0.44377650  1
  S  S29  1  0.84170188  0.43312518  0.55852988  1
  S  S30  1  0.45679152  0.55007911  0.83698586  1
  S  S31  1  0.57301446  0.51193714  0.22844166  1
  S  S32  1  0.92615958  0.51184511  0.99079382  1
  S  S33  1  0.08150836  0.48438205  0.00923139  1
  S  S34  1  0.68158823  0.54536686  0.91295342  1
  S  S35  1  0.34134467  0.51118809  0.11855049  1
  S  S36  1  0.58610321  0.97556050  0.63897774  1
  S  S37  1  0.42202389  0.04406985  0.35517402  1
  S  S38  1  0.23298723  0.48023979  0.28061518  1
  S  S39  1  0.77622305  0.43234738  0.69593678  1
  S  S40  1  0.68110304  0.99241430  0.45326216  1
  S  S41  1  0.32504896  0.03471978  0.53405224  1
