# generated using pymatgen
data_Pr2Mn3(SbS3)4
_symmetry_space_group_name_H-M   'P 1'
_cell_length_a   20.02960800
_cell_length_b   3.90410600
_cell_length_c   14.95364829
_cell_angle_alpha   90.00000000
_cell_angle_beta   126.33350609
_cell_angle_gamma   90.00000000
_symmetry_Int_Tables_number   1
_chemical_formula_structural   Pr2Mn3(SbS3)4
_chemical_formula_sum   'Pr4 Mn6 Sb8 S24'
_cell_volume   942.00006694
_cell_formula_units_Z   2
loop_
 _symmetry_equiv_pos_site_id
 _symmetry_equiv_pos_as_xyz
  1  'x, y, z'
loop_
 _atom_site_type_symbol
 _atom_site_label
 _atom_site_symmetry_multiplicity
 _atom_site_fract_x
 _atom_site_fract_y
 _atom_site_fract_z
 _atom_site_occupancy
  Pr  Pr0  1  0.26404090  0.48964702  0.86946955  1
  Pr  Pr1  1  0.73488428  0.50034067  0.13731617  1
  Pr  Pr2  1  0.77861200  0.96878750  0.87563182  1
  Pr  Pr3  1  0.23628775  0.01614382  0.13328445  1
  Mn  Mn4  1  0.28057362  0.54897761  0.57113620  1
  Mn  Mn5  1  0.71444842  0.52333377  0.38514575  1
  Mn  Mn6  1  0.00012496  0.97897347  0.99488460  1
  Mn  Mn7  1  0.80115619  0.96383911  0.61503784  1
  Mn  Mn8  1  0.18564038  0.99432449  0.40636070  1
  Mn  Mn9  1  0.52757385  0.47332153  0.03900270  1
  Sb  Sb10  1  0.90456059  0.03163977  0.47217595  1
  Sb  Sb11  1  0.11678825  0.93935768  0.55247070  1
  Sb  Sb12  1  0.02955173  0.52493731  0.80336278  1
  Sb  Sb13  1  0.97392304  0.47517137  0.20010594  1
  Sb  Sb14  1  0.39066688  0.47668265  0.45110256  1
  Sb  Sb15  1  0.61799485  0.49029157  0.55436351  1
  Sb  Sb16  1  0.53689416  0.96924282  0.81778047  1
  Sb  Sb17  1  0.46492313  0.03635375  0.18478795  1
  S  S18  1  0.94983093  0.00847645  0.82114974  1
  S  S19  1  0.06235715  0.98531706  0.20942106  1
  S  S20  1  0.42829554  0.02689114  0.99313651  1
  S  S21  1  0.60795155  0.98926878  0.04914911  1
  S  S22  1  0.18881310  0.97971201  0.91916198  1
  S  S23  1  0.83413652  0.01770596  0.11742608  1
  S  S24  1  0.09700280  0.46712414  0.66409322  1
  S  S25  1  0.90974491  0.51111164  0.36234619  1
  S  S26  1  0.75146928  0.98472022  0.32449147  1
  S  S27  1  0.26027397  0.96513658  0.69000700  1
  S  S28  1  0.15476672  0.47127444  0.44379756  1
  S  S29  1  0.84221626  0.43165919  0.55876057  1
  S  S30  1  0.45699233  0.54965119  0.83706617  1
  S  S31  1  0.57287331  0.51128750  0.22796689  1
  S  S32  1  0.92598382  0.51083723  0.99076171  1
  S  S33  1  0.08170264  0.48607559  0.00944282  1
  S  S34  1  0.68166577  0.54534867  0.91295550  1
  S  S35  1  0.34153002  0.51282086  0.11871369  1
  S  S36  1  0.58641828  0.97465925  0.63907721  1
  S  S37  1  0.42223311  0.04353498  0.35533782  1
  S  S38  1  0.23261921  0.48090972  0.28044778  1
  S  S39  1  0.77607164  0.43071371  0.69592152  1
  S  S40  1  0.68126718  0.99338376  0.45333336  1
  S  S41  1  0.32500830  0.03566822  0.53407088  1
