# generated using pymatgen
data_Pr2Mn3(SbS3)4
_symmetry_space_group_name_H-M   'P 1'
_cell_length_a   20.02960800
_cell_length_b   3.90410600
_cell_length_c   14.95364829
_cell_angle_alpha   90.00000000
_cell_angle_beta   126.33350609
_cell_angle_gamma   90.00000000
_symmetry_Int_Tables_number   1
_chemical_formula_structural   Pr2Mn3(SbS3)4
_chemical_formula_sum   'Pr4 Mn6 Sb8 S24'
_cell_volume   942.00006694
_cell_formula_units_Z   2
loop_
 _symmetry_equiv_pos_site_id
 _symmetry_equiv_pos_as_xyz
  1  'x, y, z'
loop_
 _atom_site_type_symbol
 _atom_site_label
 _atom_site_symmetry_multiplicity
 _atom_site_fract_x
 _atom_site_fract_y
 _atom_site_fract_z
 _atom_site_occupancy
  Pr  Pr0  1  0.26409133  0.48963265  0.86934479  1
  Pr  Pr1  1  0.73476274  0.50128497  0.13725206  1
  Pr  Pr2  1  0.77864200  0.96948430  0.87583404  1
  Pr  Pr3  1  0.23634609  0.01632828  0.13344006  1
  Mn  Mn4  1  0.28056093  0.54916526  0.57104987  1
  Mn  Mn5  1  0.71445451  0.52422566  0.38535824  1
  Mn  Mn6  1  0.00016947  0.97759268  0.99463819  1
  Mn  Mn7  1  0.80090809  0.96398324  0.61487987  1
  Mn  Mn8  1  0.18607197  0.99477153  0.40678732  1
  Mn  Mn9  1  0.52794318  0.47344420  0.03951919  1
  Sb  Sb10  1  0.90450214  0.03249261  0.47224629  1
  Sb  Sb11  1  0.11684979  0.93848718  0.55243098  1
  Sb  Sb12  1  0.02946647  0.52526526  0.80320666  1
  Sb  Sb13  1  0.97378642  0.47549191  0.20015301  1
  Sb  Sb14  1  0.39066436  0.47699668  0.45095759  1
  Sb  Sb15  1  0.61782029  0.49012867  0.55422962  1
  Sb  Sb16  1  0.53688662  0.96950003  0.81773424  1
  Sb  Sb17  1  0.46492051  0.03688840  0.18495247  1
  S  S18  1  0.94971055  0.01044557  0.82127130  1
  S  S19  1  0.06230941  0.98407338  0.20923092  1
  S  S20  1  0.42783123  0.02688986  0.99267723  1
  S  S21  1  0.60806204  0.98707864  0.04887826  1
  S  S22  1  0.18867144  0.98117486  0.91934165  1
  S  S23  1  0.83441102  0.01736519  0.11759313  1
  S  S24  1  0.09706000  0.46742337  0.66441052  1
  S  S25  1  0.90975172  0.51249752  0.36223452  1
  S  S26  1  0.75167488  0.98413387  0.32487261  1
  S  S27  1  0.25998669  0.96619127  0.68970436  1
  S  S28  1  0.15485122  0.47271111  0.44397584  1
  S  S29  1  0.84256689  0.43038380  0.55896392  1
  S  S30  1  0.45704028  0.54913497  0.83715200  1
  S  S31  1  0.57284886  0.50993925  0.22754827  1
  S  S32  1  0.92585194  0.50989979  0.99056987  1
  S  S33  1  0.08155270  0.48760021  0.00930723  1
  S  S34  1  0.68177307  0.54568720  0.91304356  1
  S  S35  1  0.34169184  0.51444388  0.11899052  1
  S  S36  1  0.58657376  0.97323195  0.63907377  1
  S  S37  1  0.42238534  0.04266648  0.35541415  1
  S  S38  1  0.23238211  0.48111837  0.28035139  1
  S  S39  1  0.77589337  0.42886407  0.69586763  1
  S  S40  1  0.68142826  0.99427605  0.45335563  1
  S  S41  1  0.32488758  0.03679058  0.53400344  1
