# generated using pymatgen
data_Pr2Mn3(SbS3)4
_symmetry_space_group_name_H-M   'P 1'
_cell_length_a   20.02960800
_cell_length_b   3.90410600
_cell_length_c   14.95364829
_cell_angle_alpha   90.00000000
_cell_angle_beta   126.33350609
_cell_angle_gamma   90.00000000
_symmetry_Int_Tables_number   1
_chemical_formula_structural   Pr2Mn3(SbS3)4
_chemical_formula_sum   'Pr4 Mn6 Sb8 S24'
_cell_volume   942.00006694
_cell_formula_units_Z   2
loop_
 _symmetry_equiv_pos_site_id
 _symmetry_equiv_pos_as_xyz
  1  'x, y, z'
loop_
 _atom_site_type_symbol
 _atom_site_label
 _atom_site_symmetry_multiplicity
 _atom_site_fract_x
 _atom_site_fract_y
 _atom_site_fract_z
 _atom_site_occupancy
  Pr  Pr0  1  0.26407808  0.48953379  0.86915291  1
  Pr  Pr1  1  0.73471993  0.50219554  0.13721341  1
  Pr  Pr2  1  0.77860402  0.97003418  0.87587276  1
  Pr  Pr3  1  0.23636747  0.01646528  0.13349295  1
  Mn  Mn4  1  0.28039830  0.54901497  0.57083545  1
  Mn  Mn5  1  0.71438121  0.52434358  0.38546909  1
  Mn  Mn6  1  0.00000676  0.97705268  0.99427655  1
  Mn  Mn7  1  0.80080551  0.96432370  0.61480542  1
  Mn  Mn8  1  0.18636909  0.99511342  0.40695301  1
  Mn  Mn9  1  0.52833918  0.47336937  0.03993706  1
  Sb  Sb10  1  0.90449275  0.03337882  0.47224571  1
  Sb  Sb11  1  0.11697644  0.93773846  0.55241307  1
  Sb  Sb12  1  0.02933174  0.52542981  0.80298475  1
  Sb  Sb13  1  0.97369886  0.47603264  0.20017894  1
  Sb  Sb14  1  0.39068350  0.47684533  0.45091515  1
  Sb  Sb15  1  0.61769682  0.49001336  0.55410829  1
  Sb  Sb16  1  0.53686630  0.96999916  0.81765552  1
  Sb  Sb17  1  0.46494792  0.03751359  0.18517219  1
  S  S18  1  0.94937859  0.01183293  0.82108630  1
  S  S19  1  0.06225118  0.98341634  0.20913398  1
  S  S20  1  0.42733442  0.02660170  0.99218283  1
  S  S21  1  0.60817458  0.98510344  0.04861275  1
  S  S22  1  0.18863861  0.98194176  0.91948984  1
  S  S23  1  0.83464678  0.01771743  0.11774871  1
  S  S24  1  0.09729417  0.46733926  0.66480079  1
  S  S25  1  0.90974048  0.51387295  0.36218904  1
  S  S26  1  0.75176975  0.98296051  0.32494328  1
  S  S27  1  0.25991574  0.96734782  0.68965983  1
  S  S28  1  0.15490455  0.47335566  0.44419894  1
  S  S29  1  0.84286692  0.42956191  0.55913864  1
  S  S30  1  0.45703629  0.54867673  0.83722326  1
  S  S31  1  0.57306014  0.50883887  0.22739424  1
  S  S32  1  0.92562485  0.50917938  0.99025989  1
  S  S33  1  0.08158563  0.48931280  0.00923367  1
  S  S34  1  0.68186431  0.54701339  0.91311642  1
  S  S35  1  0.34175751  0.51584945  0.11909923  1
  S  S36  1  0.58642609  0.97162685  0.63887844  1
  S  S37  1  0.42230725  0.04227883  0.35514711  1
  S  S38  1  0.23235684  0.48194148  0.28059858  1
  S  S39  1  0.77578308  0.42766006  0.69580747  1
  S  S40  1  0.68155397  0.99466099  0.45332670  1
  S  S41  1  0.32473655  0.03834202  0.53391684  1
