# generated using pymatgen
data_Pr2Mn3(SbS3)4
_symmetry_space_group_name_H-M   'P 1'
_cell_length_a   20.02960800
_cell_length_b   3.90410600
_cell_length_c   14.95364829
_cell_angle_alpha   90.00000000
_cell_angle_beta   126.33350609
_cell_angle_gamma   90.00000000
_symmetry_Int_Tables_number   1
_chemical_formula_structural   Pr2Mn3(SbS3)4
_chemical_formula_sum   'Pr4 Mn6 Sb8 S24'
_cell_volume   942.00006694
_cell_formula_units_Z   2
loop_
 _symmetry_equiv_pos_site_id
 _symmetry_equiv_pos_as_xyz
  1  'x, y, z'
loop_
 _atom_site_type_symbol
 _atom_site_label
 _atom_site_symmetry_multiplicity
 _atom_site_fract_x
 _atom_site_fract_y
 _atom_site_fract_z
 _atom_site_occupancy
  Pr  Pr0  1  0.26401006  0.48957815  0.86889045  1
  Pr  Pr1  1  0.73469375  0.50310983  0.13715439  1
  Pr  Pr2  1  0.77855368  0.97054964  0.87585381  1
  Pr  Pr3  1  0.23635878  0.01663627  0.13346195  1
  Mn  Mn4  1  0.28024788  0.54811740  0.57062440  1
  Mn  Mn5  1  0.71440549  0.52404227  0.38561507  1
  Mn  Mn6  1  0.99996792  0.97617222  0.99408955  1
  Mn  Mn7  1  0.80081110  0.96479054  0.61487648  1
  Mn  Mn8  1  0.18661239  0.99524632  0.40705396  1
  Mn  Mn9  1  0.52877236  0.47338777  0.04035407  1
  Sb  Sb10  1  0.90460443  0.03385092  0.47243036  1
  Sb  Sb11  1  0.11708732  0.93680772  0.55244321  1
  Sb  Sb12  1  0.02924293  0.52538337  0.80279043  1
  Sb  Sb13  1  0.97363806  0.47657463  0.20023799  1
  Sb  Sb14  1  0.39062613  0.47682097  0.45088416  1
  Sb  Sb15  1  0.61764484  0.49005329  0.55396729  1
  Sb  Sb16  1  0.53690101  0.97022160  0.81770186  1
  Sb  Sb17  1  0.46503351  0.03796482  0.18543289  1
  S  S18  1  0.94904732  0.01300165  0.82094040  1
  S  S19  1  0.06212431  0.98309602  0.20916332  1
  S  S20  1  0.42704905  0.02641233  0.99191476  1
  S  S21  1  0.60826787  0.98315223  0.04834941  1
  S  S22  1  0.18865084  0.98232847  0.91971519  1
  S  S23  1  0.83504884  0.01817522  0.11799614  1
  S  S24  1  0.09763564  0.46728347  0.66511958  1
  S  S25  1  0.90991053  0.51487020  0.36219376  1
  S  S26  1  0.75170491  0.98186773  0.32481731  1
  S  S27  1  0.25973878  0.96801630  0.68950359  1
  S  S28  1  0.15493369  0.47411128  0.44417576  1
  S  S29  1  0.84306749  0.42937300  0.55922821  1
  S  S30  1  0.45700911  0.54810491  0.83730790  1
  S  S31  1  0.57331038  0.50722010  0.22734331  1
  S  S32  1  0.92535705  0.50732727  0.98978743  1
  S  S33  1  0.08181880  0.49086873  0.00929122  1
  S  S34  1  0.68197703  0.54796444  0.91312548  1
  S  S35  1  0.34188758  0.51708303  0.11926202  1
  S  S36  1  0.58619640  0.97024958  0.63850068  1
  S  S37  1  0.42227350  0.04221909  0.35499604  1
  S  S38  1  0.23230005  0.48299211  0.28083528  1
  S  S39  1  0.77561662  0.42610613  0.69579646  1
  S  S40  1  0.68157207  0.99519294  0.45311723  1
  S  S41  1  0.32464782  0.04014424  0.53385100  1
