# generated using pymatgen
data_Pr2Mn3(SbS3)4
_symmetry_space_group_name_H-M   'P 1'
_cell_length_a   20.02960800
_cell_length_b   3.90410600
_cell_length_c   14.95364829
_cell_angle_alpha   90.00000000
_cell_angle_beta   126.33350609
_cell_angle_gamma   90.00000000
_symmetry_Int_Tables_number   1
_chemical_formula_structural   Pr2Mn3(SbS3)4
_chemical_formula_sum   'Pr4 Mn6 Sb8 S24'
_cell_volume   942.00006694
_cell_formula_units_Z   2
loop_
 _symmetry_equiv_pos_site_id
 _symmetry_equiv_pos_as_xyz
  1  'x, y, z'
loop_
 _atom_site_type_symbol
 _atom_site_label
 _atom_site_symmetry_multiplicity
 _atom_site_fract_x
 _atom_site_fract_y
 _atom_site_fract_z
 _atom_site_occupancy
  Pr  Pr0  1  0.26394221  0.48939001  0.86867315  1
  Pr  Pr1  1  0.73463866  0.50383541  0.13699316  1
  Pr  Pr2  1  0.77849542  0.97132281  0.87585526  1
  Pr  Pr3  1  0.23635104  0.01661268  0.13335547  1
  Mn  Mn4  1  0.28018868  0.54685088  0.57045914  1
  Mn  Mn5  1  0.71444753  0.52331543  0.38587599  1
  Mn  Mn6  1  0.00002517  0.97575025  0.99411172  1
  Mn  Mn7  1  0.80085777  0.96555496  0.61494314  1
  Mn  Mn8  1  0.18676493  0.99546900  0.40712053  1
  Mn  Mn9  1  0.52927419  0.47293788  0.04077336  1
  Sb  Sb10  1  0.90472593  0.03442040  0.47259064  1
  Sb  Sb11  1  0.11707821  0.93595083  0.55243024  1
  Sb  Sb12  1  0.02917422  0.52559564  0.80255859  1
  Sb  Sb13  1  0.97361680  0.47720901  0.20037949  1
  Sb  Sb14  1  0.39049779  0.47676512  0.45069766  1
  Sb  Sb15  1  0.61764595  0.48989079  0.55391642  1
  Sb  Sb16  1  0.53704840  0.97036482  0.81784706  1
  Sb  Sb17  1  0.46511780  0.03798344  0.18569542  1
  S  S18  1  0.94873575  0.01389301  0.82082343  1
  S  S19  1  0.06191199  0.98208910  0.20900154  1
  S  S20  1  0.42671076  0.02698458  0.99150997  1
  S  S21  1  0.60838518  0.98104941  0.04811128  1
  S  S22  1  0.18864044  0.98303178  0.91989528  1
  S  S23  1  0.83529775  0.01894550  0.11815217  1
  S  S24  1  0.09791121  0.46770065  0.66538904  1
  S  S25  1  0.91004147  0.51597775  0.36216962  1
  S  S26  1  0.75169586  0.98023734  0.32471742  1
  S  S27  1  0.25974337  0.96862850  0.68948282  1
  S  S28  1  0.15514266  0.47435771  0.44444305  1
  S  S29  1  0.84324633  0.42954113  0.55925547  1
  S  S30  1  0.45677059  0.54689302  0.83713072  1
  S  S31  1  0.57338525  0.50600477  0.22722367  1
  S  S32  1  0.92501303  0.50544223  0.98932130  1
  S  S33  1  0.08209843  0.49276214  0.00937588  1
  S  S34  1  0.68200490  0.54856167  0.91298706  1
  S  S35  1  0.34206033  0.51785582  0.11961255  1
  S  S36  1  0.58604399  0.96919365  0.63808198  1
  S  S37  1  0.42212369  0.04227601  0.35463865  1
  S  S38  1  0.23220385  0.48381290  0.28100717  1
  S  S39  1  0.77546736  0.42434075  0.69556308  1
  S  S40  1  0.68172267  0.99533166  0.45319717  1
  S  S41  1  0.32459223  0.04199124  0.53381511  1
