# generated using pymatgen
data_Pr2Mn3(SbS3)4
_symmetry_space_group_name_H-M   'P 1'
_cell_length_a   20.02960800
_cell_length_b   3.90410600
_cell_length_c   14.95364829
_cell_angle_alpha   90.00000000
_cell_angle_beta   126.33350609
_cell_angle_gamma   90.00000000
_symmetry_Int_Tables_number   1
_chemical_formula_structural   Pr2Mn3(SbS3)4
_chemical_formula_sum   'Pr4 Mn6 Sb8 S24'
_cell_volume   942.00006694
_cell_formula_units_Z   2
loop_
 _symmetry_equiv_pos_site_id
 _symmetry_equiv_pos_as_xyz
  1  'x, y, z'
loop_
 _atom_site_type_symbol
 _atom_site_label
 _atom_site_symmetry_multiplicity
 _atom_site_fract_x
 _atom_site_fract_y
 _atom_site_fract_z
 _atom_site_occupancy
  Pr  Pr0  1  0.26387124  0.48929968  0.86851031  1
  Pr  Pr1  1  0.73461482  0.50461782  0.13690639  1
  Pr  Pr2  1  0.77843444  0.97210807  0.87582668  1
  Pr  Pr3  1  0.23632799  0.01628775  0.13335597  1
  Mn  Mn4  1  0.28017099  0.54556893  0.57044571  1
  Mn  Mn5  1  0.71453040  0.52233053  0.38619608  1
  Mn  Mn6  1  0.00011009  0.97520368  0.99409833  1
  Mn  Mn7  1  0.80094453  0.96608056  0.61488357  1
  Mn  Mn8  1  0.18692704  0.99591979  0.40714997  1
  Mn  Mn9  1  0.52966290  0.47280615  0.04119119  1
  Sb  Sb10  1  0.90485459  0.03495515  0.47277132  1
  Sb  Sb11  1  0.11700420  0.93489031  0.55238651  1
  Sb  Sb12  1  0.02913175  0.52591720  0.80241886  1
  Sb  Sb13  1  0.97358295  0.47765999  0.20058089  1
  Sb  Sb14  1  0.39030755  0.47677882  0.45039249  1
  Sb  Sb15  1  0.61757456  0.48957831  0.55376688  1
  Sb  Sb16  1  0.53715623  0.97013899  0.81790612  1
  Sb  Sb17  1  0.46511008  0.03815687  0.18589512  1
  S  S18  1  0.94859826  0.01450696  0.82089947  1
  S  S19  1  0.06192375  0.98101850  0.20896789  1
  S  S20  1  0.42636628  0.02676501  0.99096409  1
  S  S21  1  0.60852919  0.97931365  0.04784503  1
  S  S22  1  0.18867637  0.98347368  0.92019293  1
  S  S23  1  0.83556716  0.01965082  0.11824617  1
  S  S24  1  0.09806011  0.46845582  0.66551899  1
  S  S25  1  0.91028053  0.51678949  0.36214694  1
  S  S26  1  0.75168732  0.97852644  0.32450821  1
  S  S27  1  0.25976209  0.96972863  0.68933302  1
  S  S28  1  0.15536742  0.47479847  0.44478241  1
  S  S29  1  0.84327130  0.42944243  0.55903091  1
  S  S30  1  0.45664607  0.54563588  0.83699556  1
  S  S31  1  0.57349051  0.50494890  0.22723444  1
  S  S32  1  0.92465239  0.50296453  0.98900764  1
  S  S33  1  0.08242085  0.49405898  0.00942197  1
  S  S34  1  0.68189613  0.55015833  0.91275318  1
  S  S35  1  0.34222680  0.51799111  0.11974745  1
  S  S36  1  0.58592777  0.96786461  0.63767612  1
  S  S37  1  0.42201624  0.04232107  0.35421605  1
  S  S38  1  0.23225038  0.48378845  0.28140579  1
  S  S39  1  0.77533212  0.42323976  0.69526800  1
  S  S40  1  0.68182082  0.99563580  0.45306847  1
  S  S41  1  0.32453714  0.04345837  0.53366385  1
