# generated using pymatgen
data_Pr2Mn3(SbS3)4
_symmetry_space_group_name_H-M   'P 1'
_cell_length_a   20.02960800
_cell_length_b   3.90410600
_cell_length_c   14.95364829
_cell_angle_alpha   90.00000000
_cell_angle_beta   126.33350609
_cell_angle_gamma   90.00000000
_symmetry_Int_Tables_number   1
_chemical_formula_structural   Pr2Mn3(SbS3)4
_chemical_formula_sum   'Pr4 Mn6 Sb8 S24'
_cell_volume   942.00006694
_cell_formula_units_Z   2
loop_
 _symmetry_equiv_pos_site_id
 _symmetry_equiv_pos_as_xyz
  1  'x, y, z'
loop_
 _atom_site_type_symbol
 _atom_site_label
 _atom_site_symmetry_multiplicity
 _atom_site_fract_x
 _atom_site_fract_y
 _atom_site_fract_z
 _atom_site_occupancy
  Pr  Pr0  1  0.26385190  0.48897073  0.86840641  1
  Pr  Pr1  1  0.73460735  0.50523715  0.13690052  1
  Pr  Pr2  1  0.77834593  0.97287065  0.87579263  1
  Pr  Pr3  1  0.23628071  0.01583300  0.13331241  1
  Mn  Mn4  1  0.28003305  0.54445923  0.57039150  1
  Mn  Mn5  1  0.71457374  0.52118971  0.38649695  1
  Mn  Mn6  1  0.00018052  0.97456788  0.99412506  1
  Mn  Mn7  1  0.80091818  0.96710762  0.61478185  1
  Mn  Mn8  1  0.18703377  0.99653300  0.40716649  1
  Mn  Mn9  1  0.52996501  0.47261527  0.04156414  1
  Sb  Sb10  1  0.90492957  0.03549174  0.47290527  1
  Sb  Sb11  1  0.11695093  0.93398472  0.55232270  1
  Sb  Sb12  1  0.02904282  0.52611157  0.80223751  1
  Sb  Sb13  1  0.97355211  0.47823544  0.20071296  1
  Sb  Sb14  1  0.39010486  0.47689029  0.45003000  1
  Sb  Sb15  1  0.61739195  0.48894701  0.55353292  1
  Sb  Sb16  1  0.53729481  0.97025072  0.81799318  1
  Sb  Sb17  1  0.46514776  0.03847217  0.18602480  1
  S  S18  1  0.94851703  0.01439213  0.82089238  1
  S  S19  1  0.06206621  0.97923871  0.20906324  1
  S  S20  1  0.42594911  0.02666885  0.99041718  1
  S  S21  1  0.60866932  0.97758432  0.04764084  1
  S  S22  1  0.18857111  0.98445956  0.92041548  1
  S  S23  1  0.83579142  0.02032473  0.11819547  1
  S  S24  1  0.09828981  0.46930165  0.66574914  1
  S  S25  1  0.91064639  0.51798537  0.36204239  1
  S  S26  1  0.75165768  0.97707292  0.32432990  1
  S  S27  1  0.25986723  0.97053334  0.68932943  1
  S  S28  1  0.15553805  0.47510840  0.44521331  1
  S  S29  1  0.84332733  0.42870602  0.55880482  1
  S  S30  1  0.45664645  0.54397420  0.83681572  1
  S  S31  1  0.57352184  0.50349121  0.22731447  1
  S  S32  1  0.92427462  0.50030399  0.98862731  1
  S  S33  1  0.08268750  0.49514012  0.00940479  1
  S  S34  1  0.68172837  0.55210961  0.91257583  1
  S  S35  1  0.34238686  0.51796552  0.11987011  1
  S  S36  1  0.58588558  0.96607978  0.63717993  1
  S  S37  1  0.42187337  0.04244414  0.35383490  1
  S  S38  1  0.23237483  0.48411262  0.28198106  1
  S  S39  1  0.77531448  0.42214612  0.69530502  1
  S  S40  1  0.68191711  0.99542970  0.45282939  1
  S  S41  1  0.32446328  0.04467312  0.53357348  1
