# generated using pymatgen
data_Pr2Mn3(SbS3)4
_symmetry_space_group_name_H-M   'P 1'
_cell_length_a   20.02960800
_cell_length_b   3.90410600
_cell_length_c   14.95364829
_cell_angle_alpha   90.00000000
_cell_angle_beta   126.33350609
_cell_angle_gamma   90.00000000
_symmetry_Int_Tables_number   1
_chemical_formula_structural   Pr2Mn3(SbS3)4
_chemical_formula_sum   'Pr4 Mn6 Sb8 S24'
_cell_volume   942.00006694
_cell_formula_units_Z   2
loop_
 _symmetry_equiv_pos_site_id
 _symmetry_equiv_pos_as_xyz
  1  'x, y, z'
loop_
 _atom_site_type_symbol
 _atom_site_label
 _atom_site_symmetry_multiplicity
 _atom_site_fract_x
 _atom_site_fract_y
 _atom_site_fract_z
 _atom_site_occupancy
  Pr  Pr0  1  0.26381883  0.48880088  0.86828405  1
  Pr  Pr1  1  0.73462517  0.50556158  0.13695529  1
  Pr  Pr2  1  0.77820496  0.97326088  0.87578384  1
  Pr  Pr3  1  0.23617371  0.01549736  0.13324109  1
  Mn  Mn4  1  0.27990165  0.54304360  0.57015148  1
  Mn  Mn5  1  0.71462998  0.52026414  0.38681429  1
  Mn  Mn6  1  0.00016830  0.97413264  0.99416728  1
  Mn  Mn7  1  0.80094421  0.96881525  0.61454618  1
  Mn  Mn8  1  0.18707014  0.99674542  0.40721196  1
  Mn  Mn9  1  0.53024397  0.47189411  0.04194044  1
  Sb  Sb10  1  0.90497190  0.03585181  0.47298980  1
  Sb  Sb11  1  0.11692277  0.93328738  0.55231660  1
  Sb  Sb12  1  0.02894370  0.52660182  0.80206778  1
  Sb  Sb13  1  0.97347108  0.47919650  0.20078173  1
  Sb  Sb14  1  0.38990008  0.47666172  0.44966213  1
  Sb  Sb15  1  0.61726646  0.48850580  0.55328982  1
  Sb  Sb16  1  0.53747912  0.97037770  0.81809679  1
  Sb  Sb17  1  0.46517251  0.03894353  0.18611180  1
  S  S18  1  0.94855429  0.01429654  0.82099248  1
  S  S19  1  0.06232548  0.97667796  0.20928717  1
  S  S20  1  0.42554907  0.02592946  0.99007309  1
  S  S21  1  0.60894036  0.97629452  0.04752587  1
  S  S22  1  0.18828857  0.98558639  0.92018229  1
  S  S23  1  0.83599779  0.02084791  0.11825771  1
  S  S24  1  0.09855150  0.46995257  0.66591510  1
  S  S25  1  0.91101439  0.51851947  0.36221406  1
  S  S26  1  0.75157431  0.97601247  0.32411882  1
  S  S27  1  0.25999756  0.97165007  0.68915241  1
  S  S28  1  0.15577595  0.47556603  0.44558418  1
  S  S29  1  0.84354417  0.42816664  0.55862975  1
  S  S30  1  0.45662601  0.54277428  0.83678176  1
  S  S31  1  0.57367041  0.50229455  0.22758085  1
  S  S32  1  0.92380531  0.49766876  0.98812562  1
  S  S33  1  0.08310146  0.49680332  0.00938762  1
  S  S34  1  0.68144917  0.55440544  0.91225567  1
  S  S35  1  0.34249341  0.51785006  0.11980629  1
  S  S36  1  0.58585291  0.96458391  0.63675058  1
  S  S37  1  0.42160274  0.04210820  0.35311685  1
  S  S38  1  0.23247257  0.48412381  0.28261971  1
  S  S39  1  0.77527665  0.42163702  0.69520423  1
  S  S40  1  0.68209126  0.99544687  0.45261647  1
  S  S41  1  0.32426793  0.04622620  0.53340072  1
