# generated using pymatgen
data_Pr2Mn3(SbS3)4
_symmetry_space_group_name_H-M   'P 1'
_cell_length_a   20.02960800
_cell_length_b   3.90410600
_cell_length_c   14.95364829
_cell_angle_alpha   90.00000000
_cell_angle_beta   126.33350609
_cell_angle_gamma   90.00000000
_symmetry_Int_Tables_number   1
_chemical_formula_structural   Pr2Mn3(SbS3)4
_chemical_formula_sum   'Pr4 Mn6 Sb8 S24'
_cell_volume   942.00006694
_cell_formula_units_Z   2
loop_
 _symmetry_equiv_pos_site_id
 _symmetry_equiv_pos_as_xyz
  1  'x, y, z'
loop_
 _atom_site_type_symbol
 _atom_site_label
 _atom_site_symmetry_multiplicity
 _atom_site_fract_x
 _atom_site_fract_y
 _atom_site_fract_z
 _atom_site_occupancy
  Pr  Pr0  1  0.26382956  0.48840841  0.86820973  1
  Pr  Pr1  1  0.73464474  0.50562779  0.13697721  1
  Pr  Pr2  1  0.77802979  0.97320810  0.87581175  1
  Pr  Pr3  1  0.23611438  0.01487496  0.13326583  1
  Mn  Mn4  1  0.27986763  0.54209273  0.56990898  1
  Mn  Mn5  1  0.71461912  0.51990479  0.38701822  1
  Mn  Mn6  1  0.00017381  0.97412337  0.99426846  1
  Mn  Mn7  1  0.80103436  0.97053516  0.61444766  1
  Mn  Mn8  1  0.18710071  0.99742601  0.40732370  1
  Mn  Mn9  1  0.53055826  0.47151444  0.04230058  1
  Sb  Sb10  1  0.90492394  0.03630788  0.47300535  1
  Sb  Sb11  1  0.11688484  0.93273878  0.55229992  1
  Sb  Sb12  1  0.02884652  0.52700459  0.80189964  1
  Sb  Sb13  1  0.97341923  0.48044630  0.20088918  1
  Sb  Sb14  1  0.38974789  0.47645174  0.44932190  1
  Sb  Sb15  1  0.61707564  0.48791554  0.55297360  1
  Sb  Sb16  1  0.53768366  0.97103082  0.81821528  1
  Sb  Sb17  1  0.46519303  0.03952385  0.18619296  1
  S  S18  1  0.94858044  0.01389291  0.82132075  1
  S  S19  1  0.06266100  0.97452771  0.20951395  1
  S  S20  1  0.42525580  0.02455982  0.99000537  1
  S  S21  1  0.60911087  0.97535329  0.04736750  1
  S  S22  1  0.18807254  0.98627727  0.92018887  1
  S  S23  1  0.83616115  0.02216187  0.11821786  1
  S  S24  1  0.09897041  0.47055755  0.66615314  1
  S  S25  1  0.91131053  0.51885285  0.36235283  1
  S  S26  1  0.75159365  0.97540368  0.32397516  1
  S  S27  1  0.25995421  0.97320040  0.68882294  1
  S  S28  1  0.15594521  0.47609126  0.44601409  1
  S  S29  1  0.84363121  0.42789496  0.55828674  1
  S  S30  1  0.45656441  0.54194674  0.83684963  1
  S  S31  1  0.57373926  0.50177135  0.22768325  1
  S  S32  1  0.92322805  0.49498657  0.98755877  1
  S  S33  1  0.08375872  0.49861545  0.00958623  1
  S  S34  1  0.68127386  0.55666652  0.91191881  1
  S  S35  1  0.34249557  0.51754675  0.11968221  1
  S  S36  1  0.58586182  0.96272927  0.63640547  1
  S  S37  1  0.42131231  0.04205379  0.35243186  1
  S  S38  1  0.23263689  0.48422894  0.28312530  1
  S  S39  1  0.77533880  0.42161482  0.69518905  1
  S  S40  1  0.68231305  0.99551532  0.45265097  1
  S  S41  1  0.32413767  0.04754845  0.53325250  1
