# generated using pymatgen
data_Pr2Mn3(SbS3)4
_symmetry_space_group_name_H-M   'P 1'
_cell_length_a   20.02960800
_cell_length_b   3.90410600
_cell_length_c   14.95364829
_cell_angle_alpha   90.00000000
_cell_angle_beta   126.33350609
_cell_angle_gamma   90.00000000
_symmetry_Int_Tables_number   1
_chemical_formula_structural   Pr2Mn3(SbS3)4
_chemical_formula_sum   'Pr4 Mn6 Sb8 S24'
_cell_volume   942.00006694
_cell_formula_units_Z   2
loop_
 _symmetry_equiv_pos_site_id
 _symmetry_equiv_pos_as_xyz
  1  'x, y, z'
loop_
 _atom_site_type_symbol
 _atom_site_label
 _atom_site_symmetry_multiplicity
 _atom_site_fract_x
 _atom_site_fract_y
 _atom_site_fract_z
 _atom_site_occupancy
  Pr  Pr0  1  0.26963387  0.50799458  0.87365949  1
  Pr  Pr1  1  0.73424839  0.52005476  0.13504879  1
  Pr  Pr2  1  0.76437824  0.03329117  0.87116111  1
  Pr  Pr3  1  0.22812245  0.96076567  0.12748278  1
  Mn  Mn4  1  0.29825735  0.45851874  0.60898516  1
  Mn  Mn5  1  0.68634047  0.45373383  0.36518128  1
  Mn  Mn6  1  0.99860086  0.98173291  0.00726870  1
  Mn  Mn7  1  0.79011906  0.02368480  0.61394981  1
  Mn  Mn8  1  0.19853268  0.02745539  0.37116897  1
  Mn  Mn9  1  0.47958392  0.47373765  0.97788612  1
  Sb  Sb10  1  0.89147888  0.97122560  0.44883907  1
  Sb  Sb11  1  0.11334573  0.97666351  0.54807450  1
  Sb  Sb12  1  0.03878181  0.51970619  0.82754479  1
  Sb  Sb13  1  0.96834731  0.48318538  0.19248541  1
  Sb  Sb14  1  0.39863796  0.49252260  0.45408677  1
  Sb  Sb15  1  0.61318482  0.48527542  0.54787223  1
  Sb  Sb16  1  0.52936401  0.97296956  0.80584873  1
  Sb  Sb17  1  0.46536410  0.03298557  0.18483196  1
  S  S18  1  0.93816211  0.99606288  0.80291251  1
  S  S19  1  0.06630721  0.98953384  0.20128735  1
  S  S20  1  0.41882929  0.97966351  0.97484102  1
  S  S21  1  0.58493465  0.02485917  0.00784485  1
  S  S22  1  0.16135785  0.02487839  0.89448084  1
  S  S23  1  0.82820923  0.97593617  0.10324399  1
  S  S24  1  0.08942316  0.49970529  0.63643696  1
  S  S25  1  0.91526717  0.50901103  0.35574252  1
  S  S26  1  0.73519672  0.99378653  0.29853974  1
  S  S27  1  0.26398183  0.01352770  0.70459438  1
  S  S28  1  0.17205313  0.52159954  0.44248489  1
  S  S29  1  0.80634387  0.52574228  0.53780362  1
  S  S30  1  0.43268923  0.47215569  0.79799546  1
  S  S31  1  0.55411837  0.49005317  0.17649961  1
  S  S32  1  0.92004761  0.52303840  0.98699475  1
  S  S33  1  0.08443964  0.49545978  0.02156945  1
  S  S34  1  0.66903948  0.55711911  0.89291334  1
  S  S35  1  0.32936886  0.46271579  0.10167972  1
  S  S36  1  0.58890554  0.99065957  0.64219681  1
  S  S37  1  0.39255419  0.99793613  0.33077165  1
  S  S38  1  0.24577117  0.46927582  0.31650699  1
  S  S39  1  0.76386622  0.48728454  0.69364848  1
  S  S40  1  0.65714148  0.99012478  0.43269914  1
  S  S41  1  0.32962373  0.98390403  0.55473420  1
