# generated using pymatgen
data_Pr2Mn3(SbS3)4
_symmetry_space_group_name_H-M   'P 1'
_cell_length_a   20.02960800
_cell_length_b   3.90410600
_cell_length_c   14.95364829
_cell_angle_alpha   90.00000000
_cell_angle_beta   126.33350609
_cell_angle_gamma   90.00000000
_symmetry_Int_Tables_number   1
_chemical_formula_structural   Pr2Mn3(SbS3)4
_chemical_formula_sum   'Pr4 Mn6 Sb8 S24'
_cell_volume   942.00006694
_cell_formula_units_Z   2
loop_
 _symmetry_equiv_pos_site_id
 _symmetry_equiv_pos_as_xyz
  1  'x, y, z'
loop_
 _atom_site_type_symbol
 _atom_site_label
 _atom_site_symmetry_multiplicity
 _atom_site_fract_x
 _atom_site_fract_y
 _atom_site_fract_z
 _atom_site_occupancy
  Pr  Pr0  1  0.26378129  0.48810997  0.86808430  1
  Pr  Pr1  1  0.73463208  0.50541394  0.13695011  1
  Pr  Pr2  1  0.77783091  0.97315503  0.87580493  1
  Pr  Pr3  1  0.23597528  0.01448644  0.13316437  1
  Mn  Mn4  1  0.27979915  0.54180115  0.56965312  1
  Mn  Mn5  1  0.71462005  0.51966015  0.38714587  1
  Mn  Mn6  1  0.00024150  0.97408482  0.99445361  1
  Mn  Mn7  1  0.80128239  0.97230636  0.61441408  1
  Mn  Mn8  1  0.18716118  0.99799866  0.40739665  1
  Mn  Mn9  1  0.53080395  0.47053276  0.04251702  1
  Sb  Sb10  1  0.90488716  0.03672310  0.47292234  1
  Sb  Sb11  1  0.11680934  0.93233459  0.55225775  1
  Sb  Sb12  1  0.02874668  0.52713529  0.80177150  1
  Sb  Sb13  1  0.97331906  0.48170019  0.20097922  1
  Sb  Sb14  1  0.38947437  0.47633690  0.44887880  1
  Sb  Sb15  1  0.61682725  0.48709692  0.55278267  1
  Sb  Sb16  1  0.53786633  0.97131707  0.81833478  1
  Sb  Sb17  1  0.46518110  0.04024577  0.18620435  1
  S  S18  1  0.94860810  0.01258004  0.82147195  1
  S  S19  1  0.06317610  0.97249265  0.20994863  1
  S  S20  1  0.42511396  0.02369089  0.98993931  1
  S  S21  1  0.60927019  0.97434476  0.04726276  1
  S  S22  1  0.18767548  0.98685115  0.92000781  1
  S  S23  1  0.83631840  0.02343284  0.11801650  1
  S  S24  1  0.09943319  0.47211190  0.66653675  1
  S  S25  1  0.91148061  0.51831971  0.36243282  1
  S  S26  1  0.75170547  0.97472040  0.32379211  1
  S  S27  1  0.26008509  0.97384069  0.68876363  1
  S  S28  1  0.15612102  0.47624563  0.44637447  1
  S  S29  1  0.84370382  0.42761223  0.55783488  1
  S  S30  1  0.45656449  0.54076219  0.83692779  1
  S  S31  1  0.57374934  0.50173341  0.22770359  1
  S  S32  1  0.92263485  0.49294335  0.98716520  1
  S  S33  1  0.08445430  0.50068509  0.00996451  1
  S  S34  1  0.68110033  0.55884374  0.91165768  1
  S  S35  1  0.34236773  0.51720067  0.11954011  1
  S  S36  1  0.58585064  0.96165449  0.63624544  1
  S  S37  1  0.42112457  0.04185993  0.35189470  1
  S  S38  1  0.23259660  0.48471324  0.28357291  1
  S  S39  1  0.77531209  0.42114993  0.69522781  1
  S  S40  1  0.68248976  0.99564975  0.45246826  1
  S  S41  1  0.32402120  0.04837452  0.53325905  1
