# generated using pymatgen
data_Pr2Mn3(SbS3)4
_symmetry_space_group_name_H-M   'P 1'
_cell_length_a   20.02960800
_cell_length_b   3.90410600
_cell_length_c   14.95364829
_cell_angle_alpha   90.00000000
_cell_angle_beta   126.33350609
_cell_angle_gamma   90.00000000
_symmetry_Int_Tables_number   1
_chemical_formula_structural   Pr2Mn3(SbS3)4
_chemical_formula_sum   'Pr4 Mn6 Sb8 S24'
_cell_volume   942.00006694
_cell_formula_units_Z   2
loop_
 _symmetry_equiv_pos_site_id
 _symmetry_equiv_pos_as_xyz
  1  'x, y, z'
loop_
 _atom_site_type_symbol
 _atom_site_label
 _atom_site_symmetry_multiplicity
 _atom_site_fract_x
 _atom_site_fract_y
 _atom_site_fract_z
 _atom_site_occupancy
  Pr  Pr0  1  0.26363642  0.48802158  0.86799191  1
  Pr  Pr1  1  0.73467091  0.50489918  0.13694412  1
  Pr  Pr2  1  0.77759457  0.97323167  0.87571369  1
  Pr  Pr3  1  0.23583951  0.01438338  0.13311095  1
  Mn  Mn4  1  0.27971549  0.54228360  0.56932999  1
  Mn  Mn5  1  0.71464593  0.51916766  0.38723177  1
  Mn  Mn6  1  0.00033488  0.97370252  0.99472283  1
  Mn  Mn7  1  0.80145945  0.97343452  0.61439112  1
  Mn  Mn8  1  0.18721477  0.99838766  0.40745574  1
  Mn  Mn9  1  0.53096491  0.46986088  0.04264145  1
  Sb  Sb10  1  0.90483365  0.03689232  0.47283572  1
  Sb  Sb11  1  0.11676207  0.93196392  0.55217105  1
  Sb  Sb12  1  0.02867977  0.52718029  0.80165600  1
  Sb  Sb13  1  0.97314224  0.48293269  0.20104364  1
  Sb  Sb14  1  0.38915146  0.47621735  0.44851383  1
  Sb  Sb15  1  0.61668400  0.48660412  0.55264801  1
  Sb  Sb16  1  0.53803701  0.97144469  0.81844555  1
  Sb  Sb17  1  0.46514009  0.04099368  0.18615351  1
  S  S18  1  0.94854340  0.01079543  0.82175756  1
  S  S19  1  0.06369269  0.97019486  0.21040031  1
  S  S20  1  0.42494644  0.02253199  0.98993082  1
  S  S21  1  0.60929118  0.97379734  0.04703033  1
  S  S22  1  0.18737472  0.98698615  0.91985640  1
  S  S23  1  0.83655806  0.02497800  0.11805828  1
  S  S24  1  0.09982642  0.47323469  0.66705814  1
  S  S25  1  0.91162093  0.51782315  0.36235065  1
  S  S26  1  0.75183095  0.97366457  0.32352680  1
  S  S27  1  0.26020059  0.97431818  0.68863554  1
  S  S28  1  0.15624938  0.47706230  0.44651020  1
  S  S29  1  0.84376301  0.42717696  0.55735507  1
  S  S30  1  0.45667380  0.53977013  0.83734113  1
  S  S31  1  0.57395305  0.50207249  0.22780971  1
  S  S32  1  0.92214743  0.49110836  0.98703237  1
  S  S33  1  0.08515076  0.50240094  0.01022475  1
  S  S34  1  0.68101940  0.56035091  0.91157632  1
  S  S35  1  0.34218436  0.51661864  0.11943117  1
  S  S36  1  0.58586298  0.96108590  0.63606417  1
  S  S37  1  0.42116586  0.04157872  0.35161490  1
  S  S38  1  0.23250979  0.48527351  0.28382188  1
  S  S39  1  0.77523773  0.42061593  0.69528077  1
  S  S40  1  0.68281470  0.99579051  0.45254903  1
  S  S41  1  0.32392414  0.04934039  0.53327976  1
