# generated using pymatgen
data_Pr2Mn3(SbS3)4
_symmetry_space_group_name_H-M   'P 1'
_cell_length_a   20.02960800
_cell_length_b   3.90410600
_cell_length_c   14.95364829
_cell_angle_alpha   90.00000000
_cell_angle_beta   126.33350609
_cell_angle_gamma   90.00000000
_symmetry_Int_Tables_number   1
_chemical_formula_structural   Pr2Mn3(SbS3)4
_chemical_formula_sum   'Pr4 Mn6 Sb8 S24'
_cell_volume   942.00006694
_cell_formula_units_Z   2
loop_
 _symmetry_equiv_pos_site_id
 _symmetry_equiv_pos_as_xyz
  1  'x, y, z'
loop_
 _atom_site_type_symbol
 _atom_site_label
 _atom_site_symmetry_multiplicity
 _atom_site_fract_x
 _atom_site_fract_y
 _atom_site_fract_z
 _atom_site_occupancy
  Pr  Pr0  1  0.26350476  0.48817902  0.86784797  1
  Pr  Pr1  1  0.73461940  0.50442150  0.13686519  1
  Pr  Pr2  1  0.77738939  0.97321832  0.87560274  1
  Pr  Pr3  1  0.23570701  0.01459092  0.13310713  1
  Mn  Mn4  1  0.27955926  0.54272763  0.56906380  1
  Mn  Mn5  1  0.71466114  0.51879569  0.38735116  1
  Mn  Mn6  1  0.00051181  0.97300539  0.99499844  1
  Mn  Mn7  1  0.80169252  0.97426881  0.61433887  1
  Mn  Mn8  1  0.18737306  0.99816046  0.40767676  1
  Mn  Mn9  1  0.53116001  0.46913391  0.04278713  1
  Sb  Sb10  1  0.90481462  0.03698991  0.47281820  1
  Sb  Sb11  1  0.11665673  0.93168893  0.55197981  1
  Sb  Sb12  1  0.02866197  0.52769353  0.80152207  1
  Sb  Sb13  1  0.97301015  0.48394262  0.20109127  1
  Sb  Sb14  1  0.38886827  0.47606562  0.44820095  1
  Sb  Sb15  1  0.61658288  0.48633890  0.55250946  1
  Sb  Sb16  1  0.53816395  0.97144808  0.81850113  1
  Sb  Sb17  1  0.46509062  0.04155107  0.18609897  1
  S  S18  1  0.94828109  0.00869833  0.82185101  1
  S  S19  1  0.06420962  0.96772056  0.21086243  1
  S  S20  1  0.42484585  0.02139130  0.99005499  1
  S  S21  1  0.60925081  0.97377843  0.04674399  1
  S  S22  1  0.18721534  0.98764643  0.91974190  1
  S  S23  1  0.83684646  0.02560065  0.11823339  1
  S  S24  1  0.10008891  0.47416644  0.66746430  1
  S  S25  1  0.91164772  0.51796583  0.36214310  1
  S  S26  1  0.75197309  0.97251263  0.32367213  1
  S  S27  1  0.26039121  0.97456492  0.68843748  1
  S  S28  1  0.15630281  0.47781280  0.44650964  1
  S  S29  1  0.84378555  0.42625681  0.55702750  1
  S  S30  1  0.45675320  0.53881641  0.83773090  1
  S  S31  1  0.57420572  0.50191838  0.22789167  1
  S  S32  1  0.92160213  0.48916574  0.98696324  1
  S  S33  1  0.08580955  0.50422219  0.01041678  1
  S  S34  1  0.68078698  0.56105188  0.91122016  1
  S  S35  1  0.34204893  0.51652960  0.11925567  1
  S  S36  1  0.58595766  0.96017869  0.63580997  1
  S  S37  1  0.42119576  0.04057348  0.35118692  1
  S  S38  1  0.23240403  0.48636501  0.28415805  1
  S  S39  1  0.77520199  0.41908963  0.69528823  1
  S  S40  1  0.68307945  0.99612429  0.45268969  1
  S  S41  1  0.32387308  0.05022160  0.53337115  1
