# generated using pymatgen
data_Pr2Mn3(SbS3)4
_symmetry_space_group_name_H-M   'P 1'
_cell_length_a   20.02960800
_cell_length_b   3.90410600
_cell_length_c   14.95364829
_cell_angle_alpha   90.00000000
_cell_angle_beta   126.33350609
_cell_angle_gamma   90.00000000
_symmetry_Int_Tables_number   1
_chemical_formula_structural   Pr2Mn3(SbS3)4
_chemical_formula_sum   'Pr4 Mn6 Sb8 S24'
_cell_volume   942.00006694
_cell_formula_units_Z   2
loop_
 _symmetry_equiv_pos_site_id
 _symmetry_equiv_pos_as_xyz
  1  'x, y, z'
loop_
 _atom_site_type_symbol
 _atom_site_label
 _atom_site_symmetry_multiplicity
 _atom_site_fract_x
 _atom_site_fract_y
 _atom_site_fract_z
 _atom_site_occupancy
  Pr  Pr0  1  0.26336456  0.48800102  0.86768663  1
  Pr  Pr1  1  0.73461276  0.50356182  0.13679834  1
  Pr  Pr2  1  0.77726537  0.97349043  0.87549326  1
  Pr  Pr3  1  0.23554612  0.01458300  0.13307290  1
  Mn  Mn4  1  0.27941853  0.54368989  0.56886689  1
  Mn  Mn5  1  0.71465465  0.51830792  0.38747870  1
  Mn  Mn6  1  0.00083090  0.97231957  0.99532800  1
  Mn  Mn7  1  0.80193341  0.97515523  0.61436577  1
  Mn  Mn8  1  0.18743059  0.99801613  0.40779435  1
  Mn  Mn9  1  0.53125926  0.46879245  0.04305383  1
  Sb  Sb10  1  0.90484618  0.03706467  0.47279007  1
  Sb  Sb11  1  0.11652132  0.93151249  0.55175497  1
  Sb  Sb12  1  0.02857573  0.52809923  0.80135692  1
  Sb  Sb13  1  0.97292557  0.48461151  0.20112795  1
  Sb  Sb14  1  0.38854191  0.47610531  0.44785640  1
  Sb  Sb15  1  0.61649394  0.48588467  0.55235230  1
  Sb  Sb16  1  0.53826606  0.97133261  0.81860764  1
  Sb  Sb17  1  0.46509471  0.04190382  0.18609517  1
  S  S18  1  0.94810338  0.00705252  0.82184524  1
  S  S19  1  0.06465013  0.96537213  0.21123779  1
  S  S20  1  0.42469786  0.02036482  0.98980524  1
  S  S21  1  0.60922313  0.97394772  0.04650844  1
  S  S22  1  0.18700401  0.98817968  0.91977675  1
  S  S23  1  0.83711992  0.02696166  0.11833651  1
  S  S24  1  0.10043054  0.47536840  0.66786780  1
  S  S25  1  0.91173363  0.51821273  0.36184396  1
  S  S26  1  0.75209683  0.97135899  0.32386882  1
  S  S27  1  0.26056990  0.97490898  0.68820627  1
  S  S28  1  0.15629870  0.47832944  0.44643539  1
  S  S29  1  0.84384080  0.42523002  0.55683738  1
  S  S30  1  0.45672715  0.53712088  0.83803933  1
  S  S31  1  0.57442093  0.50244174  0.22788355  1
  S  S32  1  0.92112168  0.48709162  0.98697764  1
  S  S33  1  0.08632465  0.50559905  0.01052635  1
  S  S34  1  0.68052680  0.56151113  0.91070543  1
  S  S35  1  0.34180953  0.51704742  0.11907909  1
  S  S36  1  0.58606749  0.95917606  0.63564431  1
  S  S37  1  0.42127436  0.03922712  0.35074777  1
  S  S38  1  0.23227735  0.48730175  0.28445307  1
  S  S39  1  0.77517647  0.41724589  0.69525260  1
  S  S40  1  0.68332709  0.99703591  0.45288647  1
  S  S41  1  0.32382403  0.05111346  0.53343992  1
