# generated using pymatgen
data_Pr2Mn3(SbS3)4
_symmetry_space_group_name_H-M   'P 1'
_cell_length_a   20.02960800
_cell_length_b   3.90410600
_cell_length_c   14.95364829
_cell_angle_alpha   90.00000000
_cell_angle_beta   126.33350609
_cell_angle_gamma   90.00000000
_symmetry_Int_Tables_number   1
_chemical_formula_structural   Pr2Mn3(SbS3)4
_chemical_formula_sum   'Pr4 Mn6 Sb8 S24'
_cell_volume   942.00006694
_cell_formula_units_Z   2
loop_
 _symmetry_equiv_pos_site_id
 _symmetry_equiv_pos_as_xyz
  1  'x, y, z'
loop_
 _atom_site_type_symbol
 _atom_site_label
 _atom_site_symmetry_multiplicity
 _atom_site_fract_x
 _atom_site_fract_y
 _atom_site_fract_z
 _atom_site_occupancy
  Pr  Pr0  1  0.26329979  0.48755314  0.86773952  1
  Pr  Pr1  1  0.73467935  0.50279491  0.13675081  1
  Pr  Pr2  1  0.77715253  0.97372808  0.87534267  1
  Pr  Pr3  1  0.23539973  0.01454603  0.13302523  1
  Mn  Mn4  1  0.27927570  0.54428063  0.56870697  1
  Mn  Mn5  1  0.71478998  0.51821144  0.38785319  1
  Mn  Mn6  1  0.00117019  0.97131253  0.99573431  1
  Mn  Mn7  1  0.80219272  0.97567150  0.61439509  1
  Mn  Mn8  1  0.18740715  0.99800249  0.40776621  1
  Mn  Mn9  1  0.53138033  0.46871906  0.04328110  1
  Sb  Sb10  1  0.90486238  0.03725813  0.47267373  1
  Sb  Sb11  1  0.11638644  0.93148993  0.55154082  1
  Sb  Sb12  1  0.02844311  0.52823425  0.80119743  1
  Sb  Sb13  1  0.97280650  0.48537450  0.20112549  1
  Sb  Sb14  1  0.38816851  0.47575186  0.44743852  1
  Sb  Sb15  1  0.61641071  0.48543330  0.55219357  1
  Sb  Sb16  1  0.53835507  0.97131849  0.81871363  1
  Sb  Sb17  1  0.46511050  0.04197267  0.18618240  1
  S  S18  1  0.94808398  0.00526849  0.82199588  1
  S  S19  1  0.06507745  0.96319970  0.21122986  1
  S  S20  1  0.42454023  0.01930141  0.98954562  1
  S  S21  1  0.60913538  0.97387666  0.04617054  1
  S  S22  1  0.18671094  0.98866591  0.91983568  1
  S  S23  1  0.83727670  0.02780331  0.11834206  1
  S  S24  1  0.10060817  0.47726294  0.66797859  1
  S  S25  1  0.91185433  0.51892817  0.36152372  1
  S  S26  1  0.75232594  0.97021554  0.32413719  1
  S  S27  1  0.26083485  0.97480170  0.68802877  1
  S  S28  1  0.15641072  0.47849715  0.44636298  1
  S  S29  1  0.84380961  0.42375765  0.55679500  1
  S  S30  1  0.45677896  0.53611229  0.83819160  1
  S  S31  1  0.57454118  0.50238194  0.22765898  1
  S  S32  1  0.92082478  0.48533596  0.98706282  1
  S  S33  1  0.08652141  0.50791847  0.01047327  1
  S  S34  1  0.68025537  0.56192071  0.91032401  1
  S  S35  1  0.34171994  0.51760358  0.11919306  1
  S  S36  1  0.58608974  0.95810958  0.63521107  1
  S  S37  1  0.42130928  0.03781031  0.35034133  1
  S  S38  1  0.23219166  0.48784289  0.28464747  1
  S  S39  1  0.77519307  0.41563910  0.69508992  1
  S  S40  1  0.68372256  0.99809767  0.45327747  1
  S  S41  1  0.32356245  0.05166859  0.53342086  1
