# generated using pymatgen
data_Pr2Mn3(SbS3)4
_symmetry_space_group_name_H-M   'P 1'
_cell_length_a   20.02960800
_cell_length_b   3.90410600
_cell_length_c   14.95364829
_cell_angle_alpha   90.00000000
_cell_angle_beta   126.33350609
_cell_angle_gamma   90.00000000
_symmetry_Int_Tables_number   1
_chemical_formula_structural   Pr2Mn3(SbS3)4
_chemical_formula_sum   'Pr4 Mn6 Sb8 S24'
_cell_volume   942.00006694
_cell_formula_units_Z   2
loop_
 _symmetry_equiv_pos_site_id
 _symmetry_equiv_pos_as_xyz
  1  'x, y, z'
loop_
 _atom_site_type_symbol
 _atom_site_label
 _atom_site_symmetry_multiplicity
 _atom_site_fract_x
 _atom_site_fract_y
 _atom_site_fract_z
 _atom_site_occupancy
  Pr  Pr0  1  0.26331278  0.48722231  0.86787887  1
  Pr  Pr1  1  0.73476228  0.50195754  0.13676475  1
  Pr  Pr2  1  0.77703128  0.97362707  0.87525636  1
  Pr  Pr3  1  0.23532796  0.01476462  0.13301122  1
  Mn  Mn4  1  0.27922569  0.54544698  0.56857730  1
  Mn  Mn5  1  0.71491827  0.51799978  0.38828853  1
  Mn  Mn6  1  0.00148946  0.97075762  0.99607475  1
  Mn  Mn7  1  0.80233283  0.97611682  0.61428144  1
  Mn  Mn8  1  0.18727181  0.99745004  0.40773397  1
  Mn  Mn9  1  0.53145643  0.46867168  0.04342873  1
  Sb  Sb10  1  0.90491414  0.03739558  0.47265986  1
  Sb  Sb11  1  0.11621681  0.93133152  0.55132847  1
  Sb  Sb12  1  0.02834099  0.52832437  0.80107776  1
  Sb  Sb13  1  0.97263526  0.48599853  0.20104831  1
  Sb  Sb14  1  0.38777928  0.47551311  0.44700152  1
  Sb  Sb15  1  0.61634095  0.48464460  0.55201239  1
  Sb  Sb16  1  0.53842042  0.97174342  0.81880837  1
  Sb  Sb17  1  0.46512026  0.04208309  0.18632115  1
  S  S18  1  0.94803521  0.00354655  0.82210929  1
  S  S19  1  0.06543007  0.96132818  0.21105961  1
  S  S20  1  0.42432359  0.01868858  0.98911716  1
  S  S21  1  0.60910201  0.97359231  0.04591807  1
  S  S22  1  0.18649464  0.98859109  0.92005493  1
  S  S23  1  0.83733626  0.02830539  0.11821971  1
  S  S24  1  0.10073612  0.47914063  0.66799112  1
  S  S25  1  0.91199927  0.51941218  0.36108753  1
  S  S26  1  0.75271367  0.96965360  0.32458591  1
  S  S27  1  0.26102604  0.97461135  0.68792388  1
  S  S28  1  0.15640481  0.47856002  0.44626712  1
  S  S29  1  0.84392875  0.42297728  0.55681659  1
  S  S30  1  0.45688144  0.53477259  0.83847807  1
  S  S31  1  0.57463908  0.50227614  0.22758951  1
  S  S32  1  0.92048085  0.48394928  0.98707800  1
  S  S33  1  0.08665147  0.51066367  0.01038372  1
  S  S34  1  0.68013716  0.56160948  0.91001152  1
  S  S35  1  0.34163793  0.51809459  0.11927830  1
  S  S36  1  0.58618970  0.95733894  0.63504100  1
  S  S37  1  0.42137632  0.03723267  0.35006887  1
  S  S38  1  0.23215855  0.48799993  0.28487309  1
  S  S39  1  0.77515127  0.41428760  0.69476871  1
  S  S40  1  0.68407247  0.99927340  0.45343764  1
  S  S41  1  0.32339983  0.05201894  0.53345724  1
