# generated using pymatgen
data_Pr2Mn3(SbS3)4
_symmetry_space_group_name_H-M   'P 1'
_cell_length_a   20.02960800
_cell_length_b   3.90410600
_cell_length_c   14.95364829
_cell_angle_alpha   90.00000000
_cell_angle_beta   126.33350609
_cell_angle_gamma   90.00000000
_symmetry_Int_Tables_number   1
_chemical_formula_structural   Pr2Mn3(SbS3)4
_chemical_formula_sum   'Pr4 Mn6 Sb8 S24'
_cell_volume   942.00006694
_cell_formula_units_Z   2
loop_
 _symmetry_equiv_pos_site_id
 _symmetry_equiv_pos_as_xyz
  1  'x, y, z'
loop_
 _atom_site_type_symbol
 _atom_site_label
 _atom_site_symmetry_multiplicity
 _atom_site_fract_x
 _atom_site_fract_y
 _atom_site_fract_z
 _atom_site_occupancy
  Pr  Pr0  1  0.26334096  0.48687534  0.86795806  1
  Pr  Pr1  1  0.73486521  0.50116706  0.13678063  1
  Pr  Pr2  1  0.77692414  0.97354841  0.87510054  1
  Pr  Pr3  1  0.23531039  0.01496366  0.13308378  1
  Mn  Mn4  1  0.27918542  0.54642330  0.56838625  1
  Mn  Mn5  1  0.71489216  0.51765754  0.38862112  1
  Mn  Mn6  1  0.00170906  0.97015918  0.99644671  1
  Mn  Mn7  1  0.80240823  0.97567803  0.61431465  1
  Mn  Mn8  1  0.18714692  0.99690342  0.40762477  1
  Mn  Mn9  1  0.53156892  0.46897856  0.04346514  1
  Sb  Sb10  1  0.90495522  0.03717746  0.47266804  1
  Sb  Sb11  1  0.11606716  0.93106325  0.55107917  1
  Sb  Sb12  1  0.02821474  0.52819279  0.80096036  1
  Sb  Sb13  1  0.97240552  0.48667862  0.20086052  1
  Sb  Sb14  1  0.38739547  0.47535695  0.44654260  1
  Sb  Sb15  1  0.61632667  0.48388944  0.55188432  1
  Sb  Sb16  1  0.53848100  0.97208498  0.81889578  1
  Sb  Sb17  1  0.46506753  0.04236241  0.18633935  1
  S  S18  1  0.94792337  0.00141501  0.82207556  1
  S  S19  1  0.06587412  0.96034218  0.21097778  1
  S  S20  1  0.42405057  0.01824421  0.98892891  1
  S  S21  1  0.60902624  0.97350896  0.04548116  1
  S  S22  1  0.18613857  0.98864456  0.92005329  1
  S  S23  1  0.83742936  0.02815893  0.11814386  1
  S  S24  1  0.10074734  0.48093645  0.66778675  1
  S  S25  1  0.91220671  0.51993521  0.36080872  1
  S  S26  1  0.75307080  0.96890365  0.32474820  1
  S  S27  1  0.26117586  0.97451926  0.68776489  1
  S  S28  1  0.15633997  0.47891122  0.44606085  1
  S  S29  1  0.84418685  0.42152623  0.55680126  1
  S  S30  1  0.45714346  0.53292207  0.83871866  1
  S  S31  1  0.57477625  0.50151219  0.22754620  1
  S  S32  1  0.92038806  0.48317222  0.98721252  1
  S  S33  1  0.08681386  0.51299100  0.01027697  1
  S  S34  1  0.67991759  0.56123850  0.90958306  1
  S  S35  1  0.34153152  0.51878414  0.11931568  1
  S  S36  1  0.58639538  0.95587850  0.63507843  1
  S  S37  1  0.42135833  0.03711524  0.34973776  1
  S  S38  1  0.23224529  0.48800602  0.28520978  1
  S  S39  1  0.77512646  0.41322712  0.69438384  1
  S  S40  1  0.68440087  0.00085488  0.45348748  1
  S  S41  1  0.32311511  0.05193689  0.53334471  1
