# generated using pymatgen
data_Pr2Mn3(SbS3)4
_symmetry_space_group_name_H-M   'P 1'
_cell_length_a   20.02960800
_cell_length_b   3.90410600
_cell_length_c   14.95364829
_cell_angle_alpha   90.00000000
_cell_angle_beta   126.33350609
_cell_angle_gamma   90.00000000
_symmetry_Int_Tables_number   1
_chemical_formula_structural   Pr2Mn3(SbS3)4
_chemical_formula_sum   'Pr4 Mn6 Sb8 S24'
_cell_volume   942.00006694
_cell_formula_units_Z   2
loop_
 _symmetry_equiv_pos_site_id
 _symmetry_equiv_pos_as_xyz
  1  'x, y, z'
loop_
 _atom_site_type_symbol
 _atom_site_label
 _atom_site_symmetry_multiplicity
 _atom_site_fract_x
 _atom_site_fract_y
 _atom_site_fract_z
 _atom_site_occupancy
  Pr  Pr0  1  0.26333236  0.48653754  0.86793303  1
  Pr  Pr1  1  0.73505787  0.50020808  0.13689626  1
  Pr  Pr2  1  0.77682464  0.97331341  0.87495866  1
  Pr  Pr3  1  0.23528763  0.01517750  0.13308911  1
  Mn  Mn4  1  0.27925283  0.54768622  0.56840405  1
  Mn  Mn5  1  0.71474203  0.51758389  0.38879193  1
  Mn  Mn6  1  0.00189939  0.97025088  0.99668709  1
  Mn  Mn7  1  0.80245315  0.97505563  0.61426905  1
  Mn  Mn8  1  0.18710163  0.99646073  0.40764003  1
  Mn  Mn9  1  0.53177750  0.46901801  0.04360180  1
  Sb  Sb10  1  0.90502398  0.03693729  0.47272702  1
  Sb  Sb11  1  0.11597075  0.93103332  0.55092641  1
  Sb  Sb12  1  0.02806922  0.52823470  0.80081723  1
  Sb  Sb13  1  0.97227817  0.48739866  0.20079895  1
  Sb  Sb14  1  0.38698431  0.47542368  0.44604987  1
  Sb  Sb15  1  0.61639149  0.48319186  0.55185594  1
  Sb  Sb16  1  0.53849854  0.97220915  0.81898907  1
  Sb  Sb17  1  0.46498870  0.04260930  0.18634612  1
  S  S18  1  0.94789039  0.99984045  0.82200452  1
  S  S19  1  0.06635245  0.95942909  0.21082970  1
  S  S20  1  0.42378673  0.01732445  0.98885417  1
  S  S21  1  0.60903125  0.97372322  0.04522398  1
  S  S22  1  0.18575405  0.98914309  0.91998860  1
  S  S23  1  0.83755720  0.02851701  0.11831979  1
  S  S24  1  0.10071295  0.48272547  0.66764089  1
  S  S25  1  0.91250367  0.51984158  0.36061467  1
  S  S26  1  0.75334567  0.96780753  0.32486731  1
  S  S27  1  0.26136097  0.97498514  0.68767327  1
  S  S28  1  0.15623699  0.47870707  0.44566240  1
  S  S29  1  0.84436537  0.42050962  0.55670473  1
  S  S30  1  0.45744676  0.53135518  0.83899579  1
  S  S31  1  0.57484112  0.50116077  0.22733766  1
  S  S32  1  0.92029165  0.48230135  0.98718489  1
  S  S33  1  0.08696741  0.51522958  0.01013998  1
  S  S34  1  0.67982267  0.56117696  0.90935407  1
  S  S35  1  0.34144210  0.51947943  0.11920205  1
  S  S36  1  0.58649325  0.95522480  0.63507663  1
  S  S37  1  0.42128023  0.03822449  0.34946429  1
  S  S38  1  0.23227190  0.48781149  0.28543934  1
  S  S39  1  0.77515638  0.41179635  0.69415571  1
  S  S40  1  0.68477646  0.00260626  0.45361338  1
  S  S41  1  0.32284298  0.05078247  0.53332831  1
