# generated using pymatgen
data_Pr2Mn3(SbS3)4
_symmetry_space_group_name_H-M   'P 1'
_cell_length_a   20.02960800
_cell_length_b   3.90410600
_cell_length_c   14.95364829
_cell_angle_alpha   90.00000000
_cell_angle_beta   126.33350609
_cell_angle_gamma   90.00000000
_symmetry_Int_Tables_number   1
_chemical_formula_structural   Pr2Mn3(SbS3)4
_chemical_formula_sum   'Pr4 Mn6 Sb8 S24'
_cell_volume   942.00006694
_cell_formula_units_Z   2
loop_
 _symmetry_equiv_pos_site_id
 _symmetry_equiv_pos_as_xyz
  1  'x, y, z'
loop_
 _atom_site_type_symbol
 _atom_site_label
 _atom_site_symmetry_multiplicity
 _atom_site_fract_x
 _atom_site_fract_y
 _atom_site_fract_z
 _atom_site_occupancy
  Pr  Pr0  1  0.26334281  0.48610275  0.86800455  1
  Pr  Pr1  1  0.73520480  0.49917068  0.13692446  1
  Pr  Pr2  1  0.77668908  0.97314585  0.87486296  1
  Pr  Pr3  1  0.23527768  0.01496817  0.13313014  1
  Mn  Mn4  1  0.27924045  0.54881851  0.56856884  1
  Mn  Mn5  1  0.71450681  0.51726999  0.38892752  1
  Mn  Mn6  1  0.00202454  0.97045631  0.99694234  1
  Mn  Mn7  1  0.80252699  0.97463016  0.61410993  1
  Mn  Mn8  1  0.18709864  0.99597875  0.40779484  1
  Mn  Mn9  1  0.53191512  0.46931449  0.04363913  1
  Sb  Sb10  1  0.90501307  0.03650789  0.47268282  1
  Sb  Sb11  1  0.11587759  0.93091645  0.55083641  1
  Sb  Sb12  1  0.02785157  0.52804880  0.80059454  1
  Sb  Sb13  1  0.97212289  0.48812099  0.20074867  1
  Sb  Sb14  1  0.38664695  0.47580633  0.44574408  1
  Sb  Sb15  1  0.61642576  0.48301018  0.55181679  1
  Sb  Sb16  1  0.53858371  0.97242682  0.81918230  1
  Sb  Sb17  1  0.46485158  0.04321501  0.18632224  1
  S  S18  1  0.94785366  0.99775312  0.82195582  1
  S  S19  1  0.06689458  0.95833096  0.21088478  1
  S  S20  1  0.42357489  0.01643787  0.98901367  1
  S  S21  1  0.60900958  0.97459957  0.04484508  1
  S  S22  1  0.18548951  0.98904397  0.92002369  1
  S  S23  1  0.83763994  0.02899900  0.11837562  1
  S  S24  1  0.10069068  0.48413512  0.66739608  1
  S  S25  1  0.91286028  0.52002701  0.36042146  1
  S  S26  1  0.75348811  0.96649532  0.32508450  1
  S  S27  1  0.26146806  0.97570684  0.68752224  1
  S  S28  1  0.15604345  0.47910886  0.44517586  1
  S  S29  1  0.84461594  0.41954728  0.55686447  1
  S  S30  1  0.45774714  0.53014235  0.83923795  1
  S  S31  1  0.57476501  0.50017068  0.22710590  1
  S  S32  1  0.92031433  0.48171649  0.98738445  1
  S  S33  1  0.08711299  0.51746585  0.00997105  1
  S  S34  1  0.67967738  0.56092023  0.90920244  1
  S  S35  1  0.34121421  0.51940649  0.11873885  1
  S  S36  1  0.58660892  0.95450738  0.63508587  1
  S  S37  1  0.42113115  0.03922820  0.34915578  1
  S  S38  1  0.23244869  0.48800136  0.28565282  1
  S  S39  1  0.77520480  0.41120486  0.69406076  1
  S  S40  1  0.68518984  0.00401268  0.45387232  1
  S  S41  1  0.32245317  0.04935206  0.53320237  1
