# generated using pymatgen
data_Pr2Mn3(SbS3)4
_symmetry_space_group_name_H-M   'P 1'
_cell_length_a   20.02960800
_cell_length_b   3.90410600
_cell_length_c   14.95364829
_cell_angle_alpha   90.00000000
_cell_angle_beta   126.33350609
_cell_angle_gamma   90.00000000
_symmetry_Int_Tables_number   1
_chemical_formula_structural   Pr2Mn3(SbS3)4
_chemical_formula_sum   'Pr4 Mn6 Sb8 S24'
_cell_volume   942.00006694
_cell_formula_units_Z   2
loop_
 _symmetry_equiv_pos_site_id
 _symmetry_equiv_pos_as_xyz
  1  'x, y, z'
loop_
 _atom_site_type_symbol
 _atom_site_label
 _atom_site_symmetry_multiplicity
 _atom_site_fract_x
 _atom_site_fract_y
 _atom_site_fract_z
 _atom_site_occupancy
  Pr  Pr0  1  0.26327375  0.48528262  0.86795555  1
  Pr  Pr1  1  0.73542764  0.49819385  0.13704878  1
  Pr  Pr2  1  0.77656602  0.97284441  0.87475018  1
  Pr  Pr3  1  0.23524316  0.01490362  0.13326385  1
  Mn  Mn4  1  0.27929832  0.54966888  0.56878306  1
  Mn  Mn5  1  0.71434518  0.51691034  0.38907511  1
  Mn  Mn6  1  0.00212821  0.97049607  0.99715292  1
  Mn  Mn7  1  0.80257646  0.97463024  0.61396255  1
  Mn  Mn8  1  0.18718747  0.99544022  0.40810613  1
  Mn  Mn9  1  0.53196716  0.46927369  0.04359314  1
  Sb  Sb10  1  0.90506157  0.03614044  0.47269003  1
  Sb  Sb11  1  0.11574618  0.93119474  0.55070727  1
  Sb  Sb12  1  0.02769286  0.52783408  0.80044648  1
  Sb  Sb13  1  0.97202005  0.48902794  0.20079507  1
  Sb  Sb14  1  0.38631719  0.47668950  0.44551000  1
  Sb  Sb15  1  0.61654997  0.48286208  0.55187893  1
  Sb  Sb16  1  0.53863048  0.97272287  0.81938094  1
  Sb  Sb17  1  0.46463339  0.04380481  0.18618590  1
  S  S18  1  0.94794893  0.99581935  0.82205040  1
  S  S19  1  0.06728072  0.95732294  0.21077871  1
  S  S20  1  0.42340813  0.01625215  0.98919394  1
  S  S21  1  0.60896825  0.97570513  0.04423651  1
  S  S22  1  0.18511637  0.98988675  0.92005043  1
  S  S23  1  0.83777661  0.02974152  0.11849436  1
  S  S24  1  0.10083505  0.48639367  0.66739477  1
  S  S25  1  0.91330980  0.52032801  0.36030446  1
  S  S26  1  0.75363509  0.96461665  0.32521200  1
  S  S27  1  0.26159878  0.97675019  0.68739690  1
  S  S28  1  0.15578871  0.47945051  0.44480946  1
  S  S29  1  0.84475409  0.41847594  0.55695189  1
  S  S30  1  0.45817833  0.52906199  0.83942101  1
  S  S31  1  0.57466863  0.49898078  0.22680131  1
  S  S32  1  0.92047094  0.48112404  0.98776954  1
  S  S33  1  0.08716500  0.51963059  0.00961476  1
  S  S34  1  0.67955863  0.56063962  0.90917673  1
  S  S35  1  0.34100277  0.51943661  0.11837204  1
  S  S36  1  0.58685744  0.95466969  0.63520117  1
  S  S37  1  0.42098215  0.03921919  0.34906875  1
  S  S38  1  0.23261213  0.48746566  0.28587417  1
  S  S39  1  0.77521217  0.41015733  0.69377837  1
  S  S40  1  0.68555404  0.00584541  0.45415024  1
  S  S41  1  0.32207181  0.04739310  0.53307228  1
