# generated using pymatgen
data_Pr2Mn3(SbS3)4
_symmetry_space_group_name_H-M   'P 1'
_cell_length_a   20.02960800
_cell_length_b   3.90410600
_cell_length_c   14.95364829
_cell_angle_alpha   90.00000000
_cell_angle_beta   126.33350609
_cell_angle_gamma   90.00000000
_symmetry_Int_Tables_number   1
_chemical_formula_structural   Pr2Mn3(SbS3)4
_chemical_formula_sum   'Pr4 Mn6 Sb8 S24'
_cell_volume   942.00006694
_cell_formula_units_Z   2
loop_
 _symmetry_equiv_pos_site_id
 _symmetry_equiv_pos_as_xyz
  1  'x, y, z'
loop_
 _atom_site_type_symbol
 _atom_site_label
 _atom_site_symmetry_multiplicity
 _atom_site_fract_x
 _atom_site_fract_y
 _atom_site_fract_z
 _atom_site_occupancy
  Pr  Pr0  1  0.26957417  0.50799326  0.87385272  1
  Pr  Pr1  1  0.73419718  0.52029503  0.13490477  1
  Pr  Pr2  1  0.76434847  0.03295554  0.87115714  1
  Pr  Pr3  1  0.22812969  0.96027826  0.12735023  1
  Mn  Mn4  1  0.29781957  0.45750326  0.60861518  1
  Mn  Mn5  1  0.68619111  0.45395062  0.36487753  1
  Mn  Mn6  1  0.99857690  0.98153340  0.00704833  1
  Mn  Mn7  1  0.79000639  0.02295271  0.61381039  1
  Mn  Mn8  1  0.19868683  0.02762614  0.37140181  1
  Mn  Mn9  1  0.47954609  0.47353352  0.97765076  1
  Sb  Sb10  1  0.89167097  0.97109651  0.44898669  1
  Sb  Sb11  1  0.11340372  0.97639696  0.54816748  1
  Sb  Sb12  1  0.03888358  0.51905291  0.82763541  1
  Sb  Sb13  1  0.96827313  0.48305336  0.19251330  1
  Sb  Sb14  1  0.39869627  0.49253409  0.45417823  1
  Sb  Sb15  1  0.61317079  0.48525483  0.54780429  1
  Sb  Sb16  1  0.52943663  0.97304000  0.80599478  1
  Sb  Sb17  1  0.46537972  0.03325253  0.18479549  1
  S  S18  1  0.93779557  0.99424001  0.80265746  1
  S  S19  1  0.06636007  0.98822385  0.20146470  1
  S  S20  1  0.41892659  0.97860658  0.97503338  1
  S  S21  1  0.58483519  0.02416818  0.00772353  1
  S  S22  1  0.16120078  0.02474522  0.89416961  1
  S  S23  1  0.82845225  0.97563044  0.10365772  1
  S  S24  1  0.08963691  0.49903072  0.63662532  1
  S  S25  1  0.91526719  0.50886468  0.35591056  1
  S  S26  1  0.73520387  0.99298630  0.29865368  1
  S  S27  1  0.26404842  0.01327095  0.70454562  1
  S  S28  1  0.17205073  0.52092576  0.44265929  1
  S  S29  1  0.80644092  0.52649673  0.53792531  1
  S  S30  1  0.43265906  0.47233408  0.79761221  1
  S  S31  1  0.55400722  0.48921189  0.17626015  1
  S  S32  1  0.91961827  0.52331946  0.98693234  1
  S  S33  1  0.08447418  0.49508581  0.02197092  1
  S  S34  1  0.66910516  0.55672313  0.89262217  1
  S  S35  1  0.32937228  0.46201024  0.10145860  1
  S  S36  1  0.58893746  0.98949032  0.64185708  1
  S  S37  1  0.39277441  0.99898778  0.33094035  1
  S  S38  1  0.24553711  0.46994668  0.31632062  1
  S  S39  1  0.76387987  0.48667841  0.69364675  1
  S  S40  1  0.65704446  0.99062007  0.43259641  1
  S  S41  1  0.32958766  0.98283026  0.55468294  1
