# generated using pymatgen
data_Pr2Mn3(SbS3)4
_symmetry_space_group_name_H-M   'P 1'
_cell_length_a   20.02960800
_cell_length_b   3.90410600
_cell_length_c   14.95364829
_cell_angle_alpha   90.00000000
_cell_angle_beta   126.33350609
_cell_angle_gamma   90.00000000
_symmetry_Int_Tables_number   1
_chemical_formula_structural   Pr2Mn3(SbS3)4
_chemical_formula_sum   'Pr4 Mn6 Sb8 S24'
_cell_volume   942.00006694
_cell_formula_units_Z   2
loop_
 _symmetry_equiv_pos_site_id
 _symmetry_equiv_pos_as_xyz
  1  'x, y, z'
loop_
 _atom_site_type_symbol
 _atom_site_label
 _atom_site_symmetry_multiplicity
 _atom_site_fract_x
 _atom_site_fract_y
 _atom_site_fract_z
 _atom_site_occupancy
  Pr  Pr0  1  0.26319193  0.48448981  0.86793651  1
  Pr  Pr1  1  0.73570485  0.49722896  0.13723104  1
  Pr  Pr2  1  0.77640535  0.97259401  0.87475242  1
  Pr  Pr3  1  0.23523673  0.01529231  0.13336522  1
  Mn  Mn4  1  0.27936287  0.55027502  0.56903346  1
  Mn  Mn5  1  0.71424771  0.51682078  0.38938361  1
  Mn  Mn6  1  0.00209612  0.97065591  0.99718622  1
  Mn  Mn7  1  0.80257475  0.97534289  0.61380311  1
  Mn  Mn8  1  0.18728488  0.99520706  0.40830256  1
  Mn  Mn9  1  0.53205755  0.46889018  0.04358995  1
  Sb  Sb10  1  0.90509528  0.03551171  0.47270436  1
  Sb  Sb11  1  0.11565038  0.93127254  0.55064023  1
  Sb  Sb12  1  0.02757644  0.52754142  0.80040072  1
  Sb  Sb13  1  0.97196441  0.48955814  0.20088409  1
  Sb  Sb14  1  0.38607796  0.47764849  0.44535833  1
  Sb  Sb15  1  0.61663194  0.48297194  0.55195313  1
  Sb  Sb16  1  0.53870646  0.97288873  0.81956258  1
  Sb  Sb17  1  0.46442592  0.04430749  0.18601365  1
  S  S18  1  0.94802340  0.99453126  0.82200216  1
  S  S19  1  0.06769541  0.95542007  0.21086233  1
  S  S20  1  0.42310457  0.01573039  0.98918587  1
  S  S21  1  0.60890296  0.97713006  0.04369057  1
  S  S22  1  0.18471305  0.99117806  0.92007718  1
  S  S23  1  0.83781955  0.03074179  0.11841669  1
  S  S24  1  0.10098766  0.48838886  0.66729806  1
  S  S25  1  0.91360710  0.52053305  0.36024309  1
  S  S26  1  0.75395683  0.96225545  0.32534049  1
  S  S27  1  0.26181029  0.97873150  0.68753189  1
  S  S28  1  0.15547203  0.47969290  0.44435051  1
  S  S29  1  0.84497002  0.41706059  0.55726826  1
  S  S30  1  0.45874819  0.52829798  0.83985825  1
  S  S31  1  0.57446563  0.49817470  0.22659165  1
  S  S32  1  0.92062796  0.48044272  0.98808182  1
  S  S33  1  0.08736518  0.52142165  0.00937839  1
  S  S34  1  0.67950178  0.56076436  0.90918751  1
  S  S35  1  0.34073327  0.51962660  0.11809192  1
  S  S36  1  0.58713922  0.95559457  0.63532947  1
  S  S37  1  0.42097384  0.03863352  0.34923565  1
  S  S38  1  0.23267312  0.48741233  0.28611612  1
  S  S39  1  0.77506494  0.40889613  0.69339858  1
  S  S40  1  0.68593229  0.00811413  0.45436757  1
  S  S41  1  0.32158568  0.04543666  0.53278043  1
