# generated using pymatgen
data_Pr2Mn3(SbS3)4
_symmetry_space_group_name_H-M   'P 1'
_cell_length_a   20.02960800
_cell_length_b   3.90410600
_cell_length_c   14.95364829
_cell_angle_alpha   90.00000000
_cell_angle_beta   126.33350609
_cell_angle_gamma   90.00000000
_symmetry_Int_Tables_number   1
_chemical_formula_structural   Pr2Mn3(SbS3)4
_chemical_formula_sum   'Pr4 Mn6 Sb8 S24'
_cell_volume   942.00006694
_cell_formula_units_Z   2
loop_
 _symmetry_equiv_pos_site_id
 _symmetry_equiv_pos_as_xyz
  1  'x, y, z'
loop_
 _atom_site_type_symbol
 _atom_site_label
 _atom_site_symmetry_multiplicity
 _atom_site_fract_x
 _atom_site_fract_y
 _atom_site_fract_z
 _atom_site_occupancy
  Pr  Pr0  1  0.26310950  0.48370176  0.86795315  1
  Pr  Pr1  1  0.73591398  0.49641062  0.13740100  1
  Pr  Pr2  1  0.77621280  0.97226103  0.87483089  1
  Pr  Pr3  1  0.23527273  0.01582871  0.13352795  1
  Mn  Mn4  1  0.27937007  0.55060509  0.56901802  1
  Mn  Mn5  1  0.71421860  0.51581388  0.38966333  1
  Mn  Mn6  1  0.00197489  0.97071888  0.99723258  1
  Mn  Mn7  1  0.80267111  0.97507102  0.61373193  1
  Mn  Mn8  1  0.18738499  0.99493728  0.40840472  1
  Mn  Mn9  1  0.53199813  0.46839372  0.04346828  1
  Sb  Sb10  1  0.90516661  0.03497466  0.47281321  1
  Sb  Sb11  1  0.11551386  0.93105448  0.55048735  1
  Sb  Sb12  1  0.02744315  0.52725420  0.80034899  1
  Sb  Sb13  1  0.97188372  0.49027846  0.20092752  1
  Sb  Sb14  1  0.38585418  0.47835803  0.44516918  1
  Sb  Sb15  1  0.61671839  0.48292599  0.55200062  1
  Sb  Sb16  1  0.53869843  0.97309367  0.81964465  1
  Sb  Sb17  1  0.46423354  0.04473097  0.18583461  1
  S  S18  1  0.94800694  0.99354341  0.82171452  1
  S  S19  1  0.06809017  0.95350639  0.21074204  1
  S  S20  1  0.42279683  0.01560208  0.98912616  1
  S  S21  1  0.60883135  0.97794270  0.04341236  1
  S  S22  1  0.18435443  0.99335297  0.92024743  1
  S  S23  1  0.83786716  0.03165930  0.11830898  1
  S  S24  1  0.10104253  0.49033373  0.66706949  1
  S  S25  1  0.91395997  0.52082382  0.36021638  1
  S  S26  1  0.75436102  0.96032358  0.32552163  1
  S  S27  1  0.26209375  0.98003176  0.68767259  1
  S  S28  1  0.15520399  0.47987795  0.44396317  1
  S  S29  1  0.84515950  0.41556900  0.55748502  1
  S  S30  1  0.45930065  0.52746160  0.84039624  1
  S  S31  1  0.57441699  0.49758775  0.22642482  1
  S  S32  1  0.92080626  0.48019623  0.98840223  1
  S  S33  1  0.08757014  0.52350053  0.00918378  1
  S  S34  1  0.67932030  0.56079470  0.90927411  1
  S  S35  1  0.34045934  0.51980880  0.11785618  1
  S  S36  1  0.58731929  0.95693888  0.63544094  1
  S  S37  1  0.42079591  0.03816762  0.34919289  1
  S  S38  1  0.23279505  0.48715789  0.28633259  1
  S  S39  1  0.77492922  0.40791207  0.69327155  1
  S  S40  1  0.68620306  0.01062559  0.45461496  1
  S  S41  1  0.32103732  0.04379471  0.53243686  1
