# generated using pymatgen
data_Pr2Mn3(SbS3)4
_symmetry_space_group_name_H-M   'P 1'
_cell_length_a   20.02960800
_cell_length_b   3.90410600
_cell_length_c   14.95364829
_cell_angle_alpha   90.00000000
_cell_angle_beta   126.33350609
_cell_angle_gamma   90.00000000
_symmetry_Int_Tables_number   1
_chemical_formula_structural   Pr2Mn3(SbS3)4
_chemical_formula_sum   'Pr4 Mn6 Sb8 S24'
_cell_volume   942.00006694
_cell_formula_units_Z   2
loop_
 _symmetry_equiv_pos_site_id
 _symmetry_equiv_pos_as_xyz
  1  'x, y, z'
loop_
 _atom_site_type_symbol
 _atom_site_label
 _atom_site_symmetry_multiplicity
 _atom_site_fract_x
 _atom_site_fract_y
 _atom_site_fract_z
 _atom_site_occupancy
  Pr  Pr0  1  0.26308930  0.48284008  0.86803218  1
  Pr  Pr1  1  0.73608938  0.49570214  0.13750756  1
  Pr  Pr2  1  0.77606131  0.97189140  0.87491778  1
  Pr  Pr3  1  0.23535794  0.01620101  0.13366692  1
  Mn  Mn4  1  0.27941485  0.55054621  0.56923755  1
  Mn  Mn5  1  0.71421797  0.51488387  0.38992880  1
  Mn  Mn6  1  0.00194088  0.97112669  0.99741676  1
  Mn  Mn7  1  0.80271037  0.97482748  0.61366401  1
  Mn  Mn8  1  0.18752106  0.99482096  0.40850712  1
  Mn  Mn9  1  0.53197845  0.46841122  0.04335885  1
  Sb  Sb10  1  0.90519579  0.03464136  0.47290910  1
  Sb  Sb11  1  0.11544099  0.93098139  0.55046191  1
  Sb  Sb12  1  0.02732464  0.52693333  0.80030788  1
  Sb  Sb13  1  0.97175388  0.49093599  0.20091348  1
  Sb  Sb14  1  0.38573375  0.47924429  0.44508009  1
  Sb  Sb15  1  0.61680775  0.48266725  0.55201940  1
  Sb  Sb16  1  0.53870672  0.97339586  0.81974963  1
  Sb  Sb17  1  0.46394649  0.04513412  0.18558986  1
  S  S18  1  0.94788481  0.99305630  0.82122013  1
  S  S19  1  0.06859983  0.95178052  0.21085492  1
  S  S20  1  0.42238239  0.01490344  0.98916236  1
  S  S21  1  0.60866424  0.97832743  0.04310458  1
  S  S22  1  0.18400237  0.99549156  0.92042103  1
  S  S23  1  0.83806075  0.03286771  0.11837593  1
  S  S24  1  0.10128781  0.49168841  0.66694958  1
  S  S25  1  0.91436350  0.52124832  0.36032161  1
  S  S26  1  0.75461106  0.95887851  0.32556929  1
  S  S27  1  0.26235120  0.98176687  0.68782749  1
  S  S28  1  0.15496826  0.48006396  0.44344257  1
  S  S29  1  0.84541954  0.41443570  0.55761302  1
  S  S30  1  0.45985052  0.52605347  0.84081830  1
  S  S31  1  0.57431881  0.49770711  0.22615540  1
  S  S32  1  0.92087742  0.47982630  0.98863232  1
  S  S33  1  0.08781823  0.52568181  0.00893271  1
  S  S34  1  0.67911565  0.56094973  0.90919642  1
  S  S35  1  0.34014337  0.52017474  0.11766072  1
  S  S36  1  0.58755568  0.95881300  0.63547397  1
  S  S37  1  0.42054841  0.03861463  0.34889723  1
  S  S38  1  0.23284240  0.48733447  0.28626841  1
  S  S39  1  0.77469179  0.40776251  0.69311816  1
  S  S40  1  0.68652638  0.01248866  0.45495539  1
  S  S41  1  0.32037689  0.04261836  0.53184253  1
