# generated using pymatgen
data_Pr2Mn3(SbS3)4
_symmetry_space_group_name_H-M   'P 1'
_cell_length_a   20.02960800
_cell_length_b   3.90410600
_cell_length_c   14.95364829
_cell_angle_alpha   90.00000000
_cell_angle_beta   126.33350609
_cell_angle_gamma   90.00000000
_symmetry_Int_Tables_number   1
_chemical_formula_structural   Pr2Mn3(SbS3)4
_chemical_formula_sum   'Pr4 Mn6 Sb8 S24'
_cell_volume   942.00006694
_cell_formula_units_Z   2
loop_
 _symmetry_equiv_pos_site_id
 _symmetry_equiv_pos_as_xyz
  1  'x, y, z'
loop_
 _atom_site_type_symbol
 _atom_site_label
 _atom_site_symmetry_multiplicity
 _atom_site_fract_x
 _atom_site_fract_y
 _atom_site_fract_z
 _atom_site_occupancy
  Pr  Pr0  1  0.26310857  0.48225631  0.86815850  1
  Pr  Pr1  1  0.73623941  0.49520367  0.13758909  1
  Pr  Pr2  1  0.77598759  0.97119598  0.87510398  1
  Pr  Pr3  1  0.23546772  0.01676091  0.13382380  1
  Mn  Mn4  1  0.27940852  0.55018280  0.56953203  1
  Mn  Mn5  1  0.71408753  0.51346583  0.38990482  1
  Mn  Mn6  1  0.00187518  0.97175887  0.99764072  1
  Mn  Mn7  1  0.80271991  0.97455368  0.61357036  1
  Mn  Mn8  1  0.18765338  0.99479017  0.40856623  1
  Mn  Mn9  1  0.53197530  0.46817984  0.04324753  1
  Sb  Sb10  1  0.90524162  0.03404848  0.47301483  1
  Sb  Sb11  1  0.11547335  0.93117708  0.55043516  1
  Sb  Sb12  1  0.02723321  0.52648983  0.80036238  1
  Sb  Sb13  1  0.97166094  0.49175413  0.20093039  1
  Sb  Sb14  1  0.38556325  0.48034285  0.44498739  1
  Sb  Sb15  1  0.61683209  0.48237365  0.55202438  1
  Sb  Sb16  1  0.53869208  0.97351966  0.81975938  1
  Sb  Sb17  1  0.46372166  0.04567143  0.18536614  1
  S  S18  1  0.94783222  0.99301524  0.82083013  1
  S  S19  1  0.06913163  0.94965898  0.21098304  1
  S  S20  1  0.42194983  0.01449938  0.98917858  1
  S  S21  1  0.60854804  0.97829212  0.04287038  1
  S  S22  1  0.18358625  0.99744195  0.92031722  1
  S  S23  1  0.83814591  0.03337286  0.11827890  1
  S  S24  1  0.10151841  0.49336211  0.66679721  1
  S  S25  1  0.91474487  0.52178719  0.36036842  1
  S  S26  1  0.75476144  0.95683124  0.32551442  1
  S  S27  1  0.26254113  0.98338282  0.68790690  1
  S  S28  1  0.15475955  0.48073226  0.44291697  1
  S  S29  1  0.84560433  0.41341681  0.55773639  1
  S  S30  1  0.46036168  0.52447616  0.84122842  1
  S  S31  1  0.57410083  0.49781766  0.22587745  1
  S  S32  1  0.92089755  0.47921003  0.98889867  1
  S  S33  1  0.08812995  0.52746117  0.00870131  1
  S  S34  1  0.67883927  0.56111725  0.90898007  1
  S  S35  1  0.34002496  0.52049300  0.11780011  1
  S  S36  1  0.58751564  0.96086763  0.63536614  1
  S  S37  1  0.42030390  0.03950388  0.34867595  1
  S  S38  1  0.23281434  0.48695652  0.28622830  1
  S  S39  1  0.77452088  0.40749463  0.69292673  1
  S  S40  1  0.68666362  0.01498783  0.45515892  1
  S  S41  1  0.31984600  0.04075840  0.53134287  1
