# generated using pymatgen
data_Pr2Mn3(SbS3)4
_symmetry_space_group_name_H-M   'P 1'
_cell_length_a   20.02960800
_cell_length_b   3.90410600
_cell_length_c   14.95364829
_cell_angle_alpha   90.00000000
_cell_angle_beta   126.33350609
_cell_angle_gamma   90.00000000
_symmetry_Int_Tables_number   1
_chemical_formula_structural   Pr2Mn3(SbS3)4
_chemical_formula_sum   'Pr4 Mn6 Sb8 S24'
_cell_volume   942.00006694
_cell_formula_units_Z   2
loop_
 _symmetry_equiv_pos_site_id
 _symmetry_equiv_pos_as_xyz
  1  'x, y, z'
loop_
 _atom_site_type_symbol
 _atom_site_label
 _atom_site_symmetry_multiplicity
 _atom_site_fract_x
 _atom_site_fract_y
 _atom_site_fract_z
 _atom_site_occupancy
  Pr  Pr0  1  0.26308017  0.48176126  0.86824273  1
  Pr  Pr1  1  0.73635286  0.49482472  0.13758330  1
  Pr  Pr2  1  0.77585348  0.97038974  0.87522024  1
  Pr  Pr3  1  0.23559349  0.01704723  0.13403365  1
  Mn  Mn4  1  0.27929574  0.54985807  0.56990478  1
  Mn  Mn5  1  0.71384151  0.51219867  0.38972959  1
  Mn  Mn6  1  0.00187152  0.97205394  0.99789384  1
  Mn  Mn7  1  0.80274842  0.97389016  0.61354991  1
  Mn  Mn8  1  0.18790492  0.99441773  0.40872027  1
  Mn  Mn9  1  0.53193478  0.46854967  0.04306967  1
  Sb  Sb10  1  0.90531458  0.03348155  0.47303984  1
  Sb  Sb11  1  0.11549648  0.93119560  0.55039525  1
  Sb  Sb12  1  0.02719584  0.52574199  0.80039659  1
  Sb  Sb13  1  0.97161407  0.49237951  0.20099707  1
  Sb  Sb14  1  0.38549007  0.48138149  0.44488729  1
  Sb  Sb15  1  0.61688200  0.48208749  0.55208702  1
  Sb  Sb16  1  0.53868831  0.97356405  0.81976812  1
  Sb  Sb17  1  0.46344051  0.04614665  0.18510496  1
  S  S18  1  0.94782363  0.99274871  0.82055047  1
  S  S19  1  0.06963881  0.94760435  0.21112330  1
  S  S20  1  0.42151967  0.01428485  0.98921571  1
  S  S21  1  0.60834238  0.97927675  0.04253307  1
  S  S22  1  0.18317189  0.99876678  0.92032773  1
  S  S23  1  0.83830353  0.03358391  0.11833420  1
  S  S24  1  0.10185676  0.49470817  0.66666667  1
  S  S25  1  0.91494142  0.52101549  0.36024929  1
  S  S26  1  0.75487438  0.95602030  0.32542345  1
  S  S27  1  0.26263604  0.98509382  0.68791632  1
  S  S28  1  0.15454791  0.48141544  0.44228206  1
  S  S29  1  0.84578486  0.41341643  0.55785617  1
  S  S30  1  0.46072850  0.52272701  0.84132389  1
  S  S31  1  0.57397751  0.49887280  0.22569577  1
  S  S32  1  0.92093116  0.47835147  0.98916672  1
  S  S33  1  0.08859729  0.52886082  0.00865213  1
  S  S34  1  0.67856414  0.56143898  0.90877679  1
  S  S35  1  0.34001069  0.51999401  0.11803814  1
  S  S36  1  0.58728562  0.96247469  0.63507656  1
  S  S37  1  0.42001167  0.04110406  0.34841868  1
  S  S38  1  0.23277059  0.48605086  0.28618057  1
  S  S39  1  0.77426096  0.40741162  0.69262108  1
  S  S40  1  0.68674145  0.01722805  0.45539209  1
  S  S41  1  0.31927907  0.03888322  0.53087473  1
