# generated using pymatgen
data_Pr2Mn3(SbS3)4
_symmetry_space_group_name_H-M   'P 1'
_cell_length_a   20.02960800
_cell_length_b   3.90410600
_cell_length_c   14.95364829
_cell_angle_alpha   90.00000000
_cell_angle_beta   126.33350609
_cell_angle_gamma   90.00000000
_symmetry_Int_Tables_number   1
_chemical_formula_structural   Pr2Mn3(SbS3)4
_chemical_formula_sum   'Pr4 Mn6 Sb8 S24'
_cell_volume   942.00006694
_cell_formula_units_Z   2
loop_
 _symmetry_equiv_pos_site_id
 _symmetry_equiv_pos_as_xyz
  1  'x, y, z'
loop_
 _atom_site_type_symbol
 _atom_site_label
 _atom_site_symmetry_multiplicity
 _atom_site_fract_x
 _atom_site_fract_y
 _atom_site_fract_z
 _atom_site_occupancy
  Pr  Pr0  1  0.26304068  0.48134166  0.86831417  1
  Pr  Pr1  1  0.73656208  0.49477178  0.13756091  1
  Pr  Pr2  1  0.77569879  0.96940566  0.87529974  1
  Pr  Pr3  1  0.23562793  0.01741794  0.13425166  1
  Mn  Mn4  1  0.27918995  0.54901414  0.57022117  1
  Mn  Mn5  1  0.71361025  0.51155702  0.38964217  1
  Mn  Mn6  1  0.00180684  0.97252425  0.99802356  1
  Mn  Mn7  1  0.80284286  0.97427624  0.61359313  1
  Mn  Mn8  1  0.18809287  0.99362462  0.40884331  1
  Mn  Mn9  1  0.53195172  0.46880707  0.04303723  1
  Sb  Sb10  1  0.90536590  0.03296013  0.47303573  1
  Sb  Sb11  1  0.11551422  0.93158806  0.55033610  1
  Sb  Sb12  1  0.02719529  0.52510822  0.80038185  1
  Sb  Sb13  1  0.97171914  0.49266156  0.20119520  1
  Sb  Sb14  1  0.38542559  0.48250653  0.44488366  1
  Sb  Sb15  1  0.61682047  0.48213136  0.55208336  1
  Sb  Sb16  1  0.53873610  0.97344673  0.81982165  1
  Sb  Sb17  1  0.46322498  0.04695129  0.18491902  1
  S  S18  1  0.94791914  0.99191363  0.82043058  1
  S  S19  1  0.07001862  0.94522181  0.21109895  1
  S  S20  1  0.42117184  0.01441027  0.98937924  1
  S  S21  1  0.60811849  0.98018252  0.04211908  1
  S  S22  1  0.18281466  0.00036731  0.92040449  1
  S  S23  1  0.83845594  0.03374080  0.11830845  1
  S  S24  1  0.10210433  0.49581459  0.66645420  1
  S  S25  1  0.91513035  0.52024949  0.36027556  1
  S  S26  1  0.75506822  0.95541182  0.32523164  1
  S  S27  1  0.26266004  0.98645889  0.68792361  1
  S  S28  1  0.15439467  0.48170241  0.44165929  1
  S  S29  1  0.84591310  0.41359452  0.55803605  1
  S  S30  1  0.46106867  0.52152427  0.84143918  1
  S  S31  1  0.57396081  0.49985310  0.22552705  1
  S  S32  1  0.92084359  0.47789108  0.98946015  1
  S  S33  1  0.08900724  0.53002551  0.00857678  1
  S  S34  1  0.67837363  0.56238227  0.90879651  1
  S  S35  1  0.34011260  0.51940530  0.11828803  1
  S  S36  1  0.58695916  0.96340735  0.63486591  1
  S  S37  1  0.41980098  0.04294136  0.34824577  1
  S  S38  1  0.23264668  0.48526325  0.28613478  1
  S  S39  1  0.77381789  0.40807490  0.69218486  1
  S  S40  1  0.68693256  0.01891608  0.45564802  1
  S  S41  1  0.31871678  0.03679790  0.53036211  1
