# generated using pymatgen
data_Pr2Mn3(SbS3)4
_symmetry_space_group_name_H-M   'P 1'
_cell_length_a   20.02960800
_cell_length_b   3.90410600
_cell_length_c   14.95364829
_cell_angle_alpha   90.00000000
_cell_angle_beta   126.33350609
_cell_angle_gamma   90.00000000
_symmetry_Int_Tables_number   1
_chemical_formula_structural   Pr2Mn3(SbS3)4
_chemical_formula_sum   'Pr4 Mn6 Sb8 S24'
_cell_volume   942.00006694
_cell_formula_units_Z   2
loop_
 _symmetry_equiv_pos_site_id
 _symmetry_equiv_pos_as_xyz
  1  'x, y, z'
loop_
 _atom_site_type_symbol
 _atom_site_label
 _atom_site_symmetry_multiplicity
 _atom_site_fract_x
 _atom_site_fract_y
 _atom_site_fract_z
 _atom_site_occupancy
  Pr  Pr0  1  0.26298855  0.48088480  0.86837366  1
  Pr  Pr1  1  0.73677056  0.49450610  0.13754032  1
  Pr  Pr2  1  0.77560214  0.96848392  0.87540664  1
  Pr  Pr3  1  0.23564705  0.01775956  0.13450264  1
  Mn  Mn4  1  0.27906001  0.54851359  0.57051779  1
  Mn  Mn5  1  0.71346293  0.51120383  0.38961573  1
  Mn  Mn6  1  0.00175294  0.97323834  0.99805505  1
  Mn  Mn7  1  0.80295308  0.97425962  0.61374678  1
  Mn  Mn8  1  0.18832607  0.99320496  0.40897150  1
  Mn  Mn9  1  0.53208991  0.46958711  0.04293802  1
  Sb  Sb10  1  0.90539829  0.03246845  0.47300547  1
  Sb  Sb11  1  0.11547157  0.93203059  0.55022740  1
  Sb  Sb12  1  0.02730317  0.52462446  0.80054156  1
  Sb  Sb13  1  0.97185921  0.49307701  0.20133260  1
  Sb  Sb14  1  0.38535053  0.48378064  0.44477597  1
  Sb  Sb15  1  0.61673427  0.48186228  0.55201433  1
  Sb  Sb16  1  0.53875528  0.97310710  0.81981909  1
  Sb  Sb17  1  0.46308488  0.04745337  0.18465180  1
  S  S18  1  0.94787251  0.99167916  0.82026072  1
  S  S19  1  0.07026814  0.94280627  0.21100377  1
  S  S20  1  0.42104549  0.01457781  0.98971697  1
  S  S21  1  0.60784319  0.98083851  0.04186211  1
  S  S22  1  0.18239654  0.00164462  0.92018830  1
  S  S23  1  0.83861217  0.03399247  0.11833139  1
  S  S24  1  0.10236775  0.49686514  0.66624333  1
  S  S25  1  0.91529825  0.51929138  0.36033203  1
  S  S26  1  0.75531718  0.95415907  0.32512570  1
  S  S27  1  0.26284719  0.98747438  0.68805489  1
  S  S28  1  0.15425480  0.48172524  0.44123688  1
  S  S29  1  0.84606450  0.41345155  0.55841086  1
  S  S30  1  0.46137063  0.52019627  0.84164497  1
  S  S31  1  0.57380521  0.50077572  0.22509323  1
  S  S32  1  0.92074558  0.47749140  0.98961996  1
  S  S33  1  0.08928031  0.53096896  0.00859191  1
  S  S34  1  0.67824627  0.56330993  0.90885858  1
  S  S35  1  0.34025544  0.51858335  0.11832487  1
  S  S36  1  0.58654762  0.96382628  0.63468041  1
  S  S37  1  0.41946065  0.04444750  0.34784747  1
  S  S38  1  0.23248615  0.48421782  0.28601463  1
  S  S39  1  0.77341050  0.40841792  0.69183358  1
  S  S40  1  0.68714521  0.02076726  0.45593115  1
  S  S41  1  0.31822237  0.03488779  0.53003242  1
