# generated using pymatgen
data_Pr2Mn3(SbS3)4
_symmetry_space_group_name_H-M   'P 1'
_cell_length_a   20.02960800
_cell_length_b   3.90410600
_cell_length_c   14.95364829
_cell_angle_alpha   90.00000000
_cell_angle_beta   126.33350609
_cell_angle_gamma   90.00000000
_symmetry_Int_Tables_number   1
_chemical_formula_structural   Pr2Mn3(SbS3)4
_chemical_formula_sum   'Pr4 Mn6 Sb8 S24'
_cell_volume   942.00006694
_cell_formula_units_Z   2
loop_
 _symmetry_equiv_pos_site_id
 _symmetry_equiv_pos_as_xyz
  1  'x, y, z'
loop_
 _atom_site_type_symbol
 _atom_site_label
 _atom_site_symmetry_multiplicity
 _atom_site_fract_x
 _atom_site_fract_y
 _atom_site_fract_z
 _atom_site_occupancy
  Pr  Pr0  1  0.26303061  0.48066759  0.86852783  1
  Pr  Pr1  1  0.73699824  0.49418467  0.13752222  1
  Pr  Pr2  1  0.77554802  0.96747616  0.87554829  1
  Pr  Pr3  1  0.23572739  0.01817687  0.13480667  1
  Mn  Mn4  1  0.27905815  0.54808165  0.57096244  1
  Mn  Mn5  1  0.71325943  0.51014518  0.38966222  1
  Mn  Mn6  1  0.00176158  0.97416762  0.99817392  1
  Mn  Mn7  1  0.80296943  0.97457299  0.61395904  1
  Mn  Mn8  1  0.18862521  0.99255003  0.40903931  1
  Mn  Mn9  1  0.53237358  0.47003068  0.04290103  1
  Sb  Sb10  1  0.90538725  0.03202118  0.47287414  1
  Sb  Sb11  1  0.11545656  0.93223301  0.55014866  1
  Sb  Sb12  1  0.02736557  0.52384491  0.80067578  1
  Sb  Sb13  1  0.97193784  0.49359630  0.20141217  1
  Sb  Sb14  1  0.38534057  0.48470902  0.44463389  1
  Sb  Sb15  1  0.61666108  0.48145297  0.55192576  1
  Sb  Sb16  1  0.53881964  0.97245107  0.81988954  1
  Sb  Sb17  1  0.46295705  0.04787271  0.18451052  1
  S  S18  1  0.94797642  0.99152671  0.82028665  1
  S  S19  1  0.07051331  0.94084876  0.21091637  1
  S  S20  1  0.42100768  0.01502489  0.99025103  1
  S  S21  1  0.60751689  0.98107788  0.04156364  1
  S  S22  1  0.18200707  0.00268084  0.91988402  1
  S  S23  1  0.83882383  0.03445083  0.11834864  1
  S  S24  1  0.10262855  0.49786706  0.66611547  1
  S  S25  1  0.91545551  0.51845483  0.36054472  1
  S  S26  1  0.75545408  0.95281804  0.32495448  1
  S  S27  1  0.26308688  0.98827267  0.68834449  1
  S  S28  1  0.15418849  0.48120126  0.44083717  1
  S  S29  1  0.84620180  0.41391146  0.55876948  1
  S  S30  1  0.46152395  0.51893918  0.84177487  1
  S  S31  1  0.57373222  0.50213157  0.22466556  1
  S  S32  1  0.92058718  0.47714627  0.98960963  1
  S  S33  1  0.08943189  0.53204501  0.00858250  1
  S  S34  1  0.67794638  0.56443361  0.90877102  1
  S  S35  1  0.34035057  0.51836618  0.11834359  1
  S  S36  1  0.58606290  0.96391734  0.63442381  1
  S  S37  1  0.41923602  0.04523475  0.34747010  1
  S  S38  1  0.23236200  0.48360630  0.28592773  1
  S  S39  1  0.77308770  0.40816475  0.69165786  1
  S  S40  1  0.68729564  0.02245704  0.45629128  1
  S  S41  1  0.31765629  0.03357189  0.52967011  1
