# generated using pymatgen
data_Pr2Mn3(SbS3)4
_symmetry_space_group_name_H-M   'P 1'
_cell_length_a   20.02960800
_cell_length_b   3.90410600
_cell_length_c   14.95364829
_cell_angle_alpha   90.00000000
_cell_angle_beta   126.33350609
_cell_angle_gamma   90.00000000
_symmetry_Int_Tables_number   1
_chemical_formula_structural   Pr2Mn3(SbS3)4
_chemical_formula_sum   'Pr4 Mn6 Sb8 S24'
_cell_volume   942.00006694
_cell_formula_units_Z   2
loop_
 _symmetry_equiv_pos_site_id
 _symmetry_equiv_pos_as_xyz
  1  'x, y, z'
loop_
 _atom_site_type_symbol
 _atom_site_label
 _atom_site_symmetry_multiplicity
 _atom_site_fract_x
 _atom_site_fract_y
 _atom_site_fract_z
 _atom_site_occupancy
  Pr  Pr0  1  0.26309168  0.48022690  0.86868525  1
  Pr  Pr1  1  0.73727212  0.49391062  0.13762395  1
  Pr  Pr2  1  0.77541502  0.96656984  0.87560753  1
  Pr  Pr3  1  0.23578350  0.01851328  0.13504703  1
  Mn  Mn4  1  0.27905204  0.54774148  0.57145049  1
  Mn  Mn5  1  0.71304959  0.50866759  0.38984202  1
  Mn  Mn6  1  0.00170311  0.97508803  0.99826278  1
  Mn  Mn7  1  0.80299710  0.97421915  0.61420337  1
  Mn  Mn8  1  0.18885012  0.99195279  0.40904329  1
  Mn  Mn9  1  0.53265932  0.47039121  0.04287298  1
  Sb  Sb10  1  0.90549459  0.03147454  0.47287459  1
  Sb  Sb11  1  0.11540203  0.93237537  0.55009968  1
  Sb  Sb12  1  0.02744937  0.52325294  0.80085331  1
  Sb  Sb13  1  0.97202460  0.49376375  0.20147286  1
  Sb  Sb14  1  0.38536445  0.48546753  0.44454437  1
  Sb  Sb15  1  0.61654029  0.48107389  0.55185121  1
  Sb  Sb16  1  0.53887051  0.97137191  0.81995020  1
  Sb  Sb17  1  0.46278584  0.04838494  0.18428652  1
  S  S18  1  0.94799663  0.99121417  0.82014619  1
  S  S19  1  0.07094099  0.93882632  0.21103454  1
  S  S20  1  0.42082473  0.01545738  0.99069157  1
  S  S21  1  0.60724468  0.98107608  0.04141851  1
  S  S22  1  0.18161766  0.00410395  0.91956548  1
  S  S23  1  0.83898438  0.03502524  0.11854604  1
  S  S24  1  0.10295697  0.49868593  0.66610774  1
  S  S25  1  0.91574336  0.51797519  0.36089066  1
  S  S26  1  0.75551811  0.95136558  0.32461963  1
  S  S27  1  0.26334332  0.98881109  0.68875368  1
  S  S28  1  0.15417473  0.48113410  0.44040644  1
  S  S29  1  0.84643638  0.41382727  0.55912816  1
  S  S30  1  0.46161797  0.51769884  0.84177478  1
  S  S31  1  0.57362789  0.50342174  0.22411789  1
  S  S32  1  0.92053951  0.47651949  0.98952269  1
  S  S33  1  0.08956960  0.53282616  0.00863852  1
  S  S34  1  0.67778354  0.56513393  0.90847223  1
  S  S35  1  0.34025824  0.51787763  0.11828160  1
  S  S36  1  0.58562320  0.96396699  0.63432009  1
  S  S37  1  0.41885237  0.04650676  0.34705698  1
  S  S38  1  0.23215429  0.48376810  0.28578720  1
  S  S39  1  0.77273373  0.40777812  0.69136625  1
  S  S40  1  0.68754177  0.02390929  0.45654122  1
  S  S41  1  0.31720975  0.03191033  0.52951780  1
