# generated using pymatgen
data_Pr2Mn3(SbS3)4
_symmetry_space_group_name_H-M   'P 1'
_cell_length_a   20.02960800
_cell_length_b   3.90410600
_cell_length_c   14.95364829
_cell_angle_alpha   90.00000000
_cell_angle_beta   126.33350609
_cell_angle_gamma   90.00000000
_symmetry_Int_Tables_number   1
_chemical_formula_structural   Pr2Mn3(SbS3)4
_chemical_formula_sum   'Pr4 Mn6 Sb8 S24'
_cell_volume   942.00006694
_cell_formula_units_Z   2
loop_
 _symmetry_equiv_pos_site_id
 _symmetry_equiv_pos_as_xyz
  1  'x, y, z'
loop_
 _atom_site_type_symbol
 _atom_site_label
 _atom_site_symmetry_multiplicity
 _atom_site_fract_x
 _atom_site_fract_y
 _atom_site_fract_z
 _atom_site_occupancy
  Pr  Pr0  1  0.26312997  0.47966369  0.86876507  1
  Pr  Pr1  1  0.73756193  0.49384316  0.13773067  1
  Pr  Pr2  1  0.77537484  0.96570916  0.87568225  1
  Pr  Pr3  1  0.23581130  0.01888672  0.13526451  1
  Mn  Mn4  1  0.27890890  0.54753629  0.57176455  1
  Mn  Mn5  1  0.71295089  0.50768371  0.39003022  1
  Mn  Mn6  1  0.00165364  0.97580567  0.99822944  1
  Mn  Mn7  1  0.80307919  0.97438680  0.61442599  1
  Mn  Mn8  1  0.18907718  0.99199930  0.40902567  1
  Mn  Mn9  1  0.53305073  0.47022760  0.04291714  1
  Sb  Sb10  1  0.90555277  0.03054477  0.47282911  1
  Sb  Sb11  1  0.11537979  0.93267419  0.55013173  1
  Sb  Sb12  1  0.02751874  0.52279520  0.80101069  1
  Sb  Sb13  1  0.97207531  0.49376184  0.20151706  1
  Sb  Sb14  1  0.38533772  0.48592808  0.44437364  1
  Sb  Sb15  1  0.61648031  0.48054903  0.55181883  1
  Sb  Sb16  1  0.53898505  0.97052726  0.82008303  1
  Sb  Sb17  1  0.46271610  0.04850513  0.18428069  1
  S  S18  1  0.94820379  0.99004535  0.82007735  1
  S  S19  1  0.07145479  0.93741696  0.21127212  1
  S  S20  1  0.42059777  0.01528212  0.99113064  1
  S  S21  1  0.60688763  0.98106804  0.04125075  1
  S  S22  1  0.18125804  0.00574351  0.91921996  1
  S  S23  1  0.83905945  0.03562260  0.11862102  1
  S  S24  1  0.10323018  0.49939804  0.66602690  1
  S  S25  1  0.91581755  0.51776590  0.36106050  1
  S  S26  1  0.75560243  0.95022283  0.32423272  1
  S  S27  1  0.26365714  0.98981670  0.68899628  1
  S  S28  1  0.15408902  0.48088709  0.43997592  1
  S  S29  1  0.84671242  0.41362354  0.55942084  1
  S  S30  1  0.46165396  0.51607073  0.84174504  1
  S  S31  1  0.57363831  0.50509370  0.22373190  1
  S  S32  1  0.92059617  0.47568909  0.98968369  1
  S  S33  1  0.08970302  0.53279418  0.00881381  1
  S  S34  1  0.67767101  0.56672192  0.90812421  1
  S  S35  1  0.34030596  0.51692935  0.11844686  1
  S  S36  1  0.58537805  0.96421941  0.63435358  1
  S  S37  1  0.41857665  0.04723424  0.34677927  1
  S  S38  1  0.23210286  0.48399527  0.28579635  1
  S  S39  1  0.77235038  0.40723260  0.69113056  1
  S  S40  1  0.68779247  0.02508090  0.45677783  1
  S  S41  1  0.31670524  0.03040736  0.52943898  1
