# generated using pymatgen
data_Pr2Mn3(SbS3)4
_symmetry_space_group_name_H-M   'P 1'
_cell_length_a   20.02960800
_cell_length_b   3.90410600
_cell_length_c   14.95364829
_cell_angle_alpha   90.00000000
_cell_angle_beta   126.33350609
_cell_angle_gamma   90.00000000
_symmetry_Int_Tables_number   1
_chemical_formula_structural   Pr2Mn3(SbS3)4
_chemical_formula_sum   'Pr4 Mn6 Sb8 S24'
_cell_volume   942.00006694
_cell_formula_units_Z   2
loop_
 _symmetry_equiv_pos_site_id
 _symmetry_equiv_pos_as_xyz
  1  'x, y, z'
loop_
 _atom_site_type_symbol
 _atom_site_label
 _atom_site_symmetry_multiplicity
 _atom_site_fract_x
 _atom_site_fract_y
 _atom_site_fract_z
 _atom_site_occupancy
  Pr  Pr0  1  0.26955192  0.50790767  0.87411396  1
  Pr  Pr1  1  0.73413859  0.52043198  0.13478614  1
  Pr  Pr2  1  0.76434715  0.03267895  0.87117228  1
  Pr  Pr3  1  0.22814656  0.95976198  0.12715966  1
  Mn  Mn4  1  0.29741265  0.45651022  0.60835234  1
  Mn  Mn5  1  0.68607051  0.45441848  0.36472930  1
  Mn  Mn6  1  0.99864981  0.98157716  0.00688483  1
  Mn  Mn7  1  0.78994895  0.02207766  0.61385737  1
  Mn  Mn8  1  0.19884417  0.02770014  0.37161690  1
  Mn  Mn9  1  0.47954629  0.47369579  0.97744145  1
  Sb  Sb10  1  0.89190037  0.97091923  0.44920444  1
  Sb  Sb11  1  0.11347236  0.97621414  0.54831213  1
  Sb  Sb12  1  0.03896668  0.51857014  0.82773067  1
  Sb  Sb13  1  0.96814959  0.48315294  0.19258743  1
  Sb  Sb14  1  0.39872622  0.49263921  0.45421218  1
  Sb  Sb15  1  0.61317112  0.48524194  0.54780278  1
  Sb  Sb16  1  0.52950763  0.97293606  0.80618547  1
  Sb  Sb17  1  0.46542051  0.03325809  0.18473396  1
  S  S18  1  0.93733266  0.99259650  0.80229516  1
  S  S19  1  0.06637345  0.98671732  0.20164620  1
  S  S20  1  0.41904129  0.97804999  0.97535685  1
  S  S21  1  0.58470540  0.02347120  0.00763500  1
  S  S22  1  0.16102107  0.02437438  0.89395112  1
  S  S23  1  0.82870895  0.97529872  0.10404418  1
  S  S24  1  0.08982195  0.49861507  0.63688787  1
  S  S25  1  0.91524252  0.50883453  0.35608695  1
  S  S26  1  0.73510221  0.99279888  0.29869272  1
  S  S27  1  0.26403037  0.01360654  0.70436967  1
  S  S28  1  0.17216790  0.52066730  0.44286355  1
  S  S29  1  0.80657864  0.52748465  0.53804082  1
  S  S30  1  0.43249939  0.47265208  0.79716827  1
  S  S31  1  0.55397157  0.48877802  0.17607172  1
  S  S32  1  0.91920453  0.52366555  0.98686202  1
  S  S33  1  0.08441464  0.49453160  0.02237442  1
  S  S34  1  0.66905252  0.55689276  0.89231597  1
  S  S35  1  0.32936573  0.46119383  0.10133839  1
  S  S36  1  0.58893627  0.98871438  0.64161639  1
  S  S37  1  0.39298765  0.99960173  0.33101565  1
  S  S38  1  0.24531010  0.47065351  0.31602202  1
  S  S39  1  0.76379729  0.48625921  0.69356451  1
  S  S40  1  0.65692397  0.99103710  0.43265691  1
  S  S41  1  0.32951946  0.98138204  0.55471053  1
