# generated using pymatgen
data_Pr2Mn3(SbS3)4
_symmetry_space_group_name_H-M   'P 1'
_cell_length_a   20.02960800
_cell_length_b   3.90410600
_cell_length_c   14.95364829
_cell_angle_alpha   90.00000000
_cell_angle_beta   126.33350609
_cell_angle_gamma   90.00000000
_symmetry_Int_Tables_number   1
_chemical_formula_structural   Pr2Mn3(SbS3)4
_chemical_formula_sum   'Pr4 Mn6 Sb8 S24'
_cell_volume   942.00006694
_cell_formula_units_Z   2
loop_
 _symmetry_equiv_pos_site_id
 _symmetry_equiv_pos_as_xyz
  1  'x, y, z'
loop_
 _atom_site_type_symbol
 _atom_site_label
 _atom_site_symmetry_multiplicity
 _atom_site_fract_x
 _atom_site_fract_y
 _atom_site_fract_z
 _atom_site_occupancy
  Pr  Pr0  1  0.26312710  0.47917457  0.86875981  1
  Pr  Pr1  1  0.73787951  0.49356126  0.13787903  1
  Pr  Pr2  1  0.77535536  0.96500222  0.87570654  1
  Pr  Pr3  1  0.23586278  0.01951469  0.13549196  1
  Mn  Mn4  1  0.27893342  0.54736323  0.57221925  1
  Mn  Mn5  1  0.71271579  0.50670000  0.39013485  1
  Mn  Mn6  1  0.00151203  0.97684346  0.99822331  1
  Mn  Mn7  1  0.80316642  0.97419961  0.61459245  1
  Mn  Mn8  1  0.18926395  0.99196324  0.40893639  1
  Mn  Mn9  1  0.53335502  0.47032412  0.04299478  1
  Sb  Sb10  1  0.90558535  0.02980723  0.47279133  1
  Sb  Sb11  1  0.11529336  0.93289496  0.55003601  1
  Sb  Sb12  1  0.02751755  0.52242336  0.80107996  1
  Sb  Sb13  1  0.97209227  0.49402802  0.20155963  1
  Sb  Sb14  1  0.38534058  0.48643618  0.44426598  1
  Sb  Sb15  1  0.61641849  0.48005926  0.55176888  1
  Sb  Sb16  1  0.53909799  0.96977883  0.82026587  1
  Sb  Sb17  1  0.46259180  0.04834696  0.18424289  1
  S  S18  1  0.94830534  0.98933401  0.81994355  1
  S  S19  1  0.07179305  0.93602978  0.21155942  1
  S  S20  1  0.42049933  0.01487492  0.99160221  1
  S  S21  1  0.60648367  0.98131320  0.04097439  1
  S  S22  1  0.18091028  0.00696198  0.91890476  1
  S  S23  1  0.83932140  0.03640981  0.11883503  1
  S  S24  1  0.10352870  0.49946082  0.66610229  1
  S  S25  1  0.91596046  0.51762029  0.36118852  1
  S  S26  1  0.75561572  0.94984306  0.32364903  1
  S  S27  1  0.26397092  0.99066917  0.68911786  1
  S  S28  1  0.15415472  0.48131132  0.43960719  1
  S  S29  1  0.84697981  0.41370924  0.55974155  1
  S  S30  1  0.46157140  0.51451828  0.84179994  1
  S  S31  1  0.57355380  0.50614574  0.22331623  1
  S  S32  1  0.92076783  0.47477359  0.99003303  1
  S  S33  1  0.08965128  0.53288974  0.00871914  1
  S  S34  1  0.67761770  0.56806012  0.90779371  1
  S  S35  1  0.34034580  0.51657001  0.11855082  1
  S  S36  1  0.58520254  0.96455902  0.63439273  1
  S  S37  1  0.41820626  0.04836748  0.34644311  1
  S  S38  1  0.23207403  0.48457401  0.28561020  1
  S  S39  1  0.77212600  0.40679843  0.69106751  1
  S  S40  1  0.68785267  0.02590843  0.45699838  1
  S  S41  1  0.31636283  0.02956835  0.52941632  1
