# generated using pymatgen
data_Pr2Mn3(SbS3)4
_symmetry_space_group_name_H-M   'P 1'
_cell_length_a   20.02960800
_cell_length_b   3.90410600
_cell_length_c   14.95364829
_cell_angle_alpha   90.00000000
_cell_angle_beta   126.33350609
_cell_angle_gamma   90.00000000
_symmetry_Int_Tables_number   1
_chemical_formula_structural   Pr2Mn3(SbS3)4
_chemical_formula_sum   'Pr4 Mn6 Sb8 S24'
_cell_volume   942.00006694
_cell_formula_units_Z   2
loop_
 _symmetry_equiv_pos_site_id
 _symmetry_equiv_pos_as_xyz
  1  'x, y, z'
loop_
 _atom_site_type_symbol
 _atom_site_label
 _atom_site_symmetry_multiplicity
 _atom_site_fract_x
 _atom_site_fract_y
 _atom_site_fract_z
 _atom_site_occupancy
  Pr  Pr0  1  0.26304893  0.47816479  0.86868962  1
  Pr  Pr1  1  0.73817720  0.49359907  0.13808025  1
  Pr  Pr2  1  0.77534534  0.96419479  0.87569857  1
  Pr  Pr3  1  0.23591621  0.02004211  0.13571191  1
  Mn  Mn4  1  0.27894292  0.54714381  0.57259520  1
  Mn  Mn5  1  0.71244607  0.50612638  0.39020859  1
  Mn  Mn6  1  0.00137318  0.97754476  0.99835241  1
  Mn  Mn7  1  0.80327445  0.97405476  0.61462409  1
  Mn  Mn8  1  0.18935632  0.99223872  0.40887265  1
  Mn  Mn9  1  0.53365825  0.47044390  0.04322059  1
  Sb  Sb10  1  0.90551413  0.02880283  0.47263749  1
  Sb  Sb11  1  0.11527752  0.93290213  0.54987724  1
  Sb  Sb12  1  0.02747340  0.52175627  0.80110402  1
  Sb  Sb13  1  0.97217016  0.49429965  0.20166805  1
  Sb  Sb14  1  0.38541024  0.48695787  0.44425055  1
  Sb  Sb15  1  0.61639023  0.47977162  0.55172533  1
  Sb  Sb16  1  0.53917204  0.96891981  0.82037754  1
  Sb  Sb17  1  0.46254218  0.04800119  0.18426395  1
  S  S18  1  0.94824484  0.98872442  0.81961050  1
  S  S19  1  0.07217543  0.93508943  0.21170347  1
  S  S20  1  0.42018528  0.01440663  0.99174527  1
  S  S21  1  0.60607117  0.98165674  0.04070321  1
  S  S22  1  0.18061311  0.00829847  0.91866249  1
  S  S23  1  0.83959004  0.03681955  0.11888544  1
  S  S24  1  0.10368636  0.49941304  0.66592646  1
  S  S25  1  0.91610409  0.51753432  0.36110512  1
  S  S26  1  0.75572419  0.94970024  0.32317552  1
  S  S27  1  0.26436858  0.99187402  0.68933704  1
  S  S28  1  0.15422235  0.48139644  0.43928815  1
  S  S29  1  0.84704521  0.41366398  0.55995750  1
  S  S30  1  0.46156807  0.51325732  0.84193041  1
  S  S31  1  0.57349586  0.50565005  0.22284044  1
  S  S32  1  0.92100378  0.47380431  0.99040485  1
  S  S33  1  0.08968478  0.53334418  0.00863410  1
  S  S34  1  0.67763408  0.56896170  0.90738772  1
  S  S35  1  0.34031110  0.51609188  0.11846358  1
  S  S36  1  0.58505845  0.96401464  0.63434185  1
  S  S37  1  0.41793599  0.04926850  0.34627861  1
  S  S38  1  0.23216134  0.48533147  0.28543767  1
  S  S39  1  0.77195070  0.40669547  0.69089877  1
  S  S40  1  0.68788218  0.02750995  0.45733142  1
  S  S41  1  0.31593796  0.02932241  0.52915780  1
