# generated using pymatgen
data_Pr2Mn3(SbS3)4
_symmetry_space_group_name_H-M   'P 1'
_cell_length_a   20.02960800
_cell_length_b   3.90410600
_cell_length_c   14.95364829
_cell_angle_alpha   90.00000000
_cell_angle_beta   126.33350609
_cell_angle_gamma   90.00000000
_symmetry_Int_Tables_number   1
_chemical_formula_structural   Pr2Mn3(SbS3)4
_chemical_formula_sum   'Pr4 Mn6 Sb8 S24'
_cell_volume   942.00006694
_cell_formula_units_Z   2
loop_
 _symmetry_equiv_pos_site_id
 _symmetry_equiv_pos_as_xyz
  1  'x, y, z'
loop_
 _atom_site_type_symbol
 _atom_site_label
 _atom_site_symmetry_multiplicity
 _atom_site_fract_x
 _atom_site_fract_y
 _atom_site_fract_z
 _atom_site_occupancy
  Pr  Pr0  1  0.26300256  0.47742041  0.86861240  1
  Pr  Pr1  1  0.73846894  0.49374044  0.13827897  1
  Pr  Pr2  1  0.77540119  0.96334418  0.87569940  1
  Pr  Pr3  1  0.23597343  0.02054976  0.13588536  1
  Mn  Mn4  1  0.27886736  0.54733352  0.57297452  1
  Mn  Mn5  1  0.71219169  0.50599583  0.39020298  1
  Mn  Mn6  1  0.00116792  0.97823342  0.99848113  1
  Mn  Mn7  1  0.80337686  0.97381459  0.61464546  1
  Mn  Mn8  1  0.18938958  0.99190206  0.40877209  1
  Mn  Mn9  1  0.53391352  0.47091599  0.04340146  1
  Sb  Sb10  1  0.90551435  0.02773746  0.47254536  1
  Sb  Sb11  1  0.11530568  0.93308016  0.54982884  1
  Sb  Sb12  1  0.02747589  0.52112684  0.80113567  1
  Sb  Sb13  1  0.97224456  0.49383233  0.20177878  1
  Sb  Sb14  1  0.38548669  0.48759594  0.44430411  1
  Sb  Sb15  1  0.61643852  0.47974810  0.55167136  1
  Sb  Sb16  1  0.53926367  0.96824798  0.82050203  1
  Sb  Sb17  1  0.46252212  0.04738985  0.18434052  1
  S  S18  1  0.94818926  0.98748787  0.81922558  1
  S  S19  1  0.07245430  0.93336635  0.21189155  1
  S  S20  1  0.41988009  0.01391701  0.99174658  1
  S  S21  1  0.60573013  0.98219870  0.04065885  1
  S  S22  1  0.18023314  0.00914080  0.91848717  1
  S  S23  1  0.83987786  0.03687203  0.11889834  1
  S  S24  1  0.10370948  0.49903117  0.66563784  1
  S  S25  1  0.91629795  0.51715962  0.36103739  1
  S  S26  1  0.75583516  0.94937385  0.32264956  1
  S  S27  1  0.26489795  0.99312531  0.68952182  1
  S  S28  1  0.15415981  0.48123922  0.43911625  1
  S  S29  1  0.84718454  0.41404978  0.56016907  1
  S  S30  1  0.46163376  0.51167677  0.84217124  1
  S  S31  1  0.57360251  0.50545500  0.22253123  1
  S  S32  1  0.92130618  0.47312950  0.99081407  1
  S  S33  1  0.08955557  0.53392791  0.00836311  1
  S  S34  1  0.67758193  0.56977462  0.90693725  1
  S  S35  1  0.34018790  0.51553857  0.11826841  1
  S  S36  1  0.58483209  0.96314437  0.63418143  1
  S  S37  1  0.41770602  0.04992453  0.34614973  1
  S  S38  1  0.23231729  0.48593861  0.28529313  1
  S  S39  1  0.77185730  0.40628486  0.69099284  1
  S  S40  1  0.68789082  0.02891320  0.45765660  1
  S  S41  1  0.31543651  0.02937647  0.52875354  1
