# generated using pymatgen
data_Pr2Mn3(SbS3)4
_symmetry_space_group_name_H-M   'P 1'
_cell_length_a   20.02960800
_cell_length_b   3.90410600
_cell_length_c   14.95364829
_cell_angle_alpha   90.00000000
_cell_angle_beta   126.33350609
_cell_angle_gamma   90.00000000
_symmetry_Int_Tables_number   1
_chemical_formula_structural   Pr2Mn3(SbS3)4
_chemical_formula_sum   'Pr4 Mn6 Sb8 S24'
_cell_volume   942.00006694
_cell_formula_units_Z   2
loop_
 _symmetry_equiv_pos_site_id
 _symmetry_equiv_pos_as_xyz
  1  'x, y, z'
loop_
 _atom_site_type_symbol
 _atom_site_label
 _atom_site_symmetry_multiplicity
 _atom_site_fract_x
 _atom_site_fract_y
 _atom_site_fract_z
 _atom_site_occupancy
  Pr  Pr0  1  0.26299844  0.47700404  0.86852569  1
  Pr  Pr1  1  0.73870465  0.49368846  0.13844637  1
  Pr  Pr2  1  0.77543378  0.96239122  0.87575649  1
  Pr  Pr3  1  0.23605374  0.02104035  0.13600706  1
  Mn  Mn4  1  0.27893466  0.54799337  0.57332111  1
  Mn  Mn5  1  0.71191130  0.50587180  0.39007134  1
  Mn  Mn6  1  0.00090633  0.97926794  0.99848929  1
  Mn  Mn7  1  0.80341609  0.97354341  0.61479082  1
  Mn  Mn8  1  0.18935685  0.99162696  0.40865625  1
  Mn  Mn9  1  0.53410747  0.47163977  0.04350511  1
  Sb  Sb10  1  0.90556308  0.02699519  0.47258264  1
  Sb  Sb11  1  0.11531824  0.93310404  0.54968102  1
  Sb  Sb12  1  0.02744575  0.52064704  0.80118947  1
  Sb  Sb13  1  0.97232380  0.49324600  0.20191704  1
  Sb  Sb14  1  0.38556656  0.48807023  0.44435538  1
  Sb  Sb15  1  0.61641434  0.47945513  0.55159113  1
  Sb  Sb16  1  0.53925805  0.96791206  0.82055801  1
  Sb  Sb17  1  0.46248786  0.04714054  0.18441564  1
  S  S18  1  0.94828706  0.98583095  0.81906789  1
  S  S19  1  0.07270691  0.93135823  0.21194282  1
  S  S20  1  0.41949742  0.01379661  0.99170708  1
  S  S21  1  0.60540100  0.98266813  0.04057973  1
  S  S22  1  0.17969504  0.01017473  0.91828078  1
  S  S23  1  0.84027758  0.03681535  0.11900914  1
  S  S24  1  0.10377667  0.49818542  0.66543495  1
  S  S25  1  0.91652633  0.51711538  0.36106104  1
  S  S26  1  0.75599194  0.94906292  0.32224829  1
  S  S27  1  0.26532079  0.99476229  0.68959056  1
  S  S28  1  0.15415846  0.48082086  0.43914553  1
  S  S29  1  0.84706122  0.41466512  0.56010638  1
  S  S30  1  0.46176029  0.51028234  0.84232992  1
  S  S31  1  0.57381557  0.50514987  0.22214009  1
  S  S32  1  0.92158671  0.47261668  0.99106789  1
  S  S33  1  0.08926490  0.53395313  0.00798261  1
  S  S34  1  0.67746400  0.57055032  0.90658266  1
  S  S35  1  0.34001841  0.51444501  0.11805239  1
  S  S36  1  0.58456474  0.96214819  0.63413502  1
  S  S37  1  0.41730770  0.05042996  0.34585850  1
  S  S38  1  0.23258021  0.48582930  0.28518548  1
  S  S39  1  0.77188933  0.40651782  0.69118226  1
  S  S40  1  0.68786454  0.03039694  0.45800137  1
  S  S41  1  0.31502460  0.02993910  0.52850799  1
