# generated using pymatgen
data_Pr2Mn3(SbS3)4
_symmetry_space_group_name_H-M   'P 1'
_cell_length_a   20.02960800
_cell_length_b   3.90410600
_cell_length_c   14.95364829
_cell_angle_alpha   90.00000000
_cell_angle_beta   126.33350609
_cell_angle_gamma   90.00000000
_symmetry_Int_Tables_number   1
_chemical_formula_structural   Pr2Mn3(SbS3)4
_chemical_formula_sum   'Pr4 Mn6 Sb8 S24'
_cell_volume   942.00006694
_cell_formula_units_Z   2
loop_
 _symmetry_equiv_pos_site_id
 _symmetry_equiv_pos_as_xyz
  1  'x, y, z'
loop_
 _atom_site_type_symbol
 _atom_site_label
 _atom_site_symmetry_multiplicity
 _atom_site_fract_x
 _atom_site_fract_y
 _atom_site_fract_z
 _atom_site_occupancy
  Pr  Pr0  1  0.26298415  0.47664129  0.86842879  1
  Pr  Pr1  1  0.73888466  0.49349576  0.13860607  1
  Pr  Pr2  1  0.77544463  0.96140511  0.87581200  1
  Pr  Pr3  1  0.23612692  0.02135669  0.13606811  1
  Mn  Mn4  1  0.27903105  0.54891669  0.57369762  1
  Mn  Mn5  1  0.71171514  0.50553740  0.38995362  1
  Mn  Mn6  1  0.00059403  0.98052152  0.99857353  1
  Mn  Mn7  1  0.80350295  0.97293796  0.61497517  1
  Mn  Mn8  1  0.18908613  0.99160785  0.40836489  1
  Mn  Mn9  1  0.53432643  0.47205440  0.04369826  1
  Sb  Sb10  1  0.90560140  0.02621372  0.47267827  1
  Sb  Sb11  1  0.11529918  0.93292871  0.54955139  1
  Sb  Sb12  1  0.02738488  0.52014203  0.80105661  1
  Sb  Sb13  1  0.97238396  0.49296755  0.20195102  1
  Sb  Sb14  1  0.38554735  0.48839734  0.44438848  1
  Sb  Sb15  1  0.61631846  0.47910405  0.55152699  1
  Sb  Sb16  1  0.53919573  0.96761412  0.82054510  1
  Sb  Sb17  1  0.46250739  0.04677695  0.18452029  1
  S  S18  1  0.94825328  0.98427389  0.81870735  1
  S  S19  1  0.07301994  0.93003518  0.21202879  1
  S  S20  1  0.41925399  0.01413353  0.99183455  1
  S  S21  1  0.60498146  0.98337587  0.04044661  1
  S  S22  1  0.17925179  0.01092527  0.91791639  1
  S  S23  1  0.84075737  0.03643855  0.11914163  1
  S  S24  1  0.10373468  0.49725817  0.66533998  1
  S  S25  1  0.91675403  0.51684579  0.36118453  1
  S  S26  1  0.75617619  0.94885079  0.32184741  1
  S  S27  1  0.26575542  0.99673404  0.68965819  1
  S  S28  1  0.15419804  0.47980551  0.43929816  1
  S  S29  1  0.84694682  0.41444846  0.56016796  1
  S  S30  1  0.46179945  0.50919684  0.84238643  1
  S  S31  1  0.57386090  0.50574082  0.22160076  1
  S  S32  1  0.92184603  0.47185179  0.99136824  1
  S  S33  1  0.08902799  0.53340366  0.00783128  1
  S  S34  1  0.67745450  0.57028206  0.90636626  1
  S  S35  1  0.33986043  0.51364740  0.11783098  1
  S  S36  1  0.58439402  0.96133350  0.63404365  1
  S  S37  1  0.41683281  0.05127878  0.34550824  1
  S  S38  1  0.23294084  0.48599547  0.28520720  1
  S  S39  1  0.77202389  0.40691209  0.69139431  1
  S  S40  1  0.68776139  0.03191795  0.45838928  1
  S  S41  1  0.31478468  0.03067956  0.52843834  1
