# generated using pymatgen
data_Pr2Mn3(SbS3)4
_symmetry_space_group_name_H-M   'P 1'
_cell_length_a   20.02960800
_cell_length_b   3.90410600
_cell_length_c   14.95364829
_cell_angle_alpha   90.00000000
_cell_angle_beta   126.33350609
_cell_angle_gamma   90.00000000
_symmetry_Int_Tables_number   1
_chemical_formula_structural   Pr2Mn3(SbS3)4
_chemical_formula_sum   'Pr4 Mn6 Sb8 S24'
_cell_volume   942.00006694
_cell_formula_units_Z   2
loop_
 _symmetry_equiv_pos_site_id
 _symmetry_equiv_pos_as_xyz
  1  'x, y, z'
loop_
 _atom_site_type_symbol
 _atom_site_label
 _atom_site_symmetry_multiplicity
 _atom_site_fract_x
 _atom_site_fract_y
 _atom_site_fract_z
 _atom_site_occupancy
  Pr  Pr0  1  0.26298209  0.47647631  0.86839978  1
  Pr  Pr1  1  0.73905610  0.49332442  0.13872415  1
  Pr  Pr2  1  0.77536060  0.96047151  0.87566968  1
  Pr  Pr3  1  0.23624672  0.02184894  0.13622759  1
  Mn  Mn4  1  0.27902327  0.54996496  0.57397536  1
  Mn  Mn5  1  0.71150208  0.50489870  0.38984115  1
  Mn  Mn6  1  0.00042542  0.98166753  0.99871365  1
  Mn  Mn7  1  0.80353644  0.97233304  0.61515864  1
  Mn  Mn8  1  0.18876383  0.99148010  0.40803869  1
  Mn  Mn9  1  0.53448901  0.47260173  0.04382546  1
  Sb  Sb10  1  0.90558017  0.02508920  0.47269120  1
  Sb  Sb11  1  0.11537736  0.93304104  0.54956552  1
  Sb  Sb12  1  0.02728911  0.51945171  0.80093790  1
  Sb  Sb13  1  0.97245672  0.49274686  0.20198852  1
  Sb  Sb14  1  0.38546989  0.48882888  0.44431178  1
  Sb  Sb15  1  0.61626416  0.47863888  0.55151355  1
  Sb  Sb16  1  0.53907651  0.96744939  0.82053314  1
  Sb  Sb17  1  0.46241293  0.04633973  0.18454428  1
  S  S18  1  0.94821025  0.98346843  0.81841163  1
  S  S19  1  0.07336071  0.92932992  0.21226089  1
  S  S20  1  0.41897586  0.01442288  0.99188696  1
  S  S21  1  0.60436266  0.98443949  0.04028063  1
  S  S22  1  0.17884308  0.01145759  0.91739864  1
  S  S23  1  0.84119501  0.03610768  0.11944157  1
  S  S24  1  0.10376585  0.49626310  0.66545237  1
  S  S25  1  0.91683611  0.51643915  0.36130531  1
  S  S26  1  0.75637828  0.94859070  0.32146195  1
  S  S27  1  0.26627875  0.99856138  0.68976818  1
  S  S28  1  0.15413942  0.47932103  0.43964784  1
  S  S29  1  0.84675785  0.41383821  0.56033964  1
  S  S30  1  0.46181862  0.50837014  0.84229569  1
  S  S31  1  0.57393535  0.50550035  0.22114933  1
  S  S32  1  0.92192877  0.47113172  0.99164009  1
  S  S33  1  0.08877967  0.53227422  0.00772137  1
  S  S34  1  0.67745414  0.57019712  0.90613969  1
  S  S35  1  0.33967662  0.51364807  0.11756652  1
  S  S36  1  0.58432143  0.96024325  0.63399400  1
  S  S37  1  0.41649853  0.05231030  0.34521278  1
  S  S38  1  0.23339359  0.48619865  0.28528230  1
  S  S39  1  0.77219482  0.40695241  0.69170259  1
  S  S40  1  0.68762986  0.03311934  0.45850158  1
  S  S41  1  0.31484889  0.03208955  0.52861153  1
