# generated using pymatgen
data_Pr2Mn3(SbS3)4
_symmetry_space_group_name_H-M   'P 1'
_cell_length_a   20.02960800
_cell_length_b   3.90410600
_cell_length_c   14.95364829
_cell_angle_alpha   90.00000000
_cell_angle_beta   126.33350609
_cell_angle_gamma   90.00000000
_symmetry_Int_Tables_number   1
_chemical_formula_structural   Pr2Mn3(SbS3)4
_chemical_formula_sum   'Pr4 Mn6 Sb8 S24'
_cell_volume   942.00006694
_cell_formula_units_Z   2
loop_
 _symmetry_equiv_pos_site_id
 _symmetry_equiv_pos_as_xyz
  1  'x, y, z'
loop_
 _atom_site_type_symbol
 _atom_site_label
 _atom_site_symmetry_multiplicity
 _atom_site_fract_x
 _atom_site_fract_y
 _atom_site_fract_z
 _atom_site_occupancy
  Pr  Pr0  1  0.26296407  0.47630082  0.86832147  1
  Pr  Pr1  1  0.73917927  0.49320633  0.13874274  1
  Pr  Pr2  1  0.77524487  0.95954883  0.87560826  1
  Pr  Pr3  1  0.23624298  0.02206857  0.13634551  1
  Mn  Mn4  1  0.27911801  0.55086950  0.57419050  1
  Mn  Mn5  1  0.71135688  0.50409862  0.38966044  1
  Mn  Mn6  1  0.00022624  0.98260135  0.99873371  1
  Mn  Mn7  1  0.80352243  0.97157630  0.61528556  1
  Mn  Mn8  1  0.18847323  0.99174145  0.40777757  1
  Mn  Mn9  1  0.53455582  0.47328509  0.04377570  1
  Sb  Sb10  1  0.90550892  0.02397401  0.47258833  1
  Sb  Sb11  1  0.11544594  0.93306928  0.54951126  1
  Sb  Sb12  1  0.02710944  0.51875838  0.80079429  1
  Sb  Sb13  1  0.97255564  0.49263207  0.20203270  1
  Sb  Sb14  1  0.38538821  0.48943953  0.44420120  1
  Sb  Sb15  1  0.61624606  0.47816266  0.55160640  1
  Sb  Sb16  1  0.53900495  0.96746583  0.82052044  1
  Sb  Sb17  1  0.46228685  0.04613466  0.18458130  1
  S  S18  1  0.94814718  0.98398874  0.81820926  1
  S  S19  1  0.07362398  0.92874477  0.21236111  1
  S  S20  1  0.41865727  0.01471952  0.99189777  1
  S  S21  1  0.60380186  0.98522735  0.04035020  1
  S  S22  1  0.17855450  0.01189164  0.91696779  1
  S  S23  1  0.84145299  0.03532792  0.11955301  1
  S  S24  1  0.10380124  0.49491608  0.66552004  1
  S  S25  1  0.91701535  0.51652548  0.36142082  1
  S  S26  1  0.75656704  0.94846245  0.32125495  1
  S  S27  1  0.26683146  0.00095283  0.68988456  1
  S  S28  1  0.15396979  0.47900982  0.43968707  1
  S  S29  1  0.84657505  0.41312976  0.56045917  1
  S  S30  1  0.46194166  0.50818293  0.84219097  1
  S  S31  1  0.57392033  0.50559767  0.22070641  1
  S  S32  1  0.92199962  0.47033232  0.99177749  1
  S  S33  1  0.08843583  0.53156112  0.00758422  1
  S  S34  1  0.67733098  0.57081232  0.90596058  1
  S  S35  1  0.33953694  0.51367189  0.11735768  1
  S  S36  1  0.58432735  0.95902992  0.63417395  1
  S  S37  1  0.41631313  0.05300140  0.34482706  1
  S  S38  1  0.23364401  0.48685986  0.28495990  1
  S  S39  1  0.77243225  0.40698348  0.69217284  1
  S  S40  1  0.68742516  0.03433315  0.45847002  1
  S  S41  1  0.31486236  0.03352393  0.52869305  1
