# generated using pymatgen
data_Pr2Mn3(SbS3)4
_symmetry_space_group_name_H-M   'P 1'
_cell_length_a   20.02960800
_cell_length_b   3.90410600
_cell_length_c   14.95364829
_cell_angle_alpha   90.00000000
_cell_angle_beta   126.33350609
_cell_angle_gamma   90.00000000
_symmetry_Int_Tables_number   1
_chemical_formula_structural   Pr2Mn3(SbS3)4
_chemical_formula_sum   'Pr4 Mn6 Sb8 S24'
_cell_volume   942.00006694
_cell_formula_units_Z   2
loop_
 _symmetry_equiv_pos_site_id
 _symmetry_equiv_pos_as_xyz
  1  'x, y, z'
loop_
 _atom_site_type_symbol
 _atom_site_label
 _atom_site_symmetry_multiplicity
 _atom_site_fract_x
 _atom_site_fract_y
 _atom_site_fract_z
 _atom_site_occupancy
  Pr  Pr0  1  0.26293384  0.47583114  0.86819043  1
  Pr  Pr1  1  0.73932303  0.49300033  0.13877809  1
  Pr  Pr2  1  0.77510924  0.95873037  0.87552872  1
  Pr  Pr3  1  0.23621577  0.02201589  0.13649530  1
  Mn  Mn4  1  0.27924664  0.55185748  0.57450583  1
  Mn  Mn5  1  0.71113726  0.50304380  0.38938814  1
  Mn  Mn6  1  0.00005594  0.98281505  0.99883383  1
  Mn  Mn7  1  0.80349130  0.97071032  0.61545511  1
  Mn  Mn8  1  0.18818736  0.99202988  0.40761448  1
  Mn  Mn9  1  0.53465850  0.47393986  0.04381169  1
  Sb  Sb10  1  0.90544225  0.02317165  0.47246080  1
  Sb  Sb11  1  0.11553615  0.93293192  0.54952301  1
  Sb  Sb12  1  0.02697668  0.51835741  0.80059951  1
  Sb  Sb13  1  0.97261973  0.49256402  0.20205112  1
  Sb  Sb14  1  0.38536501  0.48985324  0.44414610  1
  Sb  Sb15  1  0.61627938  0.47775228  0.55170511  1
  Sb  Sb16  1  0.53903867  0.96711939  0.82048593  1
  Sb  Sb17  1  0.46221162  0.04611213  0.18458099  1
  S  S18  1  0.94815323  0.98415371  0.81813932  1
  S  S19  1  0.07375594  0.92777586  0.21222241  1
  S  S20  1  0.41842350  0.01468716  0.99209621  1
  S  S21  1  0.60304564  0.98653156  0.04023287  1
  S  S22  1  0.17820842  0.01252822  0.91658649  1
  S  S23  1  0.84157435  0.03406072  0.11950581  1
  S  S24  1  0.10382327  0.49375035  0.66556402  1
  S  S25  1  0.91718960  0.51597466  0.36128783  1
  S  S26  1  0.75666723  0.94784647  0.32107711  1
  S  S27  1  0.26728118  0.00291127  0.68989201  1
  S  S28  1  0.15368363  0.47856494  0.43944916  1
  S  S29  1  0.84639007  0.41167404  0.56070525  1
  S  S30  1  0.46193852  0.50817512  0.84196516  1
  S  S31  1  0.57374904  0.50620287  0.22025852  1
  S  S32  1  0.92203770  0.46943775  0.99194572  1
  S  S33  1  0.08811373  0.53109569  0.00746775  1
  S  S34  1  0.67723670  0.57116453  0.90573166  1
  S  S35  1  0.33935293  0.51362419  0.11716218  1
  S  S36  1  0.58442593  0.95808935  0.63450807  1
  S  S37  1  0.41601232  0.05426496  0.34441966  1
  S  S38  1  0.23402057  0.48794768  0.28476069  1
  S  S39  1  0.77271171  0.40800175  0.69265891  1
  S  S40  1  0.68723844  0.03586260  0.45819503  1
  S  S41  1  0.31490727  0.03431626  0.52858757  1
