# generated using pymatgen
data_Pr2Mn3(SbS3)4
_symmetry_space_group_name_H-M   'P 1'
_cell_length_a   20.02960800
_cell_length_b   3.90410600
_cell_length_c   14.95364829
_cell_angle_alpha   90.00000000
_cell_angle_beta   126.33350609
_cell_angle_gamma   90.00000000
_symmetry_Int_Tables_number   1
_chemical_formula_structural   Pr2Mn3(SbS3)4
_chemical_formula_sum   'Pr4 Mn6 Sb8 S24'
_cell_volume   942.00006694
_cell_formula_units_Z   2
loop_
 _symmetry_equiv_pos_site_id
 _symmetry_equiv_pos_as_xyz
  1  'x, y, z'
loop_
 _atom_site_type_symbol
 _atom_site_label
 _atom_site_symmetry_multiplicity
 _atom_site_fract_x
 _atom_site_fract_y
 _atom_site_fract_z
 _atom_site_occupancy
  Pr  Pr0  1  0.26291097  0.47537492  0.86812602  1
  Pr  Pr1  1  0.73950764  0.49276621  0.13888962  1
  Pr  Pr2  1  0.77500028  0.95772290  0.87546377  1
  Pr  Pr3  1  0.23621866  0.02224636  0.13665495  1
  Mn  Mn4  1  0.27934734  0.55285829  0.57483404  1
  Mn  Mn5  1  0.71095488  0.50177714  0.38906453  1
  Mn  Mn6  1  0.99992123  0.98341233  0.99866931  1
  Mn  Mn7  1  0.80330816  0.96989647  0.61547278  1
  Mn  Mn8  1  0.18788910  0.99267554  0.40744350  1
  Mn  Mn9  1  0.53483308  0.47404679  0.04393380  1
  Sb  Sb10  1  0.90539746  0.02267102  0.47239191  1
  Sb  Sb11  1  0.11559867  0.93267293  0.54951093  1
  Sb  Sb12  1  0.02687332  0.51808294  0.80049101  1
  Sb  Sb13  1  0.97269468  0.49236048  0.20212945  1
  Sb  Sb14  1  0.38533096  0.49072689  0.44407542  1
  Sb  Sb15  1  0.61626673  0.47743949  0.55163297  1
  Sb  Sb16  1  0.53901072  0.96696848  0.82042014  1
  Sb  Sb17  1  0.46217311  0.04578018  0.18465419  1
  S  S18  1  0.94797888  0.98374944  0.81788900  1
  S  S19  1  0.07375204  0.92740305  0.21198447  1
  S  S20  1  0.41818540  0.01557100  0.99243488  1
  S  S21  1  0.60228940  0.98786829  0.04014908  1
  S  S22  1  0.17800592  0.01239918  0.91638566  1
  S  S23  1  0.84171253  0.03300801  0.11943617  1
  S  S24  1  0.10362820  0.49296578  0.66538274  1
  S  S25  1  0.91747721  0.51547574  0.36140826  1
  S  S26  1  0.75680404  0.94729546  0.32089092  1
  S  S27  1  0.26777844  0.00481005  0.68999869  1
  S  S28  1  0.15324309  0.47838589  0.43924948  1
  S  S29  1  0.84636049  0.41039512  0.56123185  1
  S  S30  1  0.46178304  0.50813092  0.84177467  1
  S  S31  1  0.57365531  0.50738805  0.21998131  1
  S  S32  1  0.92198404  0.46824887  0.99195869  1
  S  S33  1  0.08783546  0.53135265  0.00731035  1
  S  S34  1  0.67716970  0.57121832  0.90538768  1
  S  S35  1  0.33915977  0.51296942  0.11697098  1
  S  S36  1  0.58451024  0.95763015  0.63475610  1
  S  S37  1  0.41594968  0.05556632  0.34410629  1
  S  S38  1  0.23428840  0.48891378  0.28442894  1
  S  S39  1  0.77301994  0.40878677  0.69301664  1
  S  S40  1  0.68716336  0.03690301  0.45796265  1
  S  S41  1  0.31498497  0.03526549  0.52864089  1
