# generated using pymatgen
data_Pr2Mn3(SbS3)4
_symmetry_space_group_name_H-M   'P 1'
_cell_length_a   20.02960800
_cell_length_b   3.90410600
_cell_length_c   14.95364829
_cell_angle_alpha   90.00000000
_cell_angle_beta   126.33350609
_cell_angle_gamma   90.00000000
_symmetry_Int_Tables_number   1
_chemical_formula_structural   Pr2Mn3(SbS3)4
_chemical_formula_sum   'Pr4 Mn6 Sb8 S24'
_cell_volume   942.00006694
_cell_formula_units_Z   2
loop_
 _symmetry_equiv_pos_site_id
 _symmetry_equiv_pos_as_xyz
  1  'x, y, z'
loop_
 _atom_site_type_symbol
 _atom_site_label
 _atom_site_symmetry_multiplicity
 _atom_site_fract_x
 _atom_site_fract_y
 _atom_site_fract_z
 _atom_site_occupancy
  Pr  Pr0  1  0.26288734  0.47480477  0.86804704  1
  Pr  Pr1  1  0.73963513  0.49278271  0.13894014  1
  Pr  Pr2  1  0.77485454  0.95675235  0.87536642  1
  Pr  Pr3  1  0.23614384  0.02247730  0.13671349  1
  Mn  Mn4  1  0.27936681  0.55387136  0.57519278  1
  Mn  Mn5  1  0.71086186  0.50056682  0.38884460  1
  Mn  Mn6  1  0.99980493  0.98365210  0.99860267  1
  Mn  Mn7  1  0.80321514  0.96855450  0.61550221  1
  Mn  Mn8  1  0.18755420  0.99368421  0.40721038  1
  Mn  Mn9  1  0.53495360  0.47486690  0.04391844  1
  Sb  Sb10  1  0.90534095  0.02224308  0.47231116  1
  Sb  Sb11  1  0.11559058  0.93269233  0.54947451  1
  Sb  Sb12  1  0.02671297  0.51754236  0.80030751  1
  Sb  Sb13  1  0.97280530  0.49239445  0.20220309  1
  Sb  Sb14  1  0.38534403  0.49197406  0.44398566  1
  Sb  Sb15  1  0.61622884  0.47724690  0.55157660  1
  Sb  Sb16  1  0.53904107  0.96672675  0.82047918  1
  Sb  Sb17  1  0.46209418  0.04539820  0.18470971  1
  S  S18  1  0.94785168  0.98325751  0.81766734  1
  S  S19  1  0.07364307  0.92698346  0.21174571  1
  S  S20  1  0.41818383  0.01634889  0.99264904  1
  S  S21  1  0.60173464  0.98862962  0.04021238  1
  S  S22  1  0.17806412  0.01176357  0.91647256  1
  S  S23  1  0.84176161  0.03229622  0.11939834  1
  S  S24  1  0.10329757  0.49154126  0.66515670  1
  S  S25  1  0.91781109  0.51488404  0.36165577  1
  S  S26  1  0.75679981  0.94688383  0.32063903  1
  S  S27  1  0.26827782  0.00623469  0.69026960  1
  S  S28  1  0.15278188  0.47803960  0.43900726  1
  S  S29  1  0.84619493  0.40959147  0.56154149  1
  S  S30  1  0.46157489  0.50794652  0.84149642  1
  S  S31  1  0.57347171  0.50891545  0.21958207  1
  S  S32  1  0.92188598  0.46743374  0.99192709  1
  S  S33  1  0.08769727  0.53121487  0.00722093  1
  S  S34  1  0.67706789  0.57128050  0.90496197  1
  S  S35  1  0.33908699  0.51185490  0.11690577  1
  S  S36  1  0.58458708  0.95700521  0.63506811  1
  S  S37  1  0.41599167  0.05675345  0.34382508  1
  S  S38  1  0.23469635  0.48936093  0.28434907  1
  S  S39  1  0.77335645  0.41006387  0.69331410  1
  S  S40  1  0.68708812  0.03786805  0.45794683  1
  S  S41  1  0.31495864  0.03645076  0.52860677  1
