# generated using pymatgen
data_Pr2Mn3(SbS3)4
_symmetry_space_group_name_H-M   'P 1'
_cell_length_a   20.02960800
_cell_length_b   3.90410600
_cell_length_c   14.95364829
_cell_angle_alpha   90.00000000
_cell_angle_beta   126.33350609
_cell_angle_gamma   90.00000000
_symmetry_Int_Tables_number   1
_chemical_formula_structural   Pr2Mn3(SbS3)4
_chemical_formula_sum   'Pr4 Mn6 Sb8 S24'
_cell_volume   942.00006694
_cell_formula_units_Z   2
loop_
 _symmetry_equiv_pos_site_id
 _symmetry_equiv_pos_as_xyz
  1  'x, y, z'
loop_
 _atom_site_type_symbol
 _atom_site_label
 _atom_site_symmetry_multiplicity
 _atom_site_fract_x
 _atom_site_fract_y
 _atom_site_fract_z
 _atom_site_occupancy
  Pr  Pr0  1  0.26951862  0.50775682  0.87429748  1
  Pr  Pr1  1  0.73404845  0.52071291  0.13462780  1
  Pr  Pr2  1  0.76434022  0.03213717  0.87118231  1
  Pr  Pr3  1  0.22816458  0.95941625  0.12696513  1
  Mn  Mn4  1  0.29707987  0.45569854  0.60810549  1
  Mn  Mn5  1  0.68599293  0.45494520  0.36456253  1
  Mn  Mn6  1  0.99871485  0.98126834  0.00663362  1
  Mn  Mn7  1  0.78989676  0.02098705  0.61391387  1
  Mn  Mn8  1  0.19905038  0.02806628  0.37189963  1
  Mn  Mn9  1  0.47956547  0.47392819  0.97721881  1
  Sb  Sb10  1  0.89209436  0.97080507  0.44938377  1
  Sb  Sb11  1  0.11356387  0.97602744  0.54842340  1
  Sb  Sb12  1  0.03904643  0.51820521  0.82779997  1
  Sb  Sb13  1  0.96804780  0.48297878  0.19274986  1
  Sb  Sb14  1  0.39874436  0.49283845  0.45416653  1
  Sb  Sb15  1  0.61321117  0.48554616  0.54781949  1
  Sb  Sb16  1  0.52957354  0.97294304  0.80636853  1
  Sb  Sb17  1  0.46543884  0.03343267  0.18469520  1
  S  S18  1  0.93692127  0.99160046  0.80193563  1
  S  S19  1  0.06638312  0.98565590  0.20174162  1
  S  S20  1  0.41923419  0.97766840  0.97573161  1
  S  S21  1  0.58456461  0.02262651  0.00753818  1
  S  S22  1  0.16092983  0.02385906  0.89392391  1
  S  S23  1  0.82895427  0.97535769  0.10441897  1
  S  S24  1  0.08997743  0.49867173  0.63713744  1
  S  S25  1  0.91519030  0.50789020  0.35636888  1
  S  S26  1  0.73505366  0.99242871  0.29871298  1
  S  S27  1  0.26401560  0.01433179  0.70425434  1
  S  S28  1  0.17210543  0.52071704  0.44290215  1
  S  S29  1  0.80673521  0.52897877  0.53814671  1
  S  S30  1  0.43233371  0.47298457  0.79657499  1
  S  S31  1  0.55396883  0.48885614  0.17587508  1
  S  S32  1  0.91884064  0.52433428  0.98678553  1
  S  S33  1  0.08432399  0.49418246  0.02256909  1
  S  S34  1  0.66884966  0.55675089  0.89180473  1
  S  S35  1  0.32940244  0.46054609  0.10138648  1
  S  S36  1  0.58883175  0.98768114  0.64132415  1
  S  S37  1  0.39316379  0.99998586  0.33104477  1
  S  S38  1  0.24493506  0.47152260  0.31557661  1
  S  S39  1  0.76370098  0.48555185  0.69360734  1
  S  S40  1  0.65688989  0.99164238  0.43274544  1
  S  S41  1  0.32952404  0.98016509  0.55477640  1
