# generated using pymatgen
data_Pr2Mn3(SbS3)4
_symmetry_space_group_name_H-M   'P 1'
_cell_length_a   20.02960800
_cell_length_b   3.90410600
_cell_length_c   14.95364829
_cell_angle_alpha   90.00000000
_cell_angle_beta   126.33350609
_cell_angle_gamma   90.00000000
_symmetry_Int_Tables_number   1
_chemical_formula_structural   Pr2Mn3(SbS3)4
_chemical_formula_sum   'Pr4 Mn6 Sb8 S24'
_cell_volume   942.00006694
_cell_formula_units_Z   2
loop_
 _symmetry_equiv_pos_site_id
 _symmetry_equiv_pos_as_xyz
  1  'x, y, z'
loop_
 _atom_site_type_symbol
 _atom_site_label
 _atom_site_symmetry_multiplicity
 _atom_site_fract_x
 _atom_site_fract_y
 _atom_site_fract_z
 _atom_site_occupancy
  Pr  Pr0  1  0.26282645  0.47424872  0.86801799  1
  Pr  Pr1  1  0.73974991  0.49284302  0.13895256  1
  Pr  Pr2  1  0.77476097  0.95583007  0.87529618  1
  Pr  Pr3  1  0.23609171  0.02227313  0.13680590  1
  Mn  Mn4  1  0.27934706  0.55451811  0.57533166  1
  Mn  Mn5  1  0.71086753  0.49951478  0.38869785  1
  Mn  Mn6  1  0.99969164  0.98392369  0.99852295  1
  Mn  Mn7  1  0.80308828  0.96784232  0.61562726  1
  Mn  Mn8  1  0.18728482  0.99465435  0.40692131  1
  Mn  Mn9  1  0.53514104  0.47589338  0.04387434  1
  Sb  Sb10  1  0.90528389  0.02185845  0.47217096  1
  Sb  Sb11  1  0.11541820  0.93287783  0.54939658  1
  Sb  Sb12  1  0.02664348  0.51716349  0.80022030  1
  Sb  Sb13  1  0.97289610  0.49257780  0.20225972  1
  Sb  Sb14  1  0.38535349  0.49299061  0.44387424  1
  Sb  Sb15  1  0.61614916  0.47704554  0.55144564  1
  Sb  Sb16  1  0.53915498  0.96647978  0.82055948  1
  Sb  Sb17  1  0.46205165  0.04495985  0.18485035  1
  S  S18  1  0.94773237  0.98318013  0.81756032  1
  S  S19  1  0.07352092  0.92707264  0.21151547  1
  S  S20  1  0.41824291  0.01705431  0.99284588  1
  S  S21  1  0.60124047  0.98911670  0.04029442  1
  S  S22  1  0.17817788  0.01104591  0.91652487  1
  S  S23  1  0.84194959  0.03118561  0.11933967  1
  S  S24  1  0.10292153  0.48961394  0.66494443  1
  S  S25  1  0.91807013  0.51394088  0.36189978  1
  S  S26  1  0.75668835  0.94697541  0.32029459  1
  S  S27  1  0.26868967  0.00804555  0.69037796  1
  S  S28  1  0.15230264  0.47820979  0.43876032  1
  S  S29  1  0.84595616  0.40933202  0.56192440  1
  S  S30  1  0.46136841  0.50803315  0.84124185  1
  S  S31  1  0.57338133  0.51039443  0.21923173  1
  S  S32  1  0.92185229  0.46652822  0.99191496  1
  S  S33  1  0.08733295  0.53113427  0.00714852  1
  S  S34  1  0.67701142  0.57143645  0.90463087  1
  S  S35  1  0.33896454  0.51072873  0.11683813  1
  S  S36  1  0.58453651  0.95686190  0.63535686  1
  S  S37  1  0.41603302  0.05806595  0.34369826  1
  S  S38  1  0.23494420  0.49004851  0.28416873  1
  S  S39  1  0.77357678  0.41152593  0.69356989  1
  S  S40  1  0.68692582  0.03911812  0.45776179  1
  S  S41  1  0.31483844  0.03787310  0.52848883  1
