# generated using pymatgen
data_Pr2Mn3(SbS3)4
_symmetry_space_group_name_H-M   'P 1'
_cell_length_a   20.02960800
_cell_length_b   3.90410600
_cell_length_c   14.95364829
_cell_angle_alpha   90.00000000
_cell_angle_beta   126.33350609
_cell_angle_gamma   90.00000000
_symmetry_Int_Tables_number   1
_chemical_formula_structural   Pr2Mn3(SbS3)4
_chemical_formula_sum   'Pr4 Mn6 Sb8 S24'
_cell_volume   942.00006694
_cell_formula_units_Z   2
loop_
 _symmetry_equiv_pos_site_id
 _symmetry_equiv_pos_as_xyz
  1  'x, y, z'
loop_
 _atom_site_type_symbol
 _atom_site_label
 _atom_site_symmetry_multiplicity
 _atom_site_fract_x
 _atom_site_fract_y
 _atom_site_fract_z
 _atom_site_occupancy
  Pr  Pr0  1  0.26271667  0.47379713  0.86798827  1
  Pr  Pr1  1  0.73985031  0.49297846  0.13898726  1
  Pr  Pr2  1  0.77464698  0.95520676  0.87521307  1
  Pr  Pr3  1  0.23607665  0.02209474  0.13688486  1
  Mn  Mn4  1  0.27934975  0.55504315  0.57559407  1
  Mn  Mn5  1  0.71084675  0.49873305  0.38866938  1
  Mn  Mn6  1  0.99956786  0.98392744  0.99839339  1
  Mn  Mn7  1  0.80286569  0.96730785  0.61562877  1
  Mn  Mn8  1  0.18697135  0.99539021  0.40644670  1
  Mn  Mn9  1  0.53532366  0.47624247  0.04395110  1
  Sb  Sb10  1  0.90522074  0.02151404  0.47195861  1
  Sb  Sb11  1  0.11527795  0.93329412  0.54940323  1
  Sb  Sb12  1  0.02655442  0.51705381  0.80013514  1
  Sb  Sb13  1  0.97306191  0.49297910  0.20240301  1
  Sb  Sb14  1  0.38538182  0.49391190  0.44380276  1
  Sb  Sb15  1  0.61602190  0.47646192  0.55127355  1
  Sb  Sb16  1  0.53920938  0.96628603  0.82050478  1
  Sb  Sb17  1  0.46192222  0.04422846  0.18487365  1
  S  S18  1  0.94773359  0.98316314  0.81750786  1
  S  S19  1  0.07344379  0.92724707  0.21130996  1
  S  S20  1  0.41823946  0.01811329  0.99312301  1
  S  S21  1  0.60099456  0.98897986  0.04035210  1
  S  S22  1  0.17836670  0.01079144  0.91666299  1
  S  S23  1  0.84226447  0.03018320  0.11937096  1
  S  S24  1  0.10270628  0.48818767  0.66478830  1
  S  S25  1  0.91845724  0.51320387  0.36227077  1
  S  S26  1  0.75653282  0.94655746  0.32004404  1
  S  S27  1  0.26907380  0.00920851  0.69053153  1
  S  S28  1  0.15194281  0.47735559  0.43873268  1
  S  S29  1  0.84561667  0.40886823  0.56219178  1
  S  S30  1  0.46126152  0.50761080  0.84113865  1
  S  S31  1  0.57340337  0.51137224  0.21895715  1
  S  S32  1  0.92196797  0.46540143  0.99206309  1
  S  S33  1  0.08704972  0.53036444  0.00690730  1
  S  S34  1  0.67691301  0.57158130  0.90431391  1
  S  S35  1  0.33893043  0.50946031  0.11696923  1
  S  S36  1  0.58456052  0.95705936  0.63576350  1
  S  S37  1  0.41604379  0.05882705  0.34337708  1
  S  S38  1  0.23502147  0.49058057  0.28388998  1
  S  S39  1  0.77364456  0.41265867  0.69383178  1
  S  S40  1  0.68674723  0.03957359  0.45762234  1
  S  S41  1  0.31479786  0.03956394  0.52838825  1
