# generated using pymatgen
data_Pr2Mn3(SbS3)4
_symmetry_space_group_name_H-M   'P 1'
_cell_length_a   20.02960800
_cell_length_b   3.90410600
_cell_length_c   14.95364829
_cell_angle_alpha   90.00000000
_cell_angle_beta   126.33350609
_cell_angle_gamma   90.00000000
_symmetry_Int_Tables_number   1
_chemical_formula_structural   Pr2Mn3(SbS3)4
_chemical_formula_sum   'Pr4 Mn6 Sb8 S24'
_cell_volume   942.00006694
_cell_formula_units_Z   2
loop_
 _symmetry_equiv_pos_site_id
 _symmetry_equiv_pos_as_xyz
  1  'x, y, z'
loop_
 _atom_site_type_symbol
 _atom_site_label
 _atom_site_symmetry_multiplicity
 _atom_site_fract_x
 _atom_site_fract_y
 _atom_site_fract_z
 _atom_site_occupancy
  Pr  Pr0  1  0.26264219  0.47332893  0.86795466  1
  Pr  Pr1  1  0.73991648  0.49308913  0.13904311  1
  Pr  Pr2  1  0.77453756  0.95458894  0.87522427  1
  Pr  Pr3  1  0.23606706  0.02185773  0.13700229  1
  Mn  Mn4  1  0.27942809  0.55547387  0.57589603  1
  Mn  Mn5  1  0.71086093  0.49749896  0.38867378  1
  Mn  Mn6  1  0.99938901  0.98430785  0.99808457  1
  Mn  Mn7  1  0.80269119  0.96660232  0.61572998  1
  Mn  Mn8  1  0.18656646  0.99610972  0.40576543  1
  Mn  Mn9  1  0.53549201  0.47691480  0.04394049  1
  Sb  Sb10  1  0.90521888  0.02105994  0.47177228  1
  Sb  Sb11  1  0.11519964  0.93377410  0.54947602  1
  Sb  Sb12  1  0.02650026  0.51675655  0.80021282  1
  Sb  Sb13  1  0.97323854  0.49348965  0.20255783  1
  Sb  Sb14  1  0.38541051  0.49490037  0.44373920  1
  Sb  Sb15  1  0.61591368  0.47587104  0.55107409  1
  Sb  Sb16  1  0.53927378  0.96577469  0.82042844  1
  Sb  Sb17  1  0.46173920  0.04346620  0.18483847  1
  S  S18  1  0.94778392  0.98303137  0.81770128  1
  S  S19  1  0.07350795  0.92821054  0.21126189  1
  S  S20  1  0.41814957  0.01836561  0.99338709  1
  S  S21  1  0.60074950  0.98904502  0.04050151  1
  S  S22  1  0.17852976  0.00992263  0.91674273  1
  S  S23  1  0.84250221  0.02956955  0.11941802  1
  S  S24  1  0.10232217  0.48741562  0.66450205  1
  S  S25  1  0.91879933  0.51240478  0.36269023  1
  S  S26  1  0.75632585  0.94621215  0.31966509  1
  S  S27  1  0.26929395  0.00946380  0.69064061  1
  S  S28  1  0.15150182  0.47697363  0.43848056  1
  S  S29  1  0.84535203  0.40841895  0.56241784  1
  S  S30  1  0.46112534  0.50788310  0.84102714  1
  S  S31  1  0.57323540  0.51215284  0.21847150  1
  S  S32  1  0.92212360  0.46392937  0.99223597  1
  S  S33  1  0.08685821  0.52945399  0.00666383  1
  S  S34  1  0.67686482  0.57192841  0.90404739  1
  S  S35  1  0.33878015  0.50849662  0.11691157  1
  S  S36  1  0.58467532  0.95714518  0.63603410  1
  S  S37  1  0.41599513  0.06028411  0.34304130  1
  S  S38  1  0.23509876  0.49133731  0.28365061  1
  S  S39  1  0.77355059  0.41401045  0.69375115  1
  S  S40  1  0.68658271  0.04011431  0.45738244  1
  S  S41  1  0.31491902  0.04115062  0.52831024  1
