# generated using pymatgen
data_Pr2Mn3(SbS3)4
_symmetry_space_group_name_H-M   'P 1'
_cell_length_a   20.02960800
_cell_length_b   3.90410600
_cell_length_c   14.95364829
_cell_angle_alpha   90.00000000
_cell_angle_beta   126.33350609
_cell_angle_gamma   90.00000000
_symmetry_Int_Tables_number   1
_chemical_formula_structural   Pr2Mn3(SbS3)4
_chemical_formula_sum   'Pr4 Mn6 Sb8 S24'
_cell_volume   942.00006694
_cell_formula_units_Z   2
loop_
 _symmetry_equiv_pos_site_id
 _symmetry_equiv_pos_as_xyz
  1  'x, y, z'
loop_
 _atom_site_type_symbol
 _atom_site_label
 _atom_site_symmetry_multiplicity
 _atom_site_fract_x
 _atom_site_fract_y
 _atom_site_fract_z
 _atom_site_occupancy
  Pr  Pr0  1  0.26252651  0.47282509  0.86781928  1
  Pr  Pr1  1  0.73992522  0.49288118  0.13906355  1
  Pr  Pr2  1  0.77441317  0.95411866  0.87521181  1
  Pr  Pr3  1  0.23605450  0.02170112  0.13704422  1
  Mn  Mn4  1  0.27943918  0.55564772  0.57620060  1
  Mn  Mn5  1  0.71081747  0.49646878  0.38873252  1
  Mn  Mn6  1  0.99917383  0.98473483  0.99779977  1
  Mn  Mn7  1  0.80248260  0.96567843  0.61575143  1
  Mn  Mn8  1  0.18618362  0.99604042  0.40511494  1
  Mn  Mn9  1  0.53571273  0.47750152  0.04394509  1
  Sb  Sb10  1  0.90526202  0.02065699  0.47157803  1
  Sb  Sb11  1  0.11506279  0.93395658  0.54952331  1
  Sb  Sb12  1  0.02640607  0.51649280  0.80024225  1
  Sb  Sb13  1  0.97340633  0.49414963  0.20272289  1
  Sb  Sb14  1  0.38544876  0.49583837  0.44363727  1
  Sb  Sb15  1  0.61578924  0.47560677  0.55085773  1
  Sb  Sb16  1  0.53935289  0.96561665  0.82040625  1
  Sb  Sb17  1  0.46162763  0.04280967  0.18484220  1
  S  S18  1  0.94788988  0.98277678  0.81813268  1
  S  S19  1  0.07357202  0.92929643  0.21114970  1
  S  S20  1  0.41813010  0.01855103  0.99342046  1
  S  S21  1  0.60059867  0.98850145  0.04071373  1
  S  S22  1  0.17862361  0.00933148  0.91676577  1
  S  S23  1  0.84268966  0.02870131  0.11933485  1
  S  S24  1  0.10208210  0.48643384  0.66409080  1
  S  S25  1  0.91889128  0.51175871  0.36304369  1
  S  S26  1  0.75608339  0.94619810  0.31940486  1
  S  S27  1  0.26946390  0.00949637  0.69069806  1
  S  S28  1  0.15095058  0.47687409  0.43825294  1
  S  S29  1  0.84516259  0.40900509  0.56252869  1
  S  S30  1  0.46090402  0.50835383  0.84077820  1
  S  S31  1  0.57312936  0.51311276  0.21801736  1
  S  S32  1  0.92211667  0.46264588  0.99228888  1
  S  S33  1  0.08677339  0.52871364  0.00670554  1
  S  S34  1  0.67692685  0.57239903  0.90401901  1
  S  S35  1  0.33861834  0.50768564  0.11667259  1
  S  S36  1  0.58457183  0.95694441  0.63603837  1
  S  S37  1  0.41588009  0.06211233  0.34256187  1
  S  S38  1  0.23519116  0.49179390  0.28325338  1
  S  S39  1  0.77343278  0.41551478  0.69373063  1
  S  S40  1  0.68650347  0.04102993  0.45706272  1
  S  S41  1  0.31514081  0.04220856  0.52837086  1
