# generated using pymatgen
data_Pr2Mn3(SbS3)4
_symmetry_space_group_name_H-M   'P 1'
_cell_length_a   20.02960800
_cell_length_b   3.90410600
_cell_length_c   14.95364829
_cell_angle_alpha   90.00000000
_cell_angle_beta   126.33350609
_cell_angle_gamma   90.00000000
_symmetry_Int_Tables_number   1
_chemical_formula_structural   Pr2Mn3(SbS3)4
_chemical_formula_sum   'Pr4 Mn6 Sb8 S24'
_cell_volume   942.00006694
_cell_formula_units_Z   2
loop_
 _symmetry_equiv_pos_site_id
 _symmetry_equiv_pos_as_xyz
  1  'x, y, z'
loop_
 _atom_site_type_symbol
 _atom_site_label
 _atom_site_symmetry_multiplicity
 _atom_site_fract_x
 _atom_site_fract_y
 _atom_site_fract_z
 _atom_site_occupancy
  Pr  Pr0  1  0.26248891  0.47226085  0.86777687  1
  Pr  Pr1  1  0.73999667  0.49274310  0.13919547  1
  Pr  Pr2  1  0.77429371  0.95350214  0.87509665  1
  Pr  Pr3  1  0.23601584  0.02168646  0.13710802  1
  Mn  Mn4  1  0.27951679  0.55571627  0.57659053  1
  Mn  Mn5  1  0.71074116  0.49549241  0.38874223  1
  Mn  Mn6  1  0.99888009  0.98432280  0.99746732  1
  Mn  Mn7  1  0.80229574  0.96471671  0.61572321  1
  Mn  Mn8  1  0.18578002  0.99597778  0.40458812  1
  Mn  Mn9  1  0.53592178  0.47831311  0.04396693  1
  Sb  Sb10  1  0.90530654  0.02015917  0.47130064  1
  Sb  Sb11  1  0.11504179  0.93405327  0.54952678  1
  Sb  Sb12  1  0.02630610  0.51631574  0.80020348  1
  Sb  Sb13  1  0.97349584  0.49461322  0.20273770  1
  Sb  Sb14  1  0.38547894  0.49677997  0.44354670  1
  Sb  Sb15  1  0.61560853  0.47523160  0.55058018  1
  Sb  Sb16  1  0.53936903  0.96553756  0.82035375  1
  Sb  Sb17  1  0.46154709  0.04238711  0.18477425  1
  S  S18  1  0.94794275  0.98283641  0.81854603  1
  S  S19  1  0.07349821  0.93021889  0.21099771  1
  S  S20  1  0.41795636  0.01884568  0.99338595  1
  S  S21  1  0.60067001  0.98803457  0.04097211  1
  S  S22  1  0.17860581  0.00850876  0.91667954  1
  S  S23  1  0.84291067  0.02741060  0.11931698  1
  S  S24  1  0.10177489  0.48552475  0.66355941  1
  S  S25  1  0.91899048  0.51164570  0.36339930  1
  S  S26  1  0.75581251  0.94636700  0.31907008  1
  S  S27  1  0.26967076  0.00871167  0.69083675  1
  S  S28  1  0.15048955  0.47712419  0.43804748  1
  S  S29  1  0.84493672  0.41033040  0.56268871  1
  S  S30  1  0.46066905  0.50878334  0.84053239  1
  S  S31  1  0.57294741  0.51365175  0.21737551  1
  S  S32  1  0.92209196  0.46104482  0.99226885  1
  S  S33  1  0.08667851  0.52773067  0.00678548  1
  S  S34  1  0.67712796  0.57324953  0.90416378  1
  S  S35  1  0.33835545  0.50722182  0.11621036  1
  S  S36  1  0.58461519  0.95644215  0.63608599  1
  S  S37  1  0.41585376  0.06391028  0.34218323  1
  S  S38  1  0.23540224  0.49209886  0.28318038  1
  S  S39  1  0.77325198  0.41722636  0.69376246  1
  S  S40  1  0.68644414  0.04224279  0.45679878  1
  S  S41  1  0.31534133  0.04340892  0.52841337  1
