# generated using pymatgen
data_Pr2Mn3(SbS3)4
_symmetry_space_group_name_H-M   'P 1'
_cell_length_a   20.02960800
_cell_length_b   3.90410600
_cell_length_c   14.95364829
_cell_angle_alpha   90.00000000
_cell_angle_beta   126.33350609
_cell_angle_gamma   90.00000000
_symmetry_Int_Tables_number   1
_chemical_formula_structural   Pr2Mn3(SbS3)4
_chemical_formula_sum   'Pr4 Mn6 Sb8 S24'
_cell_volume   942.00006694
_cell_formula_units_Z   2
loop_
 _symmetry_equiv_pos_site_id
 _symmetry_equiv_pos_as_xyz
  1  'x, y, z'
loop_
 _atom_site_type_symbol
 _atom_site_label
 _atom_site_symmetry_multiplicity
 _atom_site_fract_x
 _atom_site_fract_y
 _atom_site_fract_z
 _atom_site_occupancy
  Pr  Pr0  1  0.26246039  0.47187445  0.86775087  1
  Pr  Pr1  1  0.74007123  0.49279920  0.13933167  1
  Pr  Pr2  1  0.77424902  0.95281203  0.87499895  1
  Pr  Pr3  1  0.23602064  0.02185686  0.13726467  1
  Mn  Mn4  1  0.27959881  0.55585233  0.57702471  1
  Mn  Mn5  1  0.71063206  0.49492792  0.38868094  1
  Mn  Mn6  1  0.99879750  0.98428419  0.99734404  1
  Mn  Mn7  1  0.80216091  0.96363990  0.61572912  1
  Mn  Mn8  1  0.18538471  0.99603104  0.40404289  1
  Mn  Mn9  1  0.53621764  0.47964419  0.04405153  1
  Sb  Sb10  1  0.90532055  0.01979750  0.47104392  1
  Sb  Sb11  1  0.11504909  0.93422272  0.54964414  1
  Sb  Sb12  1  0.02623527  0.51631212  0.80014008  1
  Sb  Sb13  1  0.97355022  0.49513583  0.20275893  1
  Sb  Sb14  1  0.38545946  0.49792719  0.44340456  1
  Sb  Sb15  1  0.61542685  0.47469175  0.55034425  1
  Sb  Sb16  1  0.53938435  0.96527385  0.82032565  1
  Sb  Sb17  1  0.46149789  0.04194550  0.18469024  1
  S  S18  1  0.94792396  0.98335184  0.81912567  1
  S  S19  1  0.07346045  0.93087512  0.21071550  1
  S  S20  1  0.41778730  0.01976441  0.99352879  1
  S  S21  1  0.60074289  0.98723651  0.04120188  1
  S  S22  1  0.17843110  0.00743374  0.91652664  1
  S  S23  1  0.84314838  0.02699394  0.11942326  1
  S  S24  1  0.10142807  0.48494799  0.66290718  1
  S  S25  1  0.91920363  0.51143630  0.36404363  1
  S  S26  1  0.75547178  0.94664265  0.31866141  1
  S  S27  1  0.26983998  0.00803821  0.69097939  1
  S  S28  1  0.15008576  0.47761406  0.43786149  1
  S  S29  1  0.84483116  0.41134095  0.56297612  1
  S  S30  1  0.46052997  0.50910005  0.84053103  1
  S  S31  1  0.57280471  0.51431285  0.21692511  1
  S  S32  1  0.92195958  0.45971448  0.99203687  1
  S  S33  1  0.08652605  0.52699529  0.00691269  1
  S  S34  1  0.67733985  0.57346248  0.90445159  1
  S  S35  1  0.33828997  0.50630395  0.11581480  1
  S  S36  1  0.58465866  0.95610058  0.63613573  1
  S  S37  1  0.41597059  0.06567243  0.34203087  1
  S  S38  1  0.23556009  0.49308064  0.28307946  1
  S  S39  1  0.77311012  0.41900094  0.69378805  1
  S  S40  1  0.68646613  0.04365254  0.45650115  1
  S  S41  1  0.31544246  0.04378538  0.52860353  1
