# generated using pymatgen
data_Pr2Mn3(SbS3)4
_symmetry_space_group_name_H-M   'P 1'
_cell_length_a   20.02960800
_cell_length_b   3.90410600
_cell_length_c   14.95364829
_cell_angle_alpha   90.00000000
_cell_angle_beta   126.33350609
_cell_angle_gamma   90.00000000
_symmetry_Int_Tables_number   1
_chemical_formula_structural   Pr2Mn3(SbS3)4
_chemical_formula_sum   'Pr4 Mn6 Sb8 S24'
_cell_volume   942.00006694
_cell_formula_units_Z   2
loop_
 _symmetry_equiv_pos_site_id
 _symmetry_equiv_pos_as_xyz
  1  'x, y, z'
loop_
 _atom_site_type_symbol
 _atom_site_label
 _atom_site_symmetry_multiplicity
 _atom_site_fract_x
 _atom_site_fract_y
 _atom_site_fract_z
 _atom_site_occupancy
  Pr  Pr0  1  0.26251600  0.47122259  0.86777767  1
  Pr  Pr1  1  0.74016402  0.49303745  0.13944809  1
  Pr  Pr2  1  0.77412832  0.95186785  0.87478723  1
  Pr  Pr3  1  0.23605738  0.02209363  0.13744444  1
  Mn  Mn4  1  0.27967833  0.55588114  0.57738456  1
  Mn  Mn5  1  0.71070008  0.49469300  0.38870530  1
  Mn  Mn6  1  0.99875069  0.98431233  0.99716597  1
  Mn  Mn7  1  0.80208106  0.96276210  0.61579280  1
  Mn  Mn8  1  0.18475469  0.99554617  0.40337402  1
  Mn  Mn9  1  0.53652134  0.48054621  0.04416132  1
  Sb  Sb10  1  0.90541341  0.01952632  0.47095767  1
  Sb  Sb11  1  0.11507371  0.93434894  0.54975599  1
  Sb  Sb12  1  0.02606148  0.51647126  0.79998831  1
  Sb  Sb13  1  0.97361208  0.49547619  0.20279074  1
  Sb  Sb14  1  0.38548454  0.49893405  0.44326443  1
  Sb  Sb15  1  0.61531541  0.47410631  0.55012953  1
  Sb  Sb16  1  0.53938313  0.96523426  0.82023825  1
  Sb  Sb17  1  0.46146156  0.04145317  0.18463185  1
  S  S18  1  0.94783254  0.98387186  0.81954566  1
  S  S19  1  0.07335260  0.93122984  0.21039735  1
  S  S20  1  0.41742754  0.02046966  0.99333692  1
  S  S21  1  0.60087602  0.98665536  0.04127143  1
  S  S22  1  0.17824462  0.00668506  0.91630293  1
  S  S23  1  0.84348289  0.02641255  0.11965175  1
  S  S24  1  0.10107405  0.48472703  0.66241780  1
  S  S25  1  0.91932097  0.51148777  0.36444898  1
  S  S26  1  0.75524258  0.94656866  0.31846979  1
  S  S27  1  0.26983443  0.00816419  0.69094916  1
  S  S28  1  0.14961118  0.47695194  0.43766588  1
  S  S29  1  0.84476911  0.41227444  0.56335811  1
  S  S30  1  0.46030068  0.50936542  0.84046128  1
  S  S31  1  0.57271641  0.51480368  0.21657623  1
  S  S32  1  0.92197848  0.45837321  0.99193065  1
  S  S33  1  0.08634228  0.52585803  0.00703226  1
  S  S34  1  0.67762725  0.57368907  0.90500440  1
  S  S35  1  0.33831492  0.50497003  0.11548868  1
  S  S36  1  0.58454507  0.95656421  0.63614775  1
  S  S37  1  0.41599051  0.06672699  0.34190454  1
  S  S38  1  0.23566526  0.49345112  0.28295853  1
  S  S39  1  0.77278092  0.42110521  0.69355439  1
  S  S40  1  0.68633958  0.04529524  0.45607954  1
  S  S41  1  0.31549378  0.04453179  0.52894928  1
