# generated using pymatgen
data_Pr2Mn3(SbS3)4
_symmetry_space_group_name_H-M   'P 1'
_cell_length_a   20.02960800
_cell_length_b   3.90410600
_cell_length_c   14.95364829
_cell_angle_alpha   90.00000000
_cell_angle_beta   126.33350609
_cell_angle_gamma   90.00000000
_symmetry_Int_Tables_number   1
_chemical_formula_structural   Pr2Mn3(SbS3)4
_chemical_formula_sum   'Pr4 Mn6 Sb8 S24'
_cell_volume   942.00006694
_cell_formula_units_Z   2
loop_
 _symmetry_equiv_pos_site_id
 _symmetry_equiv_pos_as_xyz
  1  'x, y, z'
loop_
 _atom_site_type_symbol
 _atom_site_label
 _atom_site_symmetry_multiplicity
 _atom_site_fract_x
 _atom_site_fract_y
 _atom_site_fract_z
 _atom_site_occupancy
  Pr  Pr0  1  0.26258098  0.47041865  0.86779292  1
  Pr  Pr1  1  0.74023086  0.49313917  0.13953613  1
  Pr  Pr2  1  0.77398931  0.95090051  0.87461528  1
  Pr  Pr3  1  0.23599262  0.02242635  0.13747137  1
  Mn  Mn4  1  0.27968360  0.55621582  0.57770640  1
  Mn  Mn5  1  0.71067926  0.49385635  0.38880016  1
  Mn  Mn6  1  0.99871524  0.98424315  0.99687533  1
  Mn  Mn7  1  0.80193837  0.96174618  0.61584385  1
  Mn  Mn8  1  0.18413039  0.99525418  0.40283798  1
  Mn  Mn9  1  0.53693252  0.48121341  0.04444198  1
  Sb  Sb10  1  0.90554375  0.01927258  0.47099847  1
  Sb  Sb11  1  0.11505110  0.93470647  0.54976025  1
  Sb  Sb12  1  0.02587736  0.51654592  0.79984028  1
  Sb  Sb13  1  0.97365569  0.49580356  0.20277131  1
  Sb  Sb14  1  0.38547842  0.49978054  0.44310123  1
  Sb  Sb15  1  0.61518951  0.47367653  0.54993530  1
  Sb  Sb16  1  0.53946834  0.96527929  0.82019752  1
  Sb  Sb17  1  0.46150412  0.04109579  0.18453828  1
  S  S18  1  0.94783455  0.98403326  0.81996946  1
  S  S19  1  0.07319013  0.93165821  0.20984875  1
  S  S20  1  0.41700874  0.02152061  0.99306323  1
  S  S21  1  0.60104242  0.98662957  0.04127338  1
  S  S22  1  0.17805014  0.00579259  0.91602917  1
  S  S23  1  0.84372382  0.02619540  0.11964654  1
  S  S24  1  0.10083205  0.48468634  0.66205821  1
  S  S25  1  0.91943856  0.51095749  0.36487390  1
  S  S26  1  0.75514700  0.94642056  0.31833990  1
  S  S27  1  0.26984707  0.00852006  0.69072966  1
  S  S28  1  0.14923659  0.47620720  0.43762197  1
  S  S29  1  0.84472331  0.41301634  0.56378079  1
  S  S30  1  0.46021364  0.50988971  0.84048576  1
  S  S31  1  0.57272348  0.51577246  0.21631485  1
  S  S32  1  0.92206365  0.45748857  0.99179312  1
  S  S33  1  0.08625986  0.52488164  0.00729730  1
  S  S34  1  0.67783078  0.57345664  0.90537776  1
  S  S35  1  0.33835646  0.50416438  0.11505034  1
  S  S36  1  0.58448555  0.95700861  0.63609033  1
  S  S37  1  0.41592320  0.06725675  0.34175327  1
  S  S38  1  0.23566068  0.49400653  0.28269293  1
  S  S39  1  0.77251451  0.42300746  0.69330795  1
  S  S40  1  0.68621029  0.04723105  0.45549984  1
  S  S41  1  0.31563263  0.04487593  0.52946069  1
