# generated using pymatgen
data_Pr2Mn3(SbS3)4
_symmetry_space_group_name_H-M   'P 1'
_cell_length_a   20.02960800
_cell_length_b   3.90410600
_cell_length_c   14.95364829
_cell_angle_alpha   90.00000000
_cell_angle_beta   126.33350609
_cell_angle_gamma   90.00000000
_symmetry_Int_Tables_number   1
_chemical_formula_structural   Pr2Mn3(SbS3)4
_chemical_formula_sum   'Pr4 Mn6 Sb8 S24'
_cell_volume   942.00006694
_cell_formula_units_Z   2
loop_
 _symmetry_equiv_pos_site_id
 _symmetry_equiv_pos_as_xyz
  1  'x, y, z'
loop_
 _atom_site_type_symbol
 _atom_site_label
 _atom_site_symmetry_multiplicity
 _atom_site_fract_x
 _atom_site_fract_y
 _atom_site_fract_z
 _atom_site_occupancy
  Pr  Pr0  1  0.26263780  0.46938778  0.86780029  1
  Pr  Pr1  1  0.74023720  0.49355532  0.13961544  1
  Pr  Pr2  1  0.77386337  0.95018502  0.87442006  1
  Pr  Pr3  1  0.23595825  0.02282804  0.13749543  1
  Mn  Mn4  1  0.27963094  0.55633979  0.57793307  1
  Mn  Mn5  1  0.71068151  0.49314085  0.38895626  1
  Mn  Mn6  1  0.99862874  0.98460318  0.99665790  1
  Mn  Mn7  1  0.80162924  0.96046694  0.61571698  1
  Mn  Mn8  1  0.18361846  0.99513602  0.40243251  1
  Mn  Mn9  1  0.53732801  0.48212643  0.04471126  1
  Sb  Sb10  1  0.90561399  0.01918551  0.47092960  1
  Sb  Sb11  1  0.11500757  0.93520137  0.54967774  1
  Sb  Sb12  1  0.02573018  0.51666584  0.79969877  1
  Sb  Sb13  1  0.97360101  0.49631970  0.20267903  1
  Sb  Sb14  1  0.38544649  0.50037514  0.44293948  1
  Sb  Sb15  1  0.61512236  0.47319347  0.54979471  1
  Sb  Sb16  1  0.53960742  0.96529129  0.82016017  1
  Sb  Sb17  1  0.46145008  0.04081729  0.18430974  1
  S  S18  1  0.94796117  0.98460565  0.82048417  1
  S  S19  1  0.07304641  0.93202287  0.20927106  1
  S  S20  1  0.41650670  0.02206799  0.99255168  1
  S  S21  1  0.60122809  0.98671611  0.04135544  1
  S  S22  1  0.17774935  0.00525338  0.91569751  1
  S  S23  1  0.84396399  0.02678857  0.11977491  1
  S  S24  1  0.10069811  0.48477915  0.66167508  1
  S  S25  1  0.91952000  0.51037300  0.36512728  1
  S  S26  1  0.75489043  0.94740068  0.31813689  1
  S  S27  1  0.26989444  0.00839059  0.69042425  1
  S  S28  1  0.14885892  0.47556361  0.43751067  1
  S  S29  1  0.84459742  0.41330005  0.56413255  1
  S  S30  1  0.46004694  0.50988360  0.84039138  1
  S  S31  1  0.57271386  0.51643607  0.21622390  1
  S  S32  1  0.92228490  0.45667398  0.99185078  1
  S  S33  1  0.08614575  0.52429314  0.00732844  1
  S  S34  1  0.67818634  0.57342676  0.90584114  1
  S  S35  1  0.33840864  0.50299973  0.11456578  1
  S  S36  1  0.58439254  0.95745736  0.63601779  1
  S  S37  1  0.41581054  0.06815402  0.34174034  1
  S  S38  1  0.23556364  0.49461989  0.28250070  1
  S  S39  1  0.77224687  0.42530906  0.69301494  1
  S  S40  1  0.68616447  0.04890876  0.45501522  1
  S  S41  1  0.31563466  0.04429259  0.52992032  1
