# generated using pymatgen
data_Pr2Mn3(SbS3)4
_symmetry_space_group_name_H-M   'P 1'
_cell_length_a   20.02960800
_cell_length_b   3.90410600
_cell_length_c   14.95364829
_cell_angle_alpha   90.00000000
_cell_angle_beta   126.33350609
_cell_angle_gamma   90.00000000
_symmetry_Int_Tables_number   1
_chemical_formula_structural   Pr2Mn3(SbS3)4
_chemical_formula_sum   'Pr4 Mn6 Sb8 S24'
_cell_volume   942.00006694
_cell_formula_units_Z   2
loop_
 _symmetry_equiv_pos_site_id
 _symmetry_equiv_pos_as_xyz
  1  'x, y, z'
loop_
 _atom_site_type_symbol
 _atom_site_label
 _atom_site_symmetry_multiplicity
 _atom_site_fract_x
 _atom_site_fract_y
 _atom_site_fract_z
 _atom_site_occupancy
  Pr  Pr0  1  0.26265283  0.46821438  0.86777679  1
  Pr  Pr1  1  0.74026662  0.49378683  0.13963932  1
  Pr  Pr2  1  0.77383540  0.94980254  0.87439055  1
  Pr  Pr3  1  0.23597428  0.02316470  0.13760688  1
  Mn  Mn4  1  0.27952618  0.55656626  0.57815497  1
  Mn  Mn5  1  0.71077205  0.49270939  0.38913770  1
  Mn  Mn6  1  0.99852832  0.98477870  0.99652963  1
  Mn  Mn7  1  0.80133588  0.95909761  0.61561037  1
  Mn  Mn8  1  0.18317379  0.99434291  0.40209638  1
  Mn  Mn9  1  0.53752189  0.48237435  0.04484432  1
  Sb  Sb10  1  0.90567498  0.01894330  0.47083352  1
  Sb  Sb11  1  0.11493028  0.93543979  0.54950854  1
  Sb  Sb12  1  0.02560437  0.51655875  0.79955588  1
  Sb  Sb13  1  0.97361243  0.49698472  0.20268917  1
  Sb  Sb14  1  0.38545175  0.50146795  0.44274829  1
  Sb  Sb15  1  0.61498106  0.47301719  0.54959147  1
  Sb  Sb16  1  0.53974650  0.96522740  0.82028472  1
  Sb  Sb17  1  0.46145034  0.04037442  0.18424124  1
  S  S18  1  0.94809105  0.98501010  0.82097770  1
  S  S19  1  0.07287184  0.93239621  0.20876576  1
  S  S20  1  0.41592159  0.02277853  0.99191535  1
  S  S21  1  0.60132808  0.98726514  0.04140487  1
  S  S22  1  0.17744479  0.00460297  0.91540796  1
  S  S23  1  0.84423932  0.02702608  0.12001095  1
  S  S24  1  0.10072153  0.48544559  0.66140707  1
  S  S25  1  0.91956809  0.50892753  0.36538693  1
  S  S26  1  0.75470365  0.94830014  0.31796252  1
  S  S27  1  0.26999152  0.00779329  0.69007932  1
  S  S28  1  0.14863712  0.47483259  0.43755741  1
  S  S29  1  0.84442022  0.41412499  0.56463697  1
  S  S30  1  0.46004638  0.51020671  0.84039195  1
  S  S31  1  0.57267550  0.51720706  0.21600863  1
  S  S32  1  0.92236407  0.45635757  0.99199528  1
  S  S33  1  0.08609278  0.52383721  0.00720384  1
  S  S34  1  0.67846074  0.57328641  0.90641651  1
  S  S35  1  0.33851343  0.50195353  0.11411873  1
  S  S36  1  0.58432144  0.95754239  0.63610382  1
  S  S37  1  0.41578185  0.06969252  0.34175068  1
  S  S38  1  0.23550138  0.49499855  0.28236019  1
  S  S39  1  0.77194635  0.42738328  0.69257248  1
  S  S40  1  0.68593420  0.05032336  0.45437311  1
  S  S41  1  0.31562273  0.04450282  0.53039412  1
