# generated using pymatgen
data_Pr2Mn3(SbS3)4
_symmetry_space_group_name_H-M   'P 1'
_cell_length_a   20.02960800
_cell_length_b   3.90410600
_cell_length_c   14.95364829
_cell_angle_alpha   90.00000000
_cell_angle_beta   126.33350609
_cell_angle_gamma   90.00000000
_symmetry_Int_Tables_number   1
_chemical_formula_structural   Pr2Mn3(SbS3)4
_chemical_formula_sum   'Pr4 Mn6 Sb8 S24'
_cell_volume   942.00006694
_cell_formula_units_Z   2
loop_
 _symmetry_equiv_pos_site_id
 _symmetry_equiv_pos_as_xyz
  1  'x, y, z'
loop_
 _atom_site_type_symbol
 _atom_site_label
 _atom_site_symmetry_multiplicity
 _atom_site_fract_x
 _atom_site_fract_y
 _atom_site_fract_z
 _atom_site_occupancy
  Pr  Pr0  1  0.26954806  0.50762717  0.87450191  1
  Pr  Pr1  1  0.73393385  0.52100162  0.13451735  1
  Pr  Pr2  1  0.76429189  0.03162460  0.87118765  1
  Pr  Pr3  1  0.22823609  0.95892673  0.12684182  1
  Mn  Mn4  1  0.29683944  0.45479815  0.60800812  1
  Mn  Mn5  1  0.68581976  0.45553451  0.36428318  1
  Mn  Mn6  1  0.99877934  0.98095672  0.00646572  1
  Mn  Mn7  1  0.78989937  0.01977443  0.61387461  1
  Mn  Mn8  1  0.19927013  0.02837073  0.37210295  1
  Mn  Mn9  1  0.47968113  0.47371156  0.97704054  1
  Sb  Sb10  1  0.89222155  0.97071314  0.44954173  1
  Sb  Sb11  1  0.11360720  0.97580516  0.54849335  1
  Sb  Sb12  1  0.03916090  0.51785031  0.82791076  1
  Sb  Sb13  1  0.96796310  0.48281325  0.19285587  1
  Sb  Sb14  1  0.39870440  0.49282325  0.45407398  1
  Sb  Sb15  1  0.61325197  0.48569647  0.54782464  1
  Sb  Sb16  1  0.52961529  0.97245328  0.80644977  1
  Sb  Sb17  1  0.46551504  0.03343534  0.18469106  1
  S  S18  1  0.93654928  0.99048976  0.80162164  1
  S  S19  1  0.06662976  0.98477238  0.20192897  1
  S  S20  1  0.41949880  0.97743177  0.97616456  1
  S  S21  1  0.58445544  0.02203538  0.00745998  1
  S  S22  1  0.16097743  0.02383575  0.89403333  1
  S  S23  1  0.82924732  0.97565818  0.10472025  1
  S  S24  1  0.09013081  0.49871178  0.63727969  1
  S  S25  1  0.91514613  0.50775378  0.35660369  1
  S  S26  1  0.73505633  0.99247771  0.29881934  1
  S  S27  1  0.26403646  0.01492321  0.70430112  1
  S  S28  1  0.17196019  0.52085642  0.44293828  1
  S  S29  1  0.80686684  0.53049871  0.53823652  1
  S  S30  1  0.43229386  0.47301527  0.79605952  1
  S  S31  1  0.55394108  0.48881090  0.17572656  1
  S  S32  1  0.91854528  0.52443181  0.98671021  1
  S  S33  1  0.08407633  0.49375310  0.02270335  1
  S  S34  1  0.66862456  0.55625856  0.89115446  1
  S  S35  1  0.32942343  0.46029947  0.10143621  1
  S  S36  1  0.58883671  0.98698864  0.64129423  1
  S  S37  1  0.39320827  0.00019141  0.33095899  1
  S  S38  1  0.24461067  0.47224962  0.31523550  1
  S  S39  1  0.76361075  0.48463180  0.69367323  1
  S  S40  1  0.65689665  0.99232818  0.43290386  1
  S  S41  1  0.32948082  0.97926257  0.55475545  1
