# generated using pymatgen
data_Pr2Mn3(SbS3)4
_symmetry_space_group_name_H-M   'P 1'
_cell_length_a   20.02960800
_cell_length_b   3.90410600
_cell_length_c   14.95364829
_cell_angle_alpha   90.00000000
_cell_angle_beta   126.33350609
_cell_angle_gamma   90.00000000
_symmetry_Int_Tables_number   1
_chemical_formula_structural   Pr2Mn3(SbS3)4
_chemical_formula_sum   'Pr4 Mn6 Sb8 S24'
_cell_volume   942.00006694
_cell_formula_units_Z   2
loop_
 _symmetry_equiv_pos_site_id
 _symmetry_equiv_pos_as_xyz
  1  'x, y, z'
loop_
 _atom_site_type_symbol
 _atom_site_label
 _atom_site_symmetry_multiplicity
 _atom_site_fract_x
 _atom_site_fract_y
 _atom_site_fract_z
 _atom_site_occupancy
  Pr  Pr0  1  0.26272188  0.46712102  0.86781647  1
  Pr  Pr1  1  0.74034958  0.49377337  0.13978670  1
  Pr  Pr2  1  0.77376866  0.94910344  0.87431314  1
  Pr  Pr3  1  0.23601007  0.02336870  0.13769804  1
  Mn  Mn4  1  0.27941347  0.55687105  0.57823642  1
  Mn  Mn5  1  0.71081762  0.49240511  0.38926557  1
  Mn  Mn6  1  0.99841748  0.98476381  0.99639266  1
  Mn  Mn7  1  0.80100031  0.95811034  0.61552132  1
  Mn  Mn8  1  0.18271731  0.99299743  0.40180087  1
  Mn  Mn9  1  0.53758339  0.48244285  0.04503857  1
  Sb  Sb10  1  0.90571175  0.01881839  0.47073140  1
  Sb  Sb11  1  0.11477980  0.93565641  0.54928089  1
  Sb  Sb12  1  0.02544275  0.51658722  0.79942231  1
  Sb  Sb13  1  0.97358560  0.49778097  0.20265155  1
  Sb  Sb14  1  0.38547724  0.50219249  0.44258795  1
  Sb  Sb15  1  0.61484569  0.47267418  0.54934719  1
  Sb  Sb16  1  0.53996483  0.96520617  0.82049449  1
  Sb  Sb17  1  0.46144826  0.04006981  0.18422350  1
  S  S18  1  0.94796946  0.98624071  0.82129687  1
  S  S19  1  0.07242011  0.93237310  0.20802273  1
  S  S20  1  0.41553439  0.02366615  0.99129677  1
  S  S21  1  0.60143748  0.98808716  0.04142171  1
  S  S22  1  0.17707538  0.00434658  0.91517017  1
  S  S23  1  0.84437150  0.02702275  0.11999323  1
  S  S24  1  0.10069118  0.48601438  0.66121847  1
  S  S25  1  0.91949313  0.50779563  0.36555974  1
  S  S26  1  0.75458163  0.94875440  0.31768856  1
  S  S27  1  0.27013649  0.00739456  0.68981621  1
  S  S28  1  0.14836032  0.47442440  0.43746888  1
  S  S29  1  0.84426928  0.41427234  0.56528873  1
  S  S30  1  0.45992841  0.51064830  0.84017486  1
  S  S31  1  0.57254916  0.51822541  0.21591555  1
  S  S32  1  0.92243772  0.45559157  0.99210869  1
  S  S33  1  0.08599291  0.52416203  0.00700939  1
  S  S34  1  0.67864900  0.57339851  0.90686588  1
  S  S35  1  0.33865494  0.50069910  0.11366417  1
  S  S36  1  0.58418718  0.95818560  0.63603307  1
  S  S37  1  0.41569462  0.07112615  0.34188528  1
  S  S38  1  0.23545522  0.49553462  0.28216317  1
  S  S39  1  0.77161717  0.42972391  0.69206561  1
  S  S40  1  0.68571741  0.05179508  0.45391147  1
  S  S41  1  0.31552887  0.04441412  0.53060349  1
