# generated using pymatgen
data_Pr2Mn3(SbS3)4
_symmetry_space_group_name_H-M   'P 1'
_cell_length_a   20.02960800
_cell_length_b   3.90410600
_cell_length_c   14.95364829
_cell_angle_alpha   90.00000000
_cell_angle_beta   126.33350609
_cell_angle_gamma   90.00000000
_symmetry_Int_Tables_number   1
_chemical_formula_structural   Pr2Mn3(SbS3)4
_chemical_formula_sum   'Pr4 Mn6 Sb8 S24'
_cell_volume   942.00006694
_cell_formula_units_Z   2
loop_
 _symmetry_equiv_pos_site_id
 _symmetry_equiv_pos_as_xyz
  1  'x, y, z'
loop_
 _atom_site_type_symbol
 _atom_site_label
 _atom_site_symmetry_multiplicity
 _atom_site_fract_x
 _atom_site_fract_y
 _atom_site_fract_z
 _atom_site_occupancy
  Pr  Pr0  1  0.26272506  0.46606063  0.86783789  1
  Pr  Pr1  1  0.74053923  0.49386126  0.13997074  1
  Pr  Pr2  1  0.77365659  0.94834193  0.87422011  1
  Pr  Pr3  1  0.23599304  0.02399691  0.13771178  1
  Mn  Mn4  1  0.27935845  0.55652791  0.57829960  1
  Mn  Mn5  1  0.71078681  0.49184969  0.38918655  1
  Mn  Mn6  1  0.99838919  0.98496113  0.99638811  1
  Mn  Mn7  1  0.80060600  0.95754227  0.61539146  1
  Mn  Mn8  1  0.18245096  0.99155265  0.40162654  1
  Mn  Mn9  1  0.53750462  0.48233003  0.04505364  1
  Sb  Sb10  1  0.90571647  0.01835757  0.47058387  1
  Sb  Sb11  1  0.11459589  0.93583274  0.54904415  1
  Sb  Sb12  1  0.02531684  0.51662808  0.79933962  1
  Sb  Sb13  1  0.97350162  0.49870974  0.20246835  1
  Sb  Sb14  1  0.38546231  0.50295612  0.44241132  1
  Sb  Sb15  1  0.61467954  0.47250977  0.54909084  1
  Sb  Sb16  1  0.54020517  0.96535691  0.82064747  1
  Sb  Sb17  1  0.46147383  0.03955282  0.18433040  1
  S  S18  1  0.94785643  0.98725439  0.82156157  1
  S  S19  1  0.07213220  0.93210837  0.20739088  1
  S  S20  1  0.41530898  0.02412500  0.99067944  1
  S  S21  1  0.60159271  0.98853298  0.04146888  1
  S  S22  1  0.17691153  0.00417978  0.91502122  1
  S  S23  1  0.84469192  0.02687337  0.12019566  1
  S  S24  1  0.10078367  0.48676825  0.66116504  1
  S  S25  1  0.91938484  0.50677799  0.36569573  1
  S  S26  1  0.75452928  0.94845290  0.31756673  1
  S  S27  1  0.27035066  0.00719588  0.68957347  1
  S  S28  1  0.14821568  0.47403429  0.43729950  1
  S  S29  1  0.84402129  0.41491113  0.56578431  1
  S  S30  1  0.45985925  0.51055523  0.83978900  1
  S  S31  1  0.57240264  0.51952542  0.21560112  1
  S  S32  1  0.92259315  0.45480514  0.99215691  1
  S  S33  1  0.08580591  0.52421421  0.00665971  1
  S  S34  1  0.67866216  0.57297281  0.90701121  1
  S  S35  1  0.33867675  0.49957490  0.11314322  1
  S  S36  1  0.58410125  0.95873649  0.63575617  1
  S  S37  1  0.41554356  0.07302560  0.34197340  1
  S  S38  1  0.23535473  0.49620343  0.28176327  1
  S  S39  1  0.77128379  0.43189659  0.69156313  1
  S  S40  1  0.68549173  0.05351060  0.45343066  1
  S  S41  1  0.31543043  0.04432227  0.53083737  1
