# generated using pymatgen
data_Pr2Mn3(SbS3)4
_symmetry_space_group_name_H-M   'P 1'
_cell_length_a   20.02960800
_cell_length_b   3.90410600
_cell_length_c   14.95364829
_cell_angle_alpha   90.00000000
_cell_angle_beta   126.33350609
_cell_angle_gamma   90.00000000
_symmetry_Int_Tables_number   1
_chemical_formula_structural   Pr2Mn3(SbS3)4
_chemical_formula_sum   'Pr4 Mn6 Sb8 S24'
_cell_volume   942.00006694
_cell_formula_units_Z   2
loop_
 _symmetry_equiv_pos_site_id
 _symmetry_equiv_pos_as_xyz
  1  'x, y, z'
loop_
 _atom_site_type_symbol
 _atom_site_label
 _atom_site_symmetry_multiplicity
 _atom_site_fract_x
 _atom_site_fract_y
 _atom_site_fract_z
 _atom_site_occupancy
  Pr  Pr0  1  0.26280662  0.46503885  0.86796234  1
  Pr  Pr1  1  0.74068011  0.49443160  0.14014559  1
  Pr  Pr2  1  0.77356758  0.94757980  0.87414507  1
  Pr  Pr3  1  0.23596832  0.02454043  0.13776978  1
  Mn  Mn4  1  0.27939638  0.55673590  0.57838879  1
  Mn  Mn5  1  0.71086926  0.49137708  0.38931351  1
  Mn  Mn6  1  0.99845244  0.98531152  0.99659881  1
  Mn  Mn7  1  0.80027369  0.95722400  0.61530327  1
  Mn  Mn8  1  0.18215650  0.99041356  0.40138324  1
  Mn  Mn9  1  0.53746693  0.48211094  0.04500289  1
  Sb  Sb10  1  0.90575534  0.01815360  0.47044883  1
  Sb  Sb11  1  0.11446111  0.93585852  0.54892921  1
  Sb  Sb12  1  0.02520951  0.51673915  0.79935485  1
  Sb  Sb13  1  0.97340105  0.49963521  0.20234505  1
  Sb  Sb14  1  0.38546946  0.50374781  0.44220976  1
  Sb  Sb15  1  0.61450844  0.47225284  0.54882687  1
  Sb  Sb16  1  0.54044665  0.96546149  0.82075429  1
  Sb  Sb17  1  0.46147020  0.03893766  0.18437040  1
  S  S18  1  0.94761022  0.98813380  0.82171195  1
  S  S19  1  0.07201758  0.93196162  0.20711784  1
  S  S20  1  0.41510142  0.02371870  0.99010086  1
  S  S21  1  0.60172010  0.98820880  0.04157671  1
  S  S22  1  0.17670433  0.00422913  0.91492535  1
  S  S23  1  0.84500174  0.02646117  0.12052689  1
  S  S24  1  0.10094455  0.48748390  0.66106963  1
  S  S25  1  0.91929034  0.50591468  0.36584239  1
  S  S26  1  0.75451512  0.94806705  0.31756110  1
  S  S27  1  0.27064318  0.00710488  0.68959489  1
  S  S28  1  0.14810832  0.47339181  0.43720897  1
  S  S29  1  0.84360124  0.41594548  0.56609195  1
  S  S30  1  0.45994511  0.51031780  0.83947235  1
  S  S31  1  0.57226535  0.52042266  0.21526308  1
  S  S32  1  0.92291622  0.45420348  0.99236184  1
  S  S33  1  0.08569103  0.52446010  0.00637852  1
  S  S34  1  0.67880365  0.57253393  0.90713926  1
  S  S35  1  0.33861863  0.49830747  0.11262863  1
  S  S36  1  0.58397920  0.95863769  0.63540105  1
  S  S37  1  0.41531212  0.07454329  0.34187548  1
  S  S38  1  0.23529941  0.49684537  0.28143494  1
  S  S39  1  0.77088115  0.43449007  0.69096598  1
  S  S40  1  0.68509925  0.05545690  0.45287627  1
  S  S41  1  0.31522387  0.04349937  0.53086382  1
