# generated using pymatgen
data_Pr2Mn3(SbS3)4
_symmetry_space_group_name_H-M   'P 1'
_cell_length_a   20.02960800
_cell_length_b   3.90410600
_cell_length_c   14.95364829
_cell_angle_alpha   90.00000000
_cell_angle_beta   126.33350609
_cell_angle_gamma   90.00000000
_symmetry_Int_Tables_number   1
_chemical_formula_structural   Pr2Mn3(SbS3)4
_chemical_formula_sum   'Pr4 Mn6 Sb8 S24'
_cell_volume   942.00006694
_cell_formula_units_Z   2
loop_
 _symmetry_equiv_pos_site_id
 _symmetry_equiv_pos_as_xyz
  1  'x, y, z'
loop_
 _atom_site_type_symbol
 _atom_site_label
 _atom_site_symmetry_multiplicity
 _atom_site_fract_x
 _atom_site_fract_y
 _atom_site_fract_z
 _atom_site_occupancy
  Pr  Pr0  1  0.26298884  0.46401919  0.86825013  1
  Pr  Pr1  1  0.74086743  0.49490942  0.14037725  1
  Pr  Pr2  1  0.77357352  0.94692890  0.87425084  1
  Pr  Pr3  1  0.23598206  0.02493210  0.13782037  1
  Mn  Mn4  1  0.27932839  0.55741675  0.57834753  1
  Mn  Mn5  1  0.71098581  0.49068599  0.38949957  1
  Mn  Mn6  1  0.99854914  0.98541454  0.99692521  1
  Mn  Mn7  1  0.79989005  0.95741955  0.61515887  1
  Mn  Mn8  1  0.18185558  0.98972965  0.40110431  1
  Mn  Mn9  1  0.53729587  0.48188938  0.04479886  1
  Sb  Sb10  1  0.90574866  0.01778056  0.47031857  1
  Sb  Sb11  1  0.11442026  0.93599242  0.54894394  1
  Sb  Sb12  1  0.02516978  0.51635871  0.79945862  1
  Sb  Sb13  1  0.97329552  0.50073256  0.20221771  1
  Sb  Sb14  1  0.38554651  0.50459614  0.44216833  1
  Sb  Sb15  1  0.61433685  0.47239470  0.54848196  1
  Sb  Sb16  1  0.54060592  0.96516158  0.82085918  1
  Sb  Sb17  1  0.46143311  0.03849044  0.18430139  1
  S  S18  1  0.94724134  0.98929078  0.82190213  1
  S  S19  1  0.07206260  0.93235093  0.20706101  1
  S  S20  1  0.41493505  0.02324698  0.98949485  1
  S  S21  1  0.60169469  0.98775298  0.04157037  1
  S  S22  1  0.17651511  0.00399396  0.91478235  1
  S  S23  1  0.84534405  0.02650889  0.12089805  1
  S  S24  1  0.10115059  0.48804594  0.66093345  1
  S  S25  1  0.91922037  0.50524859  0.36590785  1
  S  S26  1  0.75441883  0.94792608  0.31754395  1
  S  S27  1  0.27100702  0.00679697  0.68965317  1
  S  S28  1  0.14810838  0.47306165  0.43723005  1
  S  S29  1  0.84329912  0.41736484  0.56643060  1
  S  S30  1  0.46005321  0.51005914  0.83912666  1
  S  S31  1  0.57223211  0.52094056  0.21498630  1
  S  S32  1  0.92323549  0.45386448  0.99252708  1
  S  S33  1  0.08540676  0.52423337  0.00615536  1
  S  S34  1  0.67884873  0.57230313  0.90764026  1
  S  S35  1  0.33855829  0.49743015  0.11225369  1
  S  S36  1  0.58382955  0.95864214  0.63513519  1
  S  S37  1  0.41503579  0.07593629  0.34186692  1
  S  S38  1  0.23531808  0.49751691  0.28122442  1
  S  S39  1  0.77048844  0.43657995  0.69039630  1
  S  S40  1  0.68488132  0.05741628  0.45253025  1
  S  S41  1  0.31498671  0.04327636  0.53083964  1
