# generated using pymatgen
data_Pr2Mn3(SbS3)4
_symmetry_space_group_name_H-M   'P 1'
_cell_length_a   20.02960800
_cell_length_b   3.90410600
_cell_length_c   14.95364829
_cell_angle_alpha   90.00000000
_cell_angle_beta   126.33350609
_cell_angle_gamma   90.00000000
_symmetry_Int_Tables_number   1
_chemical_formula_structural   Pr2Mn3(SbS3)4
_chemical_formula_sum   'Pr4 Mn6 Sb8 S24'
_cell_volume   942.00006694
_cell_formula_units_Z   2
loop_
 _symmetry_equiv_pos_site_id
 _symmetry_equiv_pos_as_xyz
  1  'x, y, z'
loop_
 _atom_site_type_symbol
 _atom_site_label
 _atom_site_symmetry_multiplicity
 _atom_site_fract_x
 _atom_site_fract_y
 _atom_site_fract_z
 _atom_site_occupancy
  Pr  Pr0  1  0.26319314  0.46303661  0.86855160  1
  Pr  Pr1  1  0.74094788  0.49525038  0.14052710  1
  Pr  Pr2  1  0.77345867  0.94633171  0.87427552  1
  Pr  Pr3  1  0.23591170  0.02547535  0.13772098  1
  Mn  Mn4  1  0.27910098  0.55806891  0.57824590  1
  Mn  Mn5  1  0.71104224  0.49039973  0.38953231  1
  Mn  Mn6  1  0.99853759  0.98530009  0.99711833  1
  Mn  Mn7  1  0.79962179  0.95801818  0.61512186  1
  Mn  Mn8  1  0.18154527  0.98903009  0.40071650  1
  Mn  Mn9  1  0.53719911  0.48178598  0.04458861  1
  Sb  Sb10  1  0.90579871  0.01756190  0.47027074  1
  Sb  Sb11  1  0.11435154  0.93620202  0.54898855  1
  Sb  Sb12  1  0.02517155  0.51630614  0.79964219  1
  Sb  Sb13  1  0.97320562  0.50134275  0.20221319  1
  Sb  Sb14  1  0.38565370  0.50524953  0.44215168  1
  Sb  Sb15  1  0.61420948  0.47245996  0.54821835  1
  Sb  Sb16  1  0.54078637  0.96503978  0.82107337  1
  Sb  Sb17  1  0.46146335  0.03808022  0.18426092  1
  S  S18  1  0.94686044  0.99036791  0.82199733  1
  S  S19  1  0.07212534  0.93274142  0.20711291  1
  S  S20  1  0.41478937  0.02402147  0.98886697  1
  S  S21  1  0.60161317  0.98749593  0.04138473  1
  S  S22  1  0.17619897  0.00367402  0.91452001  1
  S  S23  1  0.84553556  0.02715826  0.12108345  1
  S  S24  1  0.10125489  0.48852808  0.66085809  1
  S  S25  1  0.91915076  0.50479004  0.36596615  1
  S  S26  1  0.75440425  0.94787247  0.31755654  1
  S  S27  1  0.27127336  0.00679813  0.68971465  1
  S  S28  1  0.14798980  0.47326684  0.43718953  1
  S  S29  1  0.84305039  0.41908085  0.56664614  1
  S  S30  1  0.46021700  0.51019568  0.83881070  1
  S  S31  1  0.57210861  0.52199385  0.21467718  1
  S  S32  1  0.92359041  0.45351956  0.99264291  1
  S  S33  1  0.08508988  0.52374797  0.00597080  1
  S  S34  1  0.67875503  0.57160925  0.90797244  1
  S  S35  1  0.33859903  0.49668298  0.11190471  1
  S  S36  1  0.58353868  0.95846300  0.63480670  1
  S  S37  1  0.41457944  0.07750337  0.34170460  1
  S  S38  1  0.23526510  0.49851383  0.28106144  1
  S  S39  1  0.76999069  0.43843067  0.68985312  1
  S  S40  1  0.68473451  0.05874410  0.45232946  1
  S  S41  1  0.31476403  0.04288483  0.53077223  1
