# generated using pymatgen
data_Pr2Mn3(SbS3)4
_symmetry_space_group_name_H-M   'P 1'
_cell_length_a   20.02960800
_cell_length_b   3.90410600
_cell_length_c   14.95364829
_cell_angle_alpha   90.00000000
_cell_angle_beta   126.33350609
_cell_angle_gamma   90.00000000
_symmetry_Int_Tables_number   1
_chemical_formula_structural   Pr2Mn3(SbS3)4
_chemical_formula_sum   'Pr4 Mn6 Sb8 S24'
_cell_volume   942.00006694
_cell_formula_units_Z   2
loop_
 _symmetry_equiv_pos_site_id
 _symmetry_equiv_pos_as_xyz
  1  'x, y, z'
loop_
 _atom_site_type_symbol
 _atom_site_label
 _atom_site_symmetry_multiplicity
 _atom_site_fract_x
 _atom_site_fract_y
 _atom_site_fract_z
 _atom_site_occupancy
  Pr  Pr0  1  0.26331967  0.46222019  0.86881557  1
  Pr  Pr1  1  0.74102600  0.49568754  0.14062951  1
  Pr  Pr2  1  0.77340122  0.94571665  0.87433488  1
  Pr  Pr3  1  0.23592389  0.02616609  0.13757903  1
  Mn  Mn4  1  0.27890682  0.55844374  0.57820971  1
  Mn  Mn5  1  0.71109159  0.49060733  0.38942054  1
  Mn  Mn6  1  0.99850510  0.98542691  0.99727870  1
  Mn  Mn7  1  0.79927651  0.95867157  0.61507103  1
  Mn  Mn8  1  0.18123711  0.98867567  0.40035325  1
  Mn  Mn9  1  0.53712210  0.48202815  0.04428883  1
  Sb  Sb10  1  0.90577323  0.01720004  0.47019627  1
  Sb  Sb11  1  0.11436174  0.93640058  0.54917082  1
  Sb  Sb12  1  0.02512395  0.51589571  0.79978107  1
  Sb  Sb13  1  0.97311913  0.50198295  0.20224820  1
  Sb  Sb14  1  0.38565994  0.50595279  0.44206682  1
  Sb  Sb15  1  0.61407302  0.47275764  0.54797485  1
  Sb  Sb16  1  0.54094168  0.96483754  0.82123476  1
  Sb  Sb17  1  0.46146489  0.03753547  0.18429434  1
  S  S18  1  0.94657021  0.99197803  0.82198861  1
  S  S19  1  0.07218245  0.93336517  0.20723646  1
  S  S20  1  0.41467990  0.02491031  0.98815587  1
  S  S21  1  0.60140992  0.98688545  0.04117929  1
  S  S22  1  0.17590322  0.00369369  0.91406235  1
  S  S23  1  0.84571828  0.02760460  0.12129698  1
  S  S24  1  0.10155848  0.48974891  0.66104545  1
  S  S25  1  0.91915560  0.50408601  0.36601051  1
  S  S26  1  0.75437758  0.94872896  0.31771077  1
  S  S27  1  0.27135820  0.00690446  0.68968708  1
  S  S28  1  0.14776129  0.47305296  0.43707951  1
  S  S29  1  0.84293645  0.42005646  0.56691308  1
  S  S30  1  0.46031531  0.50988820  0.83865216  1
  S  S31  1  0.57207687  0.52246763  0.21439338  1
  S  S32  1  0.92393292  0.45336874  0.99277835  1
  S  S33  1  0.08477869  0.52344198  0.00566834  1
  S  S34  1  0.67837361  0.57052257  0.90801231  1
  S  S35  1  0.33865389  0.49649632  0.11176725  1
  S  S36  1  0.58341181  0.95877450  0.63453731  1
  S  S37  1  0.41424905  0.07970398  0.34175477  1
  S  S38  1  0.23526829  0.49883209  0.28091928  1
  S  S39  1  0.76943706  0.44046550  0.68913166  1
  S  S40  1  0.68456278  0.05969704  0.45214827  1
  S  S41  1  0.31457345  0.04251598  0.53075553  1
