# generated using pymatgen
data_Pr2Mn3(SbS3)4
_symmetry_space_group_name_H-M   'P 1'
_cell_length_a   20.02960800
_cell_length_b   3.90410600
_cell_length_c   14.95364829
_cell_angle_alpha   90.00000000
_cell_angle_beta   126.33350609
_cell_angle_gamma   90.00000000
_symmetry_Int_Tables_number   1
_chemical_formula_structural   Pr2Mn3(SbS3)4
_chemical_formula_sum   'Pr4 Mn6 Sb8 S24'
_cell_volume   942.00006694
_cell_formula_units_Z   2
loop_
 _symmetry_equiv_pos_site_id
 _symmetry_equiv_pos_as_xyz
  1  'x, y, z'
loop_
 _atom_site_type_symbol
 _atom_site_label
 _atom_site_symmetry_multiplicity
 _atom_site_fract_x
 _atom_site_fract_y
 _atom_site_fract_z
 _atom_site_occupancy
  Pr  Pr0  1  0.26341292  0.46137498  0.86893654  1
  Pr  Pr1  1  0.74118283  0.49619671  0.14075781  1
  Pr  Pr2  1  0.77331997  0.94523094  0.87440734  1
  Pr  Pr3  1  0.23600891  0.02709123  0.13749304  1
  Mn  Mn4  1  0.27863897  0.55883122  0.57799568  1
  Mn  Mn5  1  0.71106833  0.49077910  0.38924962  1
  Mn  Mn6  1  0.99860327  0.98547349  0.99740950  1
  Mn  Mn7  1  0.79894393  0.95904942  0.61503105  1
  Mn  Mn8  1  0.18096459  0.98833553  0.40006981  1
  Mn  Mn9  1  0.53705309  0.48201667  0.04406451  1
  Sb  Sb10  1  0.90566725  0.01676914  0.47005396  1
  Sb  Sb11  1  0.11440389  0.93631503  0.54931972  1
  Sb  Sb12  1  0.02511990  0.51567884  0.79996441  1
  Sb  Sb13  1  0.97307215  0.50264179  0.20236223  1
  Sb  Sb14  1  0.38571099  0.50634040  0.44201797  1
  Sb  Sb15  1  0.61391360  0.47292961  0.54764444  1
  Sb  Sb16  1  0.54107631  0.96446964  0.82126856  1
  Sb  Sb17  1  0.46147480  0.03708208  0.18434535  1
  S  S18  1  0.94624595  0.99420374  0.82194502  1
  S  S19  1  0.07224290  0.93415489  0.20744391  1
  S  S20  1  0.41455561  0.02572536  0.98751734  1
  S  S21  1  0.60119789  0.98655384  0.04095806  1
  S  S22  1  0.17561086  0.00390564  0.91341642  1
  S  S23  1  0.84590422  0.02884192  0.12150053  1
  S  S24  1  0.10186406  0.49029526  0.66146500  1
  S  S25  1  0.91916683  0.50319603  0.36606194  1
  S  S26  1  0.75432484  0.95020218  0.31778099  1
  S  S27  1  0.27139303  0.00672753  0.68946981  1
  S  S28  1  0.14765003  0.47299754  0.43711717  1
  S  S29  1  0.84301333  0.42066116  0.56730993  1
  S  S30  1  0.46032483  0.51006433  0.83842104  1
  S  S31  1  0.57213350  0.52321508  0.21409292  1
  S  S32  1  0.92414254  0.45279534  0.99279887  1
  S  S33  1  0.08442806  0.52329118  0.00517985  1
  S  S34  1  0.67801711  0.56877719  0.90777735  1
  S  S35  1  0.33865608  0.49617554  0.11141979  1
  S  S36  1  0.58346942  0.95887040  0.63442982  1
  S  S37  1  0.41403988  0.08143908  0.34200115  1
  S  S38  1  0.23528262  0.49838444  0.28095665  1
  S  S39  1  0.76887293  0.44293990  0.68849974  1
  S  S40  1  0.68422279  0.06090376  0.45183886  1
  S  S41  1  0.31436451  0.04149317  0.53084237  1
