# generated using pymatgen
data_Pr2Mn3(SbS3)4
_symmetry_space_group_name_H-M   'P 1'
_cell_length_a   20.02960800
_cell_length_b   3.90410600
_cell_length_c   14.95364829
_cell_angle_alpha   90.00000000
_cell_angle_beta   126.33350609
_cell_angle_gamma   90.00000000
_symmetry_Int_Tables_number   1
_chemical_formula_structural   Pr2Mn3(SbS3)4
_chemical_formula_sum   'Pr4 Mn6 Sb8 S24'
_cell_volume   942.00006694
_cell_formula_units_Z   2
loop_
 _symmetry_equiv_pos_site_id
 _symmetry_equiv_pos_as_xyz
  1  'x, y, z'
loop_
 _atom_site_type_symbol
 _atom_site_label
 _atom_site_symmetry_multiplicity
 _atom_site_fract_x
 _atom_site_fract_y
 _atom_site_fract_z
 _atom_site_occupancy
  Pr  Pr0  1  0.26348121  0.46076190  0.86912842  1
  Pr  Pr1  1  0.74136196  0.49664547  0.14089924  1
  Pr  Pr2  1  0.77324841  0.94468988  0.87443435  1
  Pr  Pr3  1  0.23603947  0.02784698  0.13740110  1
  Mn  Mn4  1  0.27849921  0.55910628  0.57778833  1
  Mn  Mn5  1  0.71099636  0.49089962  0.38902519  1
  Mn  Mn6  1  0.99866381  0.98556949  0.99759528  1
  Mn  Mn7  1  0.79869865  0.95949613  0.61508871  1
  Mn  Mn8  1  0.18065189  0.98806338  0.39974103  1
  Mn  Mn9  1  0.53697681  0.48218617  0.04384534  1
  Sb  Sb10  1  0.90548474  0.01634660  0.46990204  1
  Sb  Sb11  1  0.11437306  0.93586613  0.54937722  1
  Sb  Sb12  1  0.02511069  0.51503970  0.80008660  1
  Sb  Sb13  1  0.97296387  0.50305689  0.20240408  1
  Sb  Sb14  1  0.38580057  0.50668865  0.44202651  1
  Sb  Sb15  1  0.61375585  0.47271288  0.54728682  1
  Sb  Sb16  1  0.54114518  0.96390493  0.82119240  1
  Sb  Sb17  1  0.46149454  0.03683679  0.18429721  1
  S  S18  1  0.94596591  0.99540816  0.82190512  1
  S  S19  1  0.07242115  0.93505817  0.20789768  1
  S  S20  1  0.41441869  0.02629656  0.98695527  1
  S  S21  1  0.60104057  0.98638110  0.04073324  1
  S  S22  1  0.17531640  0.00409252  0.91278349  1
  S  S23  1  0.84600209  0.02987738  0.12163022  1
  S  S24  1  0.10204386  0.49101893  0.66190656  1
  S  S25  1  0.91904316  0.50271589  0.36580727  1
  S  S26  1  0.75440065  0.95109394  0.31805862  1
  S  S27  1  0.27124523  0.00635850  0.68915479  1
  S  S28  1  0.14743339  0.47336093  0.43698332  1
  S  S29  1  0.84327582  0.42088320  0.56789875  1
  S  S30  1  0.46040910  0.50998859  0.83815190  1
  S  S31  1  0.57222119  0.52355094  0.21385822  1
  S  S32  1  0.92424195  0.45217795  0.99269729  1
  S  S33  1  0.08414422  0.52323166  0.00471412  1
  S  S34  1  0.67764746  0.56695345  0.90754355  1
  S  S35  1  0.33864110  0.49574724  0.11114252  1
  S  S36  1  0.58347290  0.95842612  0.63421301  1
  S  S37  1  0.41380548  0.08267002  0.34211786  1
  S  S38  1  0.23525043  0.49799103  0.28082991  1
  S  S39  1  0.76834490  0.44544209  0.68782006  1
  S  S40  1  0.68389618  0.06208181  0.45159439  1
  S  S41  1  0.31416988  0.04087353  0.53083347  1
