# generated using pymatgen
data_Pr2Mn3(SbS3)4
_symmetry_space_group_name_H-M   'P 1'
_cell_length_a   20.02960800
_cell_length_b   3.90410600
_cell_length_c   14.95364829
_cell_angle_alpha   90.00000000
_cell_angle_beta   126.33350609
_cell_angle_gamma   90.00000000
_symmetry_Int_Tables_number   1
_chemical_formula_structural   Pr2Mn3(SbS3)4
_chemical_formula_sum   'Pr4 Mn6 Sb8 S24'
_cell_volume   942.00006694
_cell_formula_units_Z   2
loop_
 _symmetry_equiv_pos_site_id
 _symmetry_equiv_pos_as_xyz
  1  'x, y, z'
loop_
 _atom_site_type_symbol
 _atom_site_label
 _atom_site_symmetry_multiplicity
 _atom_site_fract_x
 _atom_site_fract_y
 _atom_site_fract_z
 _atom_site_occupancy
  Pr  Pr0  1  0.26358619  0.46019097  0.86937334  1
  Pr  Pr1  1  0.74161902  0.49717768  0.14112788  1
  Pr  Pr2  1  0.77317207  0.94427127  0.87451141  1
  Pr  Pr3  1  0.23605505  0.02843993  0.13737208  1
  Mn  Mn4  1  0.27836235  0.55931444  0.57754887  1
  Mn  Mn5  1  0.71102787  0.49097004  0.38888566  1
  Mn  Mn6  1  0.99863110  0.98559398  0.99774829  1
  Mn  Mn7  1  0.79835974  0.95976402  0.61509492  1
  Mn  Mn8  1  0.18048313  0.98777901  0.39946298  1
  Mn  Mn9  1  0.53704309  0.48188167  0.04353884  1
  Sb  Sb10  1  0.90535156  0.01628200  0.46970932  1
  Sb  Sb11  1  0.11432924  0.93574497  0.54942091  1
  Sb  Sb12  1  0.02513921  0.51477897  0.80017687  1
  Sb  Sb13  1  0.97283748  0.50335316  0.20228355  1
  Sb  Sb14  1  0.38594171  0.50695368  0.44212819  1
  Sb  Sb15  1  0.61364151  0.47242338  0.54706832  1
  Sb  Sb16  1  0.54116869  0.96326222  0.82114629  1
  Sb  Sb17  1  0.46151507  0.03709927  0.18429427  1
  S  S18  1  0.94561267  0.99672849  0.82189603  1
  S  S19  1  0.07243915  0.93676508  0.20819024  1
  S  S20  1  0.41418552  0.02684461  0.98639587  1
  S  S21  1  0.60101713  0.98562258  0.04061176  1
  S  S22  1  0.17505847  0.00424204  0.91219407  1
  S  S23  1  0.84602769  0.03085084  0.12177511  1
  S  S24  1  0.10226086  0.49190867  0.66233995  1
  S  S25  1  0.91898411  0.50258811  0.36556165  1
  S  S26  1  0.75444082  0.95161825  0.31818575  1
  S  S27  1  0.27109986  0.00587046  0.68888930  1
  S  S28  1  0.14718770  0.47361415  0.43677794  1
  S  S29  1  0.84338180  0.42190873  0.56829999  1
  S  S30  1  0.46055900  0.50999405  0.83792591  1
  S  S31  1  0.57228371  0.52353521  0.21354062  1
  S  S32  1  0.92444304  0.45198029  0.99267991  1
  S  S33  1  0.08384382  0.52240832  0.00415935  1
  S  S34  1  0.67729233  0.56496668  0.90716446  1
  S  S35  1  0.33872163  0.49600878  0.11092735  1
  S  S36  1  0.58340600  0.95799856  0.63398453  1
  S  S37  1  0.41356584  0.08348116  0.34234642  1
  S  S38  1  0.23538347  0.49743484  0.28092495  1
  S  S39  1  0.76807576  0.44774145  0.68734292  1
  S  S40  1  0.68354600  0.06301040  0.45138925  1
  S  S41  1  0.31402284  0.04014653  0.53103426  1
