# generated using pymatgen
data_Pr2Mn3(SbS3)4
_symmetry_space_group_name_H-M   'P 1'
_cell_length_a   20.02960800
_cell_length_b   3.90410600
_cell_length_c   14.95364829
_cell_angle_alpha   90.00000000
_cell_angle_beta   126.33350609
_cell_angle_gamma   90.00000000
_symmetry_Int_Tables_number   1
_chemical_formula_structural   Pr2Mn3(SbS3)4
_chemical_formula_sum   'Pr4 Mn6 Sb8 S24'
_cell_volume   942.00006694
_cell_formula_units_Z   2
loop_
 _symmetry_equiv_pos_site_id
 _symmetry_equiv_pos_as_xyz
  1  'x, y, z'
loop_
 _atom_site_type_symbol
 _atom_site_label
 _atom_site_symmetry_multiplicity
 _atom_site_fract_x
 _atom_site_fract_y
 _atom_site_fract_z
 _atom_site_occupancy
  Pr  Pr0  1  0.26371873  0.45915283  0.86958811  1
  Pr  Pr1  1  0.74184251  0.49765190  0.14133849  1
  Pr  Pr2  1  0.77312426  0.94376331  0.87461954  1
  Pr  Pr3  1  0.23608599  0.02867030  0.13739156  1
  Mn  Mn4  1  0.27827928  0.55948512  0.57732622  1
  Mn  Mn5  1  0.71112284  0.49127364  0.38875752  1
  Mn  Mn6  1  0.99855841  0.98521933  0.99795589  1
  Mn  Mn7  1  0.79801407  0.96029316  0.61501840  1
  Mn  Mn8  1  0.18031139  0.98781870  0.39907361  1
  Mn  Mn9  1  0.53714207  0.48140748  0.04311513  1
  Sb  Sb10  1  0.90532445  0.01589022  0.46961064  1
  Sb  Sb11  1  0.11431748  0.93556678  0.54941985  1
  Sb  Sb12  1  0.02509157  0.51442100  0.80022322  1
  Sb  Sb13  1  0.97264224  0.50355301  0.20207589  1
  Sb  Sb14  1  0.38607244  0.50728477  0.44224952  1
  Sb  Sb15  1  0.61355103  0.47202621  0.54685964  1
  Sb  Sb16  1  0.54115933  0.96259029  0.82096894  1
  Sb  Sb17  1  0.46158566  0.03718957  0.18425650  1
  S  S18  1  0.94529237  0.99786300  0.82189395  1
  S  S19  1  0.07254687  0.93848355  0.20866685  1
  S  S20  1  0.41408003  0.02688330  0.98586119  1
  S  S21  1  0.60097987  0.98541042  0.04049883  1
  S  S22  1  0.17475908  0.00336227  0.91163282  1
  S  S23  1  0.84617115  0.03153486  0.12204730  1
  S  S24  1  0.10233003  0.49236733  0.66248820  1
  S  S25  1  0.91875598  0.50230722  0.36526663  1
  S  S26  1  0.75455434  0.95219793  0.31839388  1
  S  S27  1  0.27087868  0.00505375  0.68850500  1
  S  S28  1  0.14702305  0.47292027  0.43670526  1
  S  S29  1  0.84356362  0.42187789  0.56866846  1
  S  S30  1  0.46052687  0.50985341  0.83743261  1
  S  S31  1  0.57236209  0.52359047  0.21301247  1
  S  S32  1  0.92470405  0.45170988  0.99296129  1
  S  S33  1  0.08352233  0.52100814  0.00358703  1
  S  S34  1  0.67691362  0.56261751  0.90683411  1
  S  S35  1  0.33871288  0.49597480  0.11061141  1
  S  S36  1  0.58347011  0.95806907  0.63389254  1
  S  S37  1  0.41323001  0.08467404  0.34240496  1
  S  S38  1  0.23542126  0.49740947  0.28080951  1
  S  S39  1  0.76789774  0.44922803  0.68687105  1
  S  S40  1  0.68331596  0.06440261  0.45136876  1
  S  S41  1  0.31396689  0.03924544  0.53130752  1
