# generated using pymatgen
data_Pr2Mn3(SbS3)4
_symmetry_space_group_name_H-M   'P 1'
_cell_length_a   20.02960800
_cell_length_b   3.90410600
_cell_length_c   14.95364829
_cell_angle_alpha   90.00000000
_cell_angle_beta   126.33350609
_cell_angle_gamma   90.00000000
_symmetry_Int_Tables_number   1
_chemical_formula_structural   Pr2Mn3(SbS3)4
_chemical_formula_sum   'Pr4 Mn6 Sb8 S24'
_cell_volume   942.00006694
_cell_formula_units_Z   2
loop_
 _symmetry_equiv_pos_site_id
 _symmetry_equiv_pos_as_xyz
  1  'x, y, z'
loop_
 _atom_site_type_symbol
 _atom_site_label
 _atom_site_symmetry_multiplicity
 _atom_site_fract_x
 _atom_site_fract_y
 _atom_site_fract_z
 _atom_site_occupancy
  Pr  Pr0  1  0.26956217  0.50760802  0.87467832  1
  Pr  Pr1  1  0.73379582  0.52105057  0.13433330  1
  Pr  Pr2  1  0.76424768  0.03131063  0.87120075  1
  Pr  Pr3  1  0.22829339  0.95859051  0.12671378  1
  Mn  Mn4  1  0.29667450  0.45415163  0.60798594  1
  Mn  Mn5  1  0.68570944  0.45584196  0.36405619  1
  Mn  Mn6  1  0.99878110  0.98045171  0.00624239  1
  Mn  Mn7  1  0.78985939  0.01856482  0.61385194  1
  Mn  Mn8  1  0.19955988  0.02892378  0.37230773  1
  Mn  Mn9  1  0.47970550  0.47375718  0.97680746  1
  Sb  Sb10  1  0.89232817  0.97074959  0.44968862  1
  Sb  Sb11  1  0.11361042  0.97555967  0.54846905  1
  Sb  Sb12  1  0.03927845  0.51746512  0.82805548  1
  Sb  Sb13  1  0.96788108  0.48271724  0.19291800  1
  Sb  Sb14  1  0.39869082  0.49284560  0.45397968  1
  Sb  Sb15  1  0.61330278  0.48573588  0.54791425  1
  Sb  Sb16  1  0.52958467  0.97196963  0.80645206  1
  Sb  Sb17  1  0.46556716  0.03326809  0.18469795  1
  S  S18  1  0.93612996  0.98984132  0.80141274  1
  S  S19  1  0.06673550  0.98410440  0.20198613  1
  S  S20  1  0.41960477  0.97735052  0.97652924  1
  S  S21  1  0.58439418  0.02110278  0.00741450  1
  S  S22  1  0.16109173  0.02404689  0.89437338  1
  S  S23  1  0.82951035  0.97601716  0.10495752  1
  S  S24  1  0.09037027  0.49848707  0.63740782  1
  S  S25  1  0.91510371  0.50769790  0.35682293  1
  S  S26  1  0.73506137  0.99195535  0.29882070  1
  S  S27  1  0.26399456  0.01548423  0.70411771  1
  S  S28  1  0.17192517  0.52081049  0.44297989  1
  S  S29  1  0.80702870  0.53225169  0.53832734  1
  S  S30  1  0.43223495  0.47337001  0.79552721  1
  S  S31  1  0.55394738  0.48869528  0.17555821  1
  S  S32  1  0.91839009  0.52466875  0.98661582  1
  S  S33  1  0.08402223  0.49344801  0.02299438  1
  S  S34  1  0.66850334  0.55605889  0.89054512  1
  S  S35  1  0.32941452  0.45994313  0.10140199  1
  S  S36  1  0.58882365  0.98624728  0.64125061  1
  S  S37  1  0.39341231  0.00061882  0.33116745  1
  S  S38  1  0.24433186  0.47314637  0.31493468  1
  S  S39  1  0.76350979  0.48406517  0.69385822  1
  S  S40  1  0.65705257  0.99301938  0.43321048  1
  S  S41  1  0.32948333  0.97762190  0.55466131  1
