# generated using pymatgen
data_Pr2Mn3(SbS3)4
_symmetry_space_group_name_H-M   'P 1'
_cell_length_a   20.02960800
_cell_length_b   3.90410600
_cell_length_c   14.95364829
_cell_angle_alpha   90.00000000
_cell_angle_beta   126.33350609
_cell_angle_gamma   90.00000000
_symmetry_Int_Tables_number   1
_chemical_formula_structural   Pr2Mn3(SbS3)4
_chemical_formula_sum   'Pr4 Mn6 Sb8 S24'
_cell_volume   942.00006694
_cell_formula_units_Z   2
loop_
 _symmetry_equiv_pos_site_id
 _symmetry_equiv_pos_as_xyz
  1  'x, y, z'
loop_
 _atom_site_type_symbol
 _atom_site_label
 _atom_site_symmetry_multiplicity
 _atom_site_fract_x
 _atom_site_fract_y
 _atom_site_fract_z
 _atom_site_occupancy
  Pr  Pr0  1  0.26385890  0.45810577  0.86974867  1
  Pr  Pr1  1  0.74200124  0.49828879  0.14152496  1
  Pr  Pr2  1  0.77303705  0.94347439  0.87459402  1
  Pr  Pr3  1  0.23614886  0.02882001  0.13739453  1
  Mn  Mn4  1  0.27814460  0.56029329  0.57710278  1
  Mn  Mn5  1  0.71133108  0.49115868  0.38882672  1
  Mn  Mn6  1  0.99846820  0.98525436  0.99811133  1
  Mn  Mn7  1  0.79775880  0.96028245  0.61499236  1
  Mn  Mn8  1  0.18006776  0.98765511  0.39856135  1
  Mn  Mn9  1  0.53719532  0.48155816  0.04271207  1
  Sb  Sb10  1  0.90526587  0.01551872  0.46948145  1
  Sb  Sb11  1  0.11427222  0.93586728  0.54934361  1
  Sb  Sb12  1  0.02499878  0.51450493  0.80025733  1
  Sb  Sb13  1  0.97238871  0.50356194  0.20185639  1
  Sb  Sb14  1  0.38625697  0.50768644  0.44238957  1
  Sb  Sb15  1  0.61351028  0.47175784  0.54671345  1
  Sb  Sb16  1  0.54114352  0.96192900  0.82079133  1
  Sb  Sb17  1  0.46166003  0.03737920  0.18430837  1
  S  S18  1  0.94497588  0.99941081  0.82187098  1
  S  S19  1  0.07280691  0.94020072  0.20926955  1
  S  S20  1  0.41408329  0.02742400  0.98538635  1
  S  S21  1  0.60110651  0.98495381  0.04062325  1
  S  S22  1  0.17454447  0.00279636  0.91089258  1
  S  S23  1  0.84641102  0.03242775  0.12226206  1
  S  S24  1  0.10237432  0.49275825  0.66256896  1
  S  S25  1  0.91856477  0.50266007  0.36497778  1
  S  S26  1  0.75467616  0.95268604  0.31843050  1
  S  S27  1  0.27061831  0.00465415  0.68832927  1
  S  S28  1  0.14689943  0.47303915  0.43666087  1
  S  S29  1  0.84365464  0.42223792  0.56912486  1
  S  S30  1  0.46039188  0.51029092  0.83694537  1
  S  S31  1  0.57232225  0.52332085  0.21255701  1
  S  S32  1  0.92497533  0.45184917  0.99350741  1
  S  S33  1  0.08321151  0.51896530  0.00303310  1
  S  S34  1  0.67682537  0.56063877  0.90670355  1
  S  S35  1  0.33875210  0.49564038  0.11038884  1
  S  S36  1  0.58355129  0.95813753  0.63365738  1
  S  S37  1  0.41293801  0.08563873  0.34235493  1
  S  S38  1  0.23545821  0.49720429  0.28083116  1
  S  S39  1  0.76758140  0.45104893  0.68615891  1
  S  S40  1  0.68316195  0.06565793  0.45148841  1
  S  S41  1  0.31373539  0.03861111  0.53143004  1
