# generated using pymatgen
data_Pr2Mn3(SbS3)4
_symmetry_space_group_name_H-M   'P 1'
_cell_length_a   20.02960800
_cell_length_b   3.90410600
_cell_length_c   14.95364829
_cell_angle_alpha   90.00000000
_cell_angle_beta   126.33350609
_cell_angle_gamma   90.00000000
_symmetry_Int_Tables_number   1
_chemical_formula_structural   Pr2Mn3(SbS3)4
_chemical_formula_sum   'Pr4 Mn6 Sb8 S24'
_cell_volume   942.00006694
_cell_formula_units_Z   2
loop_
 _symmetry_equiv_pos_site_id
 _symmetry_equiv_pos_as_xyz
  1  'x, y, z'
loop_
 _atom_site_type_symbol
 _atom_site_label
 _atom_site_symmetry_multiplicity
 _atom_site_fract_x
 _atom_site_fract_y
 _atom_site_fract_z
 _atom_site_occupancy
  Pr  Pr0  1  0.26397938  0.45721145  0.86988551  1
  Pr  Pr1  1  0.74212308  0.49886216  0.14166679  1
  Pr  Pr2  1  0.77300376  0.94322291  0.87448122  1
  Pr  Pr3  1  0.23621747  0.02919467  0.13737716  1
  Mn  Mn4  1  0.27790740  0.56085716  0.57676657  1
  Mn  Mn5  1  0.71153228  0.49136321  0.38892127  1
  Mn  Mn6  1  0.99841034  0.98513526  0.99835434  1
  Mn  Mn7  1  0.79761085  0.96066361  0.61496581  1
  Mn  Mn8  1  0.17993948  0.98674757  0.39806424  1
  Mn  Mn9  1  0.53733401  0.48225884  0.04238378  1
  Sb  Sb10  1  0.90517320  0.01520877  0.46933678  1
  Sb  Sb11  1  0.11433483  0.93605893  0.54932774  1
  Sb  Sb12  1  0.02495557  0.51480001  0.80024517  1
  Sb  Sb13  1  0.97217249  0.50350783  0.20165443  1
  Sb  Sb14  1  0.38636626  0.50831208  0.44253210  1
  Sb  Sb15  1  0.61345456  0.47158853  0.54648320  1
  Sb  Sb16  1  0.54115135  0.96084174  0.82075741  1
  Sb  Sb17  1  0.46162464  0.03777277  0.18427467  1
  S  S18  1  0.94458145  0.00094208  0.82163551  1
  S  S19  1  0.07286530  0.94185432  0.20970270  1
  S  S20  1  0.41399767  0.02827713  0.98490573  1
  S  S21  1  0.60122360  0.98469454  0.04080140  1
  S  S22  1  0.17431873  0.00220948  0.91018512  1
  S  S23  1  0.84656433  0.03368863  0.12242603  1
  S  S24  1  0.10252906  0.49351689  0.66279690  1
  S  S25  1  0.91837121  0.50257842  0.36484863  1
  S  S26  1  0.75478084  0.95305407  0.31847444  1
  S  S27  1  0.27039001  0.00382288  0.68831729  1
  S  S28  1  0.14680712  0.47325398  0.43654641  1
  S  S29  1  0.84372555  0.42196553  0.56964913  1
  S  S30  1  0.46035870  0.51068883  0.83654969  1
  S  S31  1  0.57242431  0.52342754  0.21233887  1
  S  S32  1  0.92520676  0.45249959  0.99408216  1
  S  S33  1  0.08293224  0.51650857  0.00263936  1
  S  S34  1  0.67665509  0.55866563  0.90669436  1
  S  S35  1  0.33875574  0.49532411  0.11001018  1
  S  S36  1  0.58348717  0.95824336  0.63345465  1
  S  S37  1  0.41270381  0.08563208  0.34242652  1
  S  S38  1  0.23554038  0.49704038  0.28087463  1
  S  S39  1  0.76723958  0.45282711  0.68552679  1
  S  S40  1  0.68297080  0.06639621  0.45137418  1
  S  S41  1  0.31343996  0.03781263  0.53160589  1
