# generated using pymatgen
data_Pr2Mn3(SbS3)4
_symmetry_space_group_name_H-M   'P 1'
_cell_length_a   20.02960800
_cell_length_b   3.90410600
_cell_length_c   14.95364829
_cell_angle_alpha   90.00000000
_cell_angle_beta   126.33350609
_cell_angle_gamma   90.00000000
_symmetry_Int_Tables_number   1
_chemical_formula_structural   Pr2Mn3(SbS3)4
_chemical_formula_sum   'Pr4 Mn6 Sb8 S24'
_cell_volume   942.00006694
_cell_formula_units_Z   2
loop_
 _symmetry_equiv_pos_site_id
 _symmetry_equiv_pos_as_xyz
  1  'x, y, z'
loop_
 _atom_site_type_symbol
 _atom_site_label
 _atom_site_symmetry_multiplicity
 _atom_site_fract_x
 _atom_site_fract_y
 _atom_site_fract_z
 _atom_site_occupancy
  Pr  Pr0  1  0.26414242  0.45624832  0.87004428  1
  Pr  Pr1  1  0.74223359  0.49936523  0.14177773  1
  Pr  Pr2  1  0.77301290  0.94295614  0.87436585  1
  Pr  Pr3  1  0.23632158  0.02954167  0.13732869  1
  Mn  Mn4  1  0.27769427  0.56137962  0.57646913  1
  Mn  Mn5  1  0.71170186  0.49188460  0.38915501  1
  Mn  Mn6  1  0.99832042  0.98549867  0.99855602  1
  Mn  Mn7  1  0.79743675  0.96111281  0.61483162  1
  Mn  Mn8  1  0.17983680  0.98565122  0.39772044  1
  Mn  Mn9  1  0.53737062  0.48287501  0.04193258  1
  Sb  Sb10  1  0.90511578  0.01511491  0.46926716  1
  Sb  Sb11  1  0.11442784  0.93593253  0.54941961  1
  Sb  Sb12  1  0.02489521  0.51509319  0.80023815  1
  Sb  Sb13  1  0.97201646  0.50380833  0.20164364  1
  Sb  Sb14  1  0.38649525  0.50879066  0.44269949  1
  Sb  Sb15  1  0.61337976  0.47146762  0.54628523  1
  Sb  Sb16  1  0.54115239  0.95984508  0.82079941  1
  Sb  Sb17  1  0.46161999  0.03810819  0.18424134  1
  S  S18  1  0.94413495  0.00302684  0.82136225  1
  S  S19  1  0.07289865  0.94316921  0.20990215  1
  S  S20  1  0.41391782  0.02935917  0.98450619  1
  S  S21  1  0.60129230  0.98408197  0.04098825  1
  S  S22  1  0.17398504  0.00132621  0.90940458  1
  S  S23  1  0.84653575  0.03502906  0.12241763  1
  S  S24  1  0.10273770  0.49391622  0.66318900  1
  S  S25  1  0.91827170  0.50300127  0.36474829  1
  S  S26  1  0.75474261  0.95333147  0.31836794  1
  S  S27  1  0.27004498  0.00316100  0.68828714  1
  S  S28  1  0.14677885  0.47364745  0.43643117  1
  S  S29  1  0.84378874  0.42158740  0.57012251  1
  S  S30  1  0.46022489  0.51155310  0.83624144  1
  S  S31  1  0.57245686  0.52316606  0.21226872  1
  S  S32  1  0.92528691  0.45361077  0.99458922  1
  S  S33  1  0.08258572  0.51394864  0.00229544  1
  S  S34  1  0.67664250  0.55703913  0.90673060  1
  S  S35  1  0.33877696  0.49588492  0.10980048  1
  S  S36  1  0.58346487  0.95796534  0.63337288  1
  S  S37  1  0.41277233  0.08538365  0.34265086  1
  S  S38  1  0.23580698  0.49758691  0.28102132  1
  S  S39  1  0.76706611  0.45374335  0.68502985  1
  S  S40  1  0.68285261  0.06642472  0.45116880  1
  S  S41  1  0.31315603  0.03618516  0.53176277  1
