# generated using pymatgen
data_Pr2Mn3(SbS3)4
_symmetry_space_group_name_H-M   'P 1'
_cell_length_a   20.02960800
_cell_length_b   3.90410600
_cell_length_c   14.95364829
_cell_angle_alpha   90.00000000
_cell_angle_beta   126.33350609
_cell_angle_gamma   90.00000000
_symmetry_Int_Tables_number   1
_chemical_formula_structural   Pr2Mn3(SbS3)4
_chemical_formula_sum   'Pr4 Mn6 Sb8 S24'
_cell_volume   942.00006694
_cell_formula_units_Z   2
loop_
 _symmetry_equiv_pos_site_id
 _symmetry_equiv_pos_as_xyz
  1  'x, y, z'
loop_
 _atom_site_type_symbol
 _atom_site_label
 _atom_site_symmetry_multiplicity
 _atom_site_fract_x
 _atom_site_fract_y
 _atom_site_fract_z
 _atom_site_occupancy
  Pr  Pr0  1  0.26423346  0.45577481  0.87020603  1
  Pr  Pr1  1  0.74237277  0.50000167  0.14187048  1
  Pr  Pr2  1  0.77300796  0.94305927  0.87432304  1
  Pr  Pr3  1  0.23636798  0.02979534  0.13723303  1
  Mn  Mn4  1  0.27737969  0.56175415  0.57626934  1
  Mn  Mn5  1  0.71191113  0.49189140  0.38947493  1
  Mn  Mn6  1  0.99822540  0.98577667  0.99875624  1
  Mn  Mn7  1  0.79721595  0.96125718  0.61462780  1
  Mn  Mn8  1  0.17964192  0.98440470  0.39739580  1
  Mn  Mn9  1  0.53742706  0.48322262  0.04150640  1
  Sb  Sb10  1  0.90511789  0.01486011  0.46923022  1
  Sb  Sb11  1  0.11454085  0.93583966  0.54950218  1
  Sb  Sb12  1  0.02481981  0.51558440  0.80021980  1
  Sb  Sb13  1  0.97189638  0.50422513  0.20165856  1
  Sb  Sb14  1  0.38663797  0.50906221  0.44293423  1
  Sb  Sb15  1  0.61336125  0.47135727  0.54606992  1
  Sb  Sb16  1  0.54107522  0.95904911  0.82076504  1
  Sb  Sb17  1  0.46157613  0.03838924  0.18415793  1
  S  S18  1  0.94366348  0.00474194  0.82093517  1
  S  S19  1  0.07299670  0.94511411  0.20997999  1
  S  S20  1  0.41389468  0.03077125  0.98431183  1
  S  S21  1  0.60146194  0.98322095  0.04117634  1
  S  S22  1  0.17362395  0.00084463  0.90859100  1
  S  S23  1  0.84662959  0.03592674  0.12248847  1
  S  S24  1  0.10300831  0.49385715  0.66354672  1
  S  S25  1  0.91832069  0.50420437  0.36470433  1
  S  S26  1  0.75472304  0.95394614  0.31816615  1
  S  S27  1  0.26962912  0.00184513  0.68813527  1
  S  S28  1  0.14677783  0.47426380  0.43620187  1
  S  S29  1  0.84386794  0.42078783  0.57065748  1
  S  S30  1  0.46021839  0.51260767  0.83609449  1
  S  S31  1  0.57242303  0.52295487  0.21213659  1
  S  S32  1  0.92536276  0.45535518  0.99521562  1
  S  S33  1  0.08218238  0.51198250  0.00186393  1
  S  S34  1  0.67659808  0.55535831  0.90659852  1
  S  S35  1  0.33875292  0.49671951  0.10962046  1
  S  S36  1  0.58353551  0.95716740  0.63332346  1
  S  S37  1  0.41275666  0.08395485  0.34277578  1
  S  S38  1  0.23595964  0.49918668  0.28107717  1
  S  S39  1  0.76700962  0.45456880  0.68444421  1
  S  S40  1  0.68264220  0.06705848  0.45081595  1
  S  S41  1  0.31291864  0.03498368  0.53191507  1
