# generated using pymatgen
data_Pr2Mn3(SbS3)4
_symmetry_space_group_name_H-M   'P 1'
_cell_length_a   20.02960800
_cell_length_b   3.90410600
_cell_length_c   14.95364829
_cell_angle_alpha   90.00000000
_cell_angle_beta   126.33350609
_cell_angle_gamma   90.00000000
_symmetry_Int_Tables_number   1
_chemical_formula_structural   Pr2Mn3(SbS3)4
_chemical_formula_sum   'Pr4 Mn6 Sb8 S24'
_cell_volume   942.00006694
_cell_formula_units_Z   2
loop_
 _symmetry_equiv_pos_site_id
 _symmetry_equiv_pos_as_xyz
  1  'x, y, z'
loop_
 _atom_site_type_symbol
 _atom_site_label
 _atom_site_symmetry_multiplicity
 _atom_site_fract_x
 _atom_site_fract_y
 _atom_site_fract_z
 _atom_site_occupancy
  Pr  Pr0  1  0.26429754  0.45484378  0.87030552  1
  Pr  Pr1  1  0.74250319  0.50055838  0.14194874  1
  Pr  Pr2  1  0.77301014  0.94341230  0.87420685  1
  Pr  Pr3  1  0.23640803  0.02999686  0.13719782  1
  Mn  Mn4  1  0.27717680  0.56208345  0.57606579  1
  Mn  Mn5  1  0.71203260  0.49205159  0.38955649  1
  Mn  Mn6  1  0.99817446  0.98581789  0.99894034  1
  Mn  Mn7  1  0.79703451  0.96168352  0.61444376  1
  Mn  Mn8  1  0.17947105  0.98302678  0.39708693  1
  Mn  Mn9  1  0.53743542  0.48403941  0.04097196  1
  Sb  Sb10  1  0.90518287  0.01453470  0.46918362  1
  Sb  Sb11  1  0.11465908  0.93561791  0.54962490  1
  Sb  Sb12  1  0.02477832  0.51622236  0.80019878  1
  Sb  Sb13  1  0.97185974  0.50468997  0.20170742  1
  Sb  Sb14  1  0.38678429  0.50949280  0.44323647  1
  Sb  Sb15  1  0.61338057  0.47139349  0.54591275  1
  Sb  Sb16  1  0.54097575  0.95853738  0.82071128  1
  Sb  Sb17  1  0.46154397  0.03870821  0.18403215  1
  S  S18  1  0.94316683  0.00618194  0.82064414  1
  S  S19  1  0.07299522  0.94762525  0.20980928  1
  S  S20  1  0.41395449  0.03220699  0.98416674  1
  S  S21  1  0.60159974  0.98213477  0.04135758  1
  S  S22  1  0.17334403  0.00031441  0.90780079  1
  S  S23  1  0.84673870  0.03650170  0.12259323  1
  S  S24  1  0.10331384  0.49386769  0.66411018  1
  S  S25  1  0.91844094  0.50540933  0.36461857  1
  S  S26  1  0.75471586  0.95425698  0.31797731  1
  S  S27  1  0.26922621  0.00091662  0.68818641  1
  S  S28  1  0.14654475  0.47404188  0.43577007  1
  S  S29  1  0.84397399  0.42115318  0.57103987  1
  S  S30  1  0.46025224  0.51371598  0.83584929  1
  S  S31  1  0.57236706  0.52150916  0.21212280  1
  S  S32  1  0.92542880  0.45630755  0.99589573  1
  S  S33  1  0.08195333  0.51011861  0.00156960  1
  S  S34  1  0.67652589  0.55360086  0.90630365  1
  S  S35  1  0.33865760  0.49717882  0.10935649  1
  S  S36  1  0.58362879  0.95662706  0.63332147  1
  S  S37  1  0.41259149  0.08219648  0.34278882  1
  S  S38  1  0.23613086  0.50050696  0.28122908  1
  S  S39  1  0.76693207  0.45491359  0.68399365  1
  S  S40  1  0.68241185  0.06761779  0.45039384  1
  S  S41  1  0.31270737  0.03359302  0.53210375  1
