# generated using pymatgen
data_Pr2Mn3(SbS3)4
_symmetry_space_group_name_H-M   'P 1'
_cell_length_a   20.02960800
_cell_length_b   3.90410600
_cell_length_c   14.95364829
_cell_angle_alpha   90.00000000
_cell_angle_beta   126.33350609
_cell_angle_gamma   90.00000000
_symmetry_Int_Tables_number   1
_chemical_formula_structural   Pr2Mn3(SbS3)4
_chemical_formula_sum   'Pr4 Mn6 Sb8 S24'
_cell_volume   942.00006694
_cell_formula_units_Z   2
loop_
 _symmetry_equiv_pos_site_id
 _symmetry_equiv_pos_as_xyz
  1  'x, y, z'
loop_
 _atom_site_type_symbol
 _atom_site_label
 _atom_site_symmetry_multiplicity
 _atom_site_fract_x
 _atom_site_fract_y
 _atom_site_fract_z
 _atom_site_occupancy
  Pr  Pr0  1  0.26439159  0.45419373  0.87047181  1
  Pr  Pr1  1  0.74257002  0.50104288  0.14195341  1
  Pr  Pr2  1  0.77291532  0.94363021  0.87392961  1
  Pr  Pr3  1  0.23640190  0.03004741  0.13722367  1
  Mn  Mn4  1  0.27697363  0.56255441  0.57588643  1
  Mn  Mn5  1  0.71225790  0.49179534  0.38972650  1
  Mn  Mn6  1  0.99819230  0.98554155  0.99915095  1
  Mn  Mn7  1  0.79682862  0.96176090  0.61408458  1
  Mn  Mn8  1  0.17943758  0.98143402  0.39696772  1
  Mn  Mn9  1  0.53743643  0.48461343  0.04052005  1
  Sb  Sb10  1  0.90519563  0.01443132  0.46912387  1
  Sb  Sb11  1  0.11482120  0.93582307  0.54984884  1
  Sb  Sb12  1  0.02482606  0.51679069  0.80028812  1
  Sb  Sb13  1  0.97191043  0.50514973  0.20186220  1
  Sb  Sb14  1  0.38689916  0.50958773  0.44351958  1
  Sb  Sb15  1  0.61336321  0.47114049  0.54577240  1
  Sb  Sb16  1  0.54087377  0.95798650  0.82071737  1
  Sb  Sb17  1  0.46153026  0.03882981  0.18383449  1
  S  S18  1  0.94275253  0.00709592  0.82057466  1
  S  S19  1  0.07332272  0.94994399  0.20992434  1
  S  S20  1  0.41395197  0.03312046  0.98397629  1
  S  S21  1  0.60176245  0.98106760  0.04163130  1
  S  S22  1  0.17307552  0.99978403  0.90713362  1
  S  S23  1  0.84689340  0.03723829  0.12268195  1
  S  S24  1  0.10341521  0.49404556  0.66441365  1
  S  S25  1  0.91862934  0.50619952  0.36463851  1
  S  S26  1  0.75455109  0.95470540  0.31776374  1
  S  S27  1  0.26891175  0.99959947  0.68833509  1
  S  S28  1  0.14641635  0.47390214  0.43558573  1
  S  S29  1  0.84409712  0.42062236  0.57156078  1
  S  S30  1  0.46034797  0.51458576  0.83565348  1
  S  S31  1  0.57247568  0.52077089  0.21233077  1
  S  S32  1  0.92557018  0.45701284  0.99668506  1
  S  S33  1  0.08180658  0.50807725  0.00138459  1
  S  S34  1  0.67642717  0.55273790  0.90589530  1
  S  S35  1  0.33869438  0.49794375  0.10922367  1
  S  S36  1  0.58370906  0.95645460  0.63350460  1
  S  S37  1  0.41238807  0.08058892  0.34292400  1
  S  S38  1  0.23618854  0.50161122  0.28133069  1
  S  S39  1  0.76675290  0.45477801  0.68351294  1
  S  S40  1  0.68209141  0.06846593  0.44989998  1
  S  S41  1  0.31254003  0.03209902  0.53224515  1
