# generated using pymatgen
data_Pr2Mn3(SbS3)4
_symmetry_space_group_name_H-M   'P 1'
_cell_length_a   20.02960800
_cell_length_b   3.90410600
_cell_length_c   14.95364829
_cell_angle_alpha   90.00000000
_cell_angle_beta   126.33350609
_cell_angle_gamma   90.00000000
_symmetry_Int_Tables_number   1
_chemical_formula_structural   Pr2Mn3(SbS3)4
_chemical_formula_sum   'Pr4 Mn6 Sb8 S24'
_cell_volume   942.00006694
_cell_formula_units_Z   2
loop_
 _symmetry_equiv_pos_site_id
 _symmetry_equiv_pos_as_xyz
  1  'x, y, z'
loop_
 _atom_site_type_symbol
 _atom_site_label
 _atom_site_symmetry_multiplicity
 _atom_site_fract_x
 _atom_site_fract_y
 _atom_site_fract_z
 _atom_site_occupancy
  Pr  Pr0  1  0.26448574  0.45375629  0.87058327  1
  Pr  Pr1  1  0.74270560  0.50157860  0.14199685  1
  Pr  Pr2  1  0.77289993  0.94383082  0.87375190  1
  Pr  Pr3  1  0.23639407  0.02965052  0.13723280  1
  Mn  Mn4  1  0.27676025  0.56308250  0.57569391  1
  Mn  Mn5  1  0.71245539  0.49156238  0.38988084  1
  Mn  Mn6  1  0.99819886  0.98499608  0.99941600  1
  Mn  Mn7  1  0.79664614  0.96194239  0.61383509  1
  Mn  Mn8  1  0.17946728  0.97970906  0.39684916  1
  Mn  Mn9  1  0.53744912  0.48524572  0.04009318  1
  Sb  Sb10  1  0.90517374  0.01417924  0.46899738  1
  Sb  Sb11  1  0.11494252  0.93624197  0.55016204  1
  Sb  Sb12  1  0.02484885  0.51695667  0.80035898  1
  Sb  Sb13  1  0.97191548  0.50569926  0.20190886  1
  Sb  Sb14  1  0.38689183  0.50974866  0.44366561  1
  Sb  Sb15  1  0.61327238  0.47134681  0.54550914  1
  Sb  Sb16  1  0.54080666  0.95742917  0.82083624  1
  Sb  Sb17  1  0.46152014  0.03905018  0.18362059  1
  S  S18  1  0.94226348  0.00785012  0.82042823  1
  S  S19  1  0.07338526  0.95164883  0.20983288  1
  S  S20  1  0.41412057  0.03409265  0.98381943  1
  S  S21  1  0.60202325  0.98032220  0.04194865  1
  S  S22  1  0.17285937  0.99993083  0.90652323  1
  S  S23  1  0.84723311  0.03812098  0.12279384  1
  S  S24  1  0.10332527  0.49406585  0.66452433  1
  S  S25  1  0.91867297  0.50704862  0.36466841  1
  S  S26  1  0.75445841  0.95460543  0.31775681  1
  S  S27  1  0.26856552  0.99819620  0.68860871  1
  S  S28  1  0.14624288  0.47358673  0.43535215  1
  S  S29  1  0.84411049  0.42053365  0.57195736  1
  S  S30  1  0.46047533  0.51519508  0.83560827  1
  S  S31  1  0.57260604  0.51977764  0.21262376  1
  S  S32  1  0.92559109  0.45759554  0.99730814  1
  S  S33  1  0.08166871  0.50640386  0.00126065  1
  S  S34  1  0.67643380  0.55158934  0.90564249  1
  S  S35  1  0.33875919  0.49818795  0.10897635  1
  S  S36  1  0.58399435  0.95580038  0.63377446  1
  S  S37  1  0.41217928  0.07915575  0.34311007  1
  S  S38  1  0.23638804  0.50179068  0.28156151  1
  S  S39  1  0.76676069  0.45484259  0.68320603  1
  S  S40  1  0.68182496  0.06919093  0.44937417  1
  S  S41  1  0.31241252  0.03116519  0.53254642  1
