# generated using pymatgen
data_Pr2Mn3(SbS3)4
_symmetry_space_group_name_H-M   'P 1'
_cell_length_a   20.02960800
_cell_length_b   3.90410600
_cell_length_c   14.95364829
_cell_angle_alpha   90.00000000
_cell_angle_beta   126.33350609
_cell_angle_gamma   90.00000000
_symmetry_Int_Tables_number   1
_chemical_formula_structural   Pr2Mn3(SbS3)4
_chemical_formula_sum   'Pr4 Mn6 Sb8 S24'
_cell_volume   942.00006694
_cell_formula_units_Z   2
loop_
 _symmetry_equiv_pos_site_id
 _symmetry_equiv_pos_as_xyz
  1  'x, y, z'
loop_
 _atom_site_type_symbol
 _atom_site_label
 _atom_site_symmetry_multiplicity
 _atom_site_fract_x
 _atom_site_fract_y
 _atom_site_fract_z
 _atom_site_occupancy
  Pr  Pr0  1  0.26455711  0.45353182  0.87070351  1
  Pr  Pr1  1  0.74286180  0.50212086  0.14206476  1
  Pr  Pr2  1  0.77291078  0.94384128  0.87365663  1
  Pr  Pr3  1  0.23640347  0.02920143  0.13725931  1
  Mn  Mn4  1  0.27645071  0.56364646  0.57544280  1
  Mn  Mn5  1  0.71257251  0.49129282  0.39005791  1
  Mn  Mn6  1  0.99839255  0.98400889  0.99971458  1
  Mn  Mn7  1  0.79654514  0.96187558  0.61380601  1
  Mn  Mn8  1  0.17945038  0.97786740  0.39672890  1
  Mn  Mn9  1  0.53745136  0.48605266  0.03970459  1
  Sb  Sb10  1  0.90509890  0.01404038  0.46879878  1
  Sb  Sb11  1  0.11495333  0.93690780  0.55037070  1
  Sb  Sb12  1  0.02493447  0.51696443  0.80047426  1
  Sb  Sb13  1  0.97192504  0.50614689  0.20197379  1
  Sb  Sb14  1  0.38695337  0.50994152  0.44385010  1
  Sb  Sb15  1  0.61320934  0.47126518  0.54525252  1
  Sb  Sb16  1  0.54068778  0.95714985  0.82095192  1
  Sb  Sb17  1  0.46150337  0.03943838  0.18340369  1
  S  S18  1  0.94180299  0.00824026  0.82025600  1
  S  S19  1  0.07348971  0.95329413  0.20980474  1
  S  S20  1  0.41432537  0.03533974  0.98372925  1
  S  S21  1  0.60235422  0.98014314  0.04237563  1
  S  S22  1  0.17273009  0.99922316  0.90609606  1
  S  S23  1  0.84750808  0.03880460  0.12292493  1
  S  S24  1  0.10328766  0.49440689  0.66493260  1
  S  S25  1  0.91882729  0.50789633  0.36492730  1
  S  S26  1  0.75431878  0.95466775  0.31760488  1
  S  S27  1  0.26821430  0.99657801  0.68895864  1
  S  S28  1  0.14615225  0.47338381  0.43507165  1
  S  S29  1  0.84423352  0.42024791  0.57210866  1
  S  S30  1  0.46043534  0.51584630  0.83542720  1
  S  S31  1  0.57265535  0.51862377  0.21282844  1
  S  S32  1  0.92562072  0.45783453  0.99784855  1
  S  S33  1  0.08136532  0.50475834  0.00124000  1
  S  S34  1  0.67653563  0.55022881  0.90543772  1
  S  S35  1  0.33874255  0.49798682  0.10858411  1
  S  S36  1  0.58417319  0.95520233  0.63383063  1
  S  S37  1  0.41195010  0.07826903  0.34332208  1
  S  S38  1  0.23651543  0.50181344  0.28169299  1
  S  S39  1  0.76662820  0.45447965  0.68277141  1
  S  S40  1  0.68158991  0.06964222  0.44876496  1
  S  S41  1  0.31219320  0.03014772  0.53286266  1
