# generated using pymatgen
data_Pr2Mn3(SbS3)4
_symmetry_space_group_name_H-M   'P 1'
_cell_length_a   20.02960800
_cell_length_b   3.90410600
_cell_length_c   14.95364829
_cell_angle_alpha   90.00000000
_cell_angle_beta   126.33350609
_cell_angle_gamma   90.00000000
_symmetry_Int_Tables_number   1
_chemical_formula_structural   Pr2Mn3(SbS3)4
_chemical_formula_sum   'Pr4 Mn6 Sb8 S24'
_cell_volume   942.00006694
_cell_formula_units_Z   2
loop_
 _symmetry_equiv_pos_site_id
 _symmetry_equiv_pos_as_xyz
  1  'x, y, z'
loop_
 _atom_site_type_symbol
 _atom_site_label
 _atom_site_symmetry_multiplicity
 _atom_site_fract_x
 _atom_site_fract_y
 _atom_site_fract_z
 _atom_site_occupancy
  Pr  Pr0  1  0.26463008  0.45336595  0.87080624  1
  Pr  Pr1  1  0.74305606  0.50265557  0.14220975  1
  Pr  Pr2  1  0.77292238  0.94392863  0.87356941  1
  Pr  Pr3  1  0.23638844  0.02898780  0.13728166  1
  Mn  Mn4  1  0.27624693  0.56403392  0.57530455  1
  Mn  Mn5  1  0.71270174  0.49088239  0.39009631  1
  Mn  Mn6  1  0.99864676  0.98371459  0.99998992  1
  Mn  Mn7  1  0.79647245  0.96221197  0.61368695  1
  Mn  Mn8  1  0.17951103  0.97651763  0.39673558  1
  Mn  Mn9  1  0.53753018  0.48681467  0.03940083  1
  Sb  Sb10  1  0.90501602  0.01410594  0.46850470  1
  Sb  Sb11  1  0.11487037  0.93747890  0.55046265  1
  Sb  Sb12  1  0.02506358  0.51680420  0.80063152  1
  Sb  Sb13  1  0.97199951  0.50649589  0.20199496  1
  Sb  Sb14  1  0.38695725  0.50988073  0.44390994  1
  Sb  Sb15  1  0.61323577  0.47110231  0.54508065  1
  Sb  Sb16  1  0.54061224  0.95693669  0.82103290  1
  Sb  Sb17  1  0.46144368  0.03985262  0.18318362  1
  S  S18  1  0.94122828  0.00841536  0.82012088  1
  S  S19  1  0.07355654  0.95473759  0.20974805  1
  S  S20  1  0.41461626  0.03611179  0.98380113  1
  S  S21  1  0.60265500  0.98046587  0.04287298  1
  S  S22  1  0.17285847  0.99903601  0.90585108  1
  S  S23  1  0.84782986  0.03914014  0.12295108  1
  S  S24  1  0.10328838  0.49458804  0.66520710  1
  S  S25  1  0.91896463  0.50877012  0.36519575  1
  S  S26  1  0.75408756  0.95452931  0.31751976  1
  S  S27  1  0.26785489  0.99554080  0.68932437  1
  S  S28  1  0.14593013  0.47312626  0.43476911  1
  S  S29  1  0.84423354  0.41926421  0.57214762  1
  S  S30  1  0.46046267  0.51611920  0.83536592  1
  S  S31  1  0.57271998  0.51811319  0.21301025  1
  S  S32  1  0.92553379  0.45788653  0.99816715  1
  S  S33  1  0.08102433  0.50251072  0.00121790  1
  S  S34  1  0.67664323  0.54923747  0.90551989  1
  S  S35  1  0.33866340  0.49737726  0.10819622  1
  S  S36  1  0.58427633  0.95445393  0.63393321  1
  S  S37  1  0.41174633  0.07779630  0.34356914  1
  S  S38  1  0.23668544  0.50245430  0.28189314  1
  S  S39  1  0.76653712  0.45464756  0.68244697  1
  S  S40  1  0.68141988  0.06995883  0.44818850  1
  S  S41  1  0.31227652  0.02906089  0.53339866  1
