# generated using pymatgen
data_Pr2Mn3(SbS3)4
_symmetry_space_group_name_H-M   'P 1'
_cell_length_a   20.02960800
_cell_length_b   3.90410600
_cell_length_c   14.95364829
_cell_angle_alpha   90.00000000
_cell_angle_beta   126.33350609
_cell_angle_gamma   90.00000000
_symmetry_Int_Tables_number   1
_chemical_formula_structural   Pr2Mn3(SbS3)4
_chemical_formula_sum   'Pr4 Mn6 Sb8 S24'
_cell_volume   942.00006694
_cell_formula_units_Z   2
loop_
 _symmetry_equiv_pos_site_id
 _symmetry_equiv_pos_as_xyz
  1  'x, y, z'
loop_
 _atom_site_type_symbol
 _atom_site_label
 _atom_site_symmetry_multiplicity
 _atom_site_fract_x
 _atom_site_fract_y
 _atom_site_fract_z
 _atom_site_occupancy
  Pr  Pr0  1  0.26460440  0.45328009  0.87080814  1
  Pr  Pr1  1  0.74309567  0.50307790  0.14226811  1
  Pr  Pr2  1  0.77293728  0.94385012  0.87350373  1
  Pr  Pr3  1  0.23642263  0.02883836  0.13731909  1
  Mn  Mn4  1  0.27617247  0.56420689  0.57530089  1
  Mn  Mn5  1  0.71281741  0.49091499  0.39015598  1
  Mn  Mn6  1  0.99880630  0.98332250  0.00026755  1
  Mn  Mn7  1  0.79634215  0.96261399  0.61369112  1
  Mn  Mn8  1  0.17949893  0.97496467  0.39676012  1
  Mn  Mn9  1  0.53754727  0.48767423  0.03908023  1
  Sb  Sb10  1  0.90492419  0.01410324  0.46817529  1
  Sb  Sb11  1  0.11473635  0.93798872  0.55045724  1
  Sb  Sb12  1  0.02517871  0.51640636  0.80070218  1
  Sb  Sb13  1  0.97208692  0.50654859  0.20192739  1
  Sb  Sb14  1  0.38695966  0.50953681  0.44398479  1
  Sb  Sb15  1  0.61325448  0.47099992  0.54491464  1
  Sb  Sb16  1  0.54051009  0.95670861  0.82110512  1
  Sb  Sb17  1  0.46136138  0.04005561  0.18296820  1
  S  S18  1  0.94075281  0.00841157  0.82005934  1
  S  S19  1  0.07362040  0.95674732  0.20997672  1
  S  S20  1  0.41494863  0.03729208  0.98392542  1
  S  S21  1  0.60308610  0.98097460  0.04345240  1
  S  S22  1  0.17305516  0.99917271  0.90584809  1
  S  S23  1  0.84797872  0.03854474  0.12306462  1
  S  S24  1  0.10327772  0.49510773  0.66534801  1
  S  S25  1  0.91905727  0.50970753  0.36541663  1
  S  S26  1  0.75386046  0.95410585  0.31749769  1
  S  S27  1  0.26762107  0.99461854  0.68950069  1
  S  S28  1  0.14573951  0.47258708  0.43449620  1
  S  S29  1  0.84418592  0.41792606  0.57229967  1
  S  S30  1  0.46040368  0.51637345  0.83530857  1
  S  S31  1  0.57286170  0.51764074  0.21319194  1
  S  S32  1  0.92569820  0.45813272  0.99873135  1
  S  S33  1  0.08064100  0.50094604  0.00117244  1
  S  S34  1  0.67651978  0.54846331  0.90533622  1
  S  S35  1  0.33859149  0.49716767  0.10769431  1
  S  S36  1  0.58429710  0.95404192  0.63409774  1
  S  S37  1  0.41143886  0.07782788  0.34374359  1
  S  S38  1  0.23668278  0.50282421  0.28204445  1
  S  S39  1  0.76633266  0.45503026  0.68225725  1
  S  S40  1  0.68119572  0.07022303  0.44773989  1
  S  S41  1  0.31234846  0.02768140  0.53381430  1
