# generated using pymatgen
data_Pr2Mn3(SbS3)4
_symmetry_space_group_name_H-M   'P 1'
_cell_length_a   20.02960800
_cell_length_b   3.90410600
_cell_length_c   14.95364829
_cell_angle_alpha   90.00000000
_cell_angle_beta   126.33350609
_cell_angle_gamma   90.00000000
_symmetry_Int_Tables_number   1
_chemical_formula_structural   Pr2Mn3(SbS3)4
_chemical_formula_sum   'Pr4 Mn6 Sb8 S24'
_cell_volume   942.00006694
_cell_formula_units_Z   2
loop_
 _symmetry_equiv_pos_site_id
 _symmetry_equiv_pos_as_xyz
  1  'x, y, z'
loop_
 _atom_site_type_symbol
 _atom_site_label
 _atom_site_symmetry_multiplicity
 _atom_site_fract_x
 _atom_site_fract_y
 _atom_site_fract_z
 _atom_site_occupancy
  Pr  Pr0  1  0.26956314  0.50762166  0.87485073  1
  Pr  Pr1  1  0.73369308  0.52117643  0.13418526  1
  Pr  Pr2  1  0.76426137  0.03119600  0.87128319  1
  Pr  Pr3  1  0.22828778  0.95830614  0.12649256  1
  Mn  Mn4  1  0.29644618  0.45330288  0.60793740  1
  Mn  Mn5  1  0.68571374  0.45603719  0.36392232  1
  Mn  Mn6  1  0.99876382  0.97995730  0.00610358  1
  Mn  Mn7  1  0.78983988  0.01776991  0.61385238  1
  Mn  Mn8  1  0.19980784  0.02956671  0.37242886  1
  Mn  Mn9  1  0.47983128  0.47352920  0.97669209  1
  Sb  Sb10  1  0.89242403  0.97061954  0.44982932  1
  Sb  Sb11  1  0.11360460  0.97559400  0.54840056  1
  Sb  Sb12  1  0.03936264  0.51716473  0.82822413  1
  Sb  Sb13  1  0.96783174  0.48268227  0.19296283  1
  Sb  Sb14  1  0.39872783  0.49293139  0.45389108  1
  Sb  Sb15  1  0.61333135  0.48590832  0.54798969  1
  Sb  Sb16  1  0.52958302  0.97153874  0.80647967  1
  Sb  Sb17  1  0.46563223  0.03286130  0.18461064  1
  S  S18  1  0.93577689  0.98902996  0.80114787  1
  S  S19  1  0.06680204  0.98394500  0.20213633  1
  S  S20  1  0.41973267  0.97756628  0.97697300  1
  S  S21  1  0.58431324  0.02022738  0.00734721  1
  S  S22  1  0.16117959  0.02427470  0.89462596  1
  S  S23  1  0.82971968  0.97636471  0.10519595  1
  S  S24  1  0.09050393  0.49799745  0.63754004  1
  S  S25  1  0.91518927  0.50729425  0.35707585  1
  S  S26  1  0.73502906  0.99154379  0.29883151  1
  S  S27  1  0.26399621  0.01613542  0.70402927  1
  S  S28  1  0.17191993  0.52078394  0.44317017  1
  S  S29  1  0.80720988  0.53420419  0.53848848  1
  S  S30  1  0.43211444  0.47414554  0.79489278  1
  S  S31  1  0.55408384  0.48866486  0.17535728  1
  S  S32  1  0.91826816  0.52511392  0.98654993  1
  S  S33  1  0.08401964  0.49306530  0.02336300  1
  S  S34  1  0.66828186  0.55594729  0.88981356  1
  S  S35  1  0.32935661  0.45966546  0.10133699  1
  S  S36  1  0.58883876  0.98534574  0.64130620  1
  S  S37  1  0.39356666  0.00108834  0.33147579  1
  S  S38  1  0.24403898  0.47414195  0.31460156  1
  S  S39  1  0.76339371  0.48306754  0.69392049  1
  S  S40  1  0.65724823  0.99357905  0.43348041  1
  S  S41  1  0.32950781  0.97621690  0.55463121  1
