# generated using pymatgen
data_Pr2Mn3(SbS3)4
_symmetry_space_group_name_H-M   'P 1'
_cell_length_a   20.02960800
_cell_length_b   3.90410600
_cell_length_c   14.95364829
_cell_angle_alpha   90.00000000
_cell_angle_beta   126.33350609
_cell_angle_gamma   90.00000000
_symmetry_Int_Tables_number   1
_chemical_formula_structural   Pr2Mn3(SbS3)4
_chemical_formula_sum   'Pr4 Mn6 Sb8 S24'
_cell_volume   942.00006694
_cell_formula_units_Z   2
loop_
 _symmetry_equiv_pos_site_id
 _symmetry_equiv_pos_as_xyz
  1  'x, y, z'
loop_
 _atom_site_type_symbol
 _atom_site_label
 _atom_site_symmetry_multiplicity
 _atom_site_fract_x
 _atom_site_fract_y
 _atom_site_fract_z
 _atom_site_occupancy
  Pr  Pr0  1  0.26464094  0.45275958  0.87088827  1
  Pr  Pr1  1  0.74311199  0.50341084  0.14233424  1
  Pr  Pr2  1  0.77292025  0.94379212  0.87346048  1
  Pr  Pr3  1  0.23647130  0.02842216  0.13746373  1
  Mn  Mn4  1  0.27612485  0.56405082  0.57537618  1
  Mn  Mn5  1  0.71291867  0.49097007  0.39022962  1
  Mn  Mn6  1  0.99895885  0.98287066  0.00055254  1
  Mn  Mn7  1  0.79619099  0.96287998  0.61357231  1
  Mn  Mn8  1  0.17950800  0.97369569  0.39693333  1
  Mn  Mn9  1  0.53758308  0.48883664  0.03893445  1
  Sb  Sb10  1  0.90485457  0.01399696  0.46783397  1
  Sb  Sb11  1  0.11466301  0.93859468  0.55051450  1
  Sb  Sb12  1  0.02532758  0.51604017  0.80088730  1
  Sb  Sb13  1  0.97212842  0.50649816  0.20188421  1
  Sb  Sb14  1  0.38693311  0.50961958  0.44396494  1
  Sb  Sb15  1  0.61323833  0.47057557  0.54478786  1
  Sb  Sb16  1  0.54035084  0.95638619  0.82107949  1
  Sb  Sb17  1  0.46131421  0.03993573  0.18282495  1
  S  S18  1  0.94015756  0.00894576  0.81981844  1
  S  S19  1  0.07377437  0.95919008  0.21041563  1
  S  S20  1  0.41537131  0.03805680  0.98410137  1
  S  S21  1  0.60363873  0.98208524  0.04413160  1
  S  S22  1  0.17324794  0.99951288  0.90599131  1
  S  S23  1  0.84811068  0.03727200  0.12323989  1
  S  S24  1  0.10344934  0.49598949  0.66556220  1
  S  S25  1  0.91918901  0.51079938  0.36551781  1
  S  S26  1  0.75357989  0.95279288  0.31722850  1
  S  S27  1  0.26758554  0.99392191  0.68986705  1
  S  S28  1  0.14558696  0.47180866  0.43418938  1
  S  S29  1  0.84413346  0.41708965  0.57254174  1
  S  S30  1  0.46048334  0.51693684  0.83527883  1
  S  S31  1  0.57305323  0.51721776  0.21343751  1
  S  S32  1  0.92580325  0.45857563  0.99938957  1
  S  S33  1  0.08038973  0.49928463  0.00126395  1
  S  S34  1  0.67648822  0.54788889  0.90520409  1
  S  S35  1  0.33847685  0.49731478  0.10707348  1
  S  S36  1  0.58415690  0.95425440  0.63404309  1
  S  S37  1  0.41114915  0.07754171  0.34397567  1
  S  S38  1  0.23675970  0.50285406  0.28230032  1
  S  S39  1  0.76616447  0.45494448  0.68201634  1
  S  S40  1  0.68111808  0.07031341  0.44742892  1
  S  S41  1  0.31245525  0.02583288  0.53405535  1
