# generated using pymatgen
data_Pr2Mn3(SbS3)4
_symmetry_space_group_name_H-M   'P 1'
_cell_length_a   20.02960800
_cell_length_b   3.90410600
_cell_length_c   14.95364829
_cell_angle_alpha   90.00000000
_cell_angle_beta   126.33350609
_cell_angle_gamma   90.00000000
_symmetry_Int_Tables_number   1
_chemical_formula_structural   Pr2Mn3(SbS3)4
_chemical_formula_sum   'Pr4 Mn6 Sb8 S24'
_cell_volume   942.00006694
_cell_formula_units_Z   2
loop_
 _symmetry_equiv_pos_site_id
 _symmetry_equiv_pos_as_xyz
  1  'x, y, z'
loop_
 _atom_site_type_symbol
 _atom_site_label
 _atom_site_symmetry_multiplicity
 _atom_site_fract_x
 _atom_site_fract_y
 _atom_site_fract_z
 _atom_site_occupancy
  Pr  Pr0  1  0.26468344  0.45251559  0.87098202  1
  Pr  Pr1  1  0.74315053  0.50373174  0.14232869  1
  Pr  Pr2  1  0.77288093  0.94360093  0.87336510  1
  Pr  Pr3  1  0.23642190  0.02823912  0.13758048  1
  Mn  Mn4  1  0.27610820  0.56362185  0.57548117  1
  Mn  Mn5  1  0.71311234  0.49143239  0.39032898  1
  Mn  Mn6  1  0.99904601  0.98185332  0.00075645  1
  Mn  Mn7  1  0.79606711  0.96318304  0.61356645  1
  Mn  Mn8  1  0.17950585  0.97287036  0.39703927  1
  Mn  Mn9  1  0.53773070  0.48940460  0.03899937  1
  Sb  Sb10  1  0.90470454  0.01395575  0.46744667  1
  Sb  Sb11  1  0.11461692  0.93911675  0.55066189  1
  Sb  Sb12  1  0.02542647  0.51570575  0.80104624  1
  Sb  Sb13  1  0.97223886  0.50654713  0.20195623  1
  Sb  Sb14  1  0.38690502  0.50977314  0.44390902  1
  Sb  Sb15  1  0.61318931  0.46973473  0.54470995  1
  Sb  Sb16  1  0.54016662  0.95608211  0.82107191  1
  Sb  Sb17  1  0.46119470  0.04004748  0.18265966  1
  S  S18  1  0.93947671  0.00933346  0.81923498  1
  S  S19  1  0.07408680  0.96089653  0.21099969  1
  S  S20  1  0.41585338  0.03877023  0.98430911  1
  S  S21  1  0.60411740  0.98339745  0.04464323  1
  S  S22  1  0.17348739  0.99987595  0.90612409  1
  S  S23  1  0.84812079  0.03608637  0.12332935  1
  S  S24  1  0.10351890  0.49703854  0.66580727  1
  S  S25  1  0.91929497  0.51157174  0.36556268  1
  S  S26  1  0.75312371  0.95135475  0.31662044  1
  S  S27  1  0.26761560  0.99372092  0.69024559  1
  S  S28  1  0.14532992  0.47176078  0.43396957  1
  S  S29  1  0.84399828  0.41690557  0.57267236  1
  S  S30  1  0.46066232  0.51693242  0.83532043  1
  S  S31  1  0.57327719  0.51735399  0.21383521  1
  S  S32  1  0.92599618  0.45857030  0.99979488  1
  S  S33  1  0.08016834  0.49786949  0.00132298  1
  S  S34  1  0.67651667  0.54731370  0.90520325  1
  S  S35  1  0.33826075  0.49779629  0.10634586  1
  S  S36  1  0.58379677  0.95463890  0.63374688  1
  S  S37  1  0.41088289  0.07749835  0.34416423  1
  S  S38  1  0.23677124  0.50316492  0.28243924  1
  S  S39  1  0.76596616  0.45503498  0.68179509  1
  S  S40  1  0.68086620  0.07041385  0.44707199  1
  S  S41  1  0.31270294  0.02470950  0.53430927  1
