# generated using pymatgen
data_Pr2Mn3(SbS3)4
_symmetry_space_group_name_H-M   'P 1'
_cell_length_a   20.02960800
_cell_length_b   3.90410600
_cell_length_c   14.95364829
_cell_angle_alpha   90.00000000
_cell_angle_beta   126.33350609
_cell_angle_gamma   90.00000000
_symmetry_Int_Tables_number   1
_chemical_formula_structural   Pr2Mn3(SbS3)4
_chemical_formula_sum   'Pr4 Mn6 Sb8 S24'
_cell_volume   942.00006694
_cell_formula_units_Z   2
loop_
 _symmetry_equiv_pos_site_id
 _symmetry_equiv_pos_as_xyz
  1  'x, y, z'
loop_
 _atom_site_type_symbol
 _atom_site_label
 _atom_site_symmetry_multiplicity
 _atom_site_fract_x
 _atom_site_fract_y
 _atom_site_fract_z
 _atom_site_occupancy
  Pr  Pr0  1  0.26478160  0.45247246  0.87102717  1
  Pr  Pr1  1  0.74319134  0.50424829  0.14229488  1
  Pr  Pr2  1  0.77284342  0.94343125  0.87327816  1
  Pr  Pr3  1  0.23637582  0.02779313  0.13770228  1
  Mn  Mn4  1  0.27617817  0.56282964  0.57570540  1
  Mn  Mn5  1  0.71334939  0.49216791  0.39058768  1
  Mn  Mn6  1  0.99913612  0.98101353  0.00111102  1
  Mn  Mn7  1  0.79595500  0.96398030  0.61345089  1
  Mn  Mn8  1  0.17952168  0.97210918  0.39714330  1
  Mn  Mn9  1  0.53777544  0.48935991  0.03906670  1
  Sb  Sb10  1  0.90460892  0.01386153  0.46716014  1
  Sb  Sb11  1  0.11458920  0.93963733  0.55075892  1
  Sb  Sb12  1  0.02553565  0.51554035  0.80111556  1
  Sb  Sb13  1  0.97230489  0.50660126  0.20192234  1
  Sb  Sb14  1  0.38682327  0.50965191  0.44387867  1
  Sb  Sb15  1  0.61308790  0.46924551  0.54458162  1
  Sb  Sb16  1  0.54003276  0.95606498  0.82109811  1
  Sb  Sb17  1  0.46103057  0.04017290  0.18251456  1
  S  S18  1  0.93884285  0.01001045  0.81898090  1
  S  S19  1  0.07426817  0.96282437  0.21144780  1
  S  S20  1  0.41638298  0.03921434  0.98461984  1
  S  S21  1  0.60474813  0.98416234  0.04509231  1
  S  S22  1  0.17384312  0.00062450  0.90627758  1
  S  S23  1  0.84799218  0.03452874  0.12354073  1
  S  S24  1  0.10369901  0.49743442  0.66611645  1
  S  S25  1  0.91936568  0.51229587  0.36568646  1
  S  S26  1  0.75267881  0.94987768  0.31589412  1
  S  S27  1  0.26783069  0.99400939  0.69058871  1
  S  S28  1  0.14511367  0.47128499  0.43373722  1
  S  S29  1  0.84376038  0.41639306  0.57254612  1
  S  S30  1  0.46083706  0.51605384  0.83540037  1
  S  S31  1  0.57347974  0.51739783  0.21416611  1
  S  S32  1  0.92632087  0.45887888  0.00040385  1
  S  S33  1  0.07992510  0.49627685  0.00155191  1
  S  S34  1  0.67681585  0.54625474  0.90539406  1
  S  S35  1  0.33800032  0.49804115  0.10568514  1
  S  S36  1  0.58353458  0.95463870  0.63354170  1
  S  S37  1  0.41041799  0.07723982  0.34408648  1
  S  S38  1  0.23676094  0.50384573  0.28261694  1
  S  S39  1  0.76580946  0.45555893  0.68154446  1
  S  S40  1  0.68068002  0.07063793  0.44687138  1
  S  S41  1  0.31269832  0.02363222  0.53446071  1
