# generated using pymatgen
data_Pr2Mn3(SbS3)4
_symmetry_space_group_name_H-M   'P 1'
_cell_length_a   20.02960800
_cell_length_b   3.90410600
_cell_length_c   14.95364829
_cell_angle_alpha   90.00000000
_cell_angle_beta   126.33350609
_cell_angle_gamma   90.00000000
_symmetry_Int_Tables_number   1
_chemical_formula_structural   Pr2Mn3(SbS3)4
_chemical_formula_sum   'Pr4 Mn6 Sb8 S24'
_cell_volume   942.00006694
_cell_formula_units_Z   2
loop_
 _symmetry_equiv_pos_site_id
 _symmetry_equiv_pos_as_xyz
  1  'x, y, z'
loop_
 _atom_site_type_symbol
 _atom_site_label
 _atom_site_symmetry_multiplicity
 _atom_site_fract_x
 _atom_site_fract_y
 _atom_site_fract_z
 _atom_site_occupancy
  Pr  Pr0  1  0.26477733  0.45231085  0.87098966  1
  Pr  Pr1  1  0.74324729  0.50484397  0.14235983  1
  Pr  Pr2  1  0.77284245  0.94344434  0.87334664  1
  Pr  Pr3  1  0.23637903  0.02746813  0.13777863  1
  Mn  Mn4  1  0.27618227  0.56233189  0.57589445  1
  Mn  Mn5  1  0.71355853  0.49238225  0.39073575  1
  Mn  Mn6  1  0.99927847  0.98027903  0.00152435  1
  Mn  Mn7  1  0.79582895  0.96487471  0.61331335  1
  Mn  Mn8  1  0.17948150  0.97130057  0.39710141  1
  Mn  Mn9  1  0.53790746  0.48985779  0.03918344  1
  Sb  Sb10  1  0.90453420  0.01371221  0.46691876  1
  Sb  Sb11  1  0.11454625  0.93993150  0.55089769  1
  Sb  Sb12  1  0.02554678  0.51541667  0.80110469  1
  Sb  Sb13  1  0.97224773  0.50680413  0.20177093  1
  Sb  Sb14  1  0.38676423  0.50943273  0.44388038  1
  Sb  Sb15  1  0.61301564  0.46851124  0.54450509  1
  Sb  Sb16  1  0.53986925  0.95600566  0.82107572  1
  Sb  Sb17  1  0.46093097  0.04062966  0.18246100  1
  S  S18  1  0.93831934  0.01005144  0.81876283  1
  S  S19  1  0.07419407  0.96436440  0.21166626  1
  S  S20  1  0.41691396  0.03904413  0.98484890  1
  S  S21  1  0.60533564  0.98470415  0.04549832  1
  S  S22  1  0.17424414  0.00165850  0.90647725  1
  S  S23  1  0.84792737  0.03352257  0.12387271  1
  S  S24  1  0.10389274  0.49751821  0.66635880  1
  S  S25  1  0.91919629  0.51318452  0.36577982  1
  S  S26  1  0.75229081  0.94891245  0.31523838  1
  S  S27  1  0.26798235  0.99401868  0.69083008  1
  S  S28  1  0.14494713  0.47013560  0.43352774  1
  S  S29  1  0.84359349  0.41611759  0.57232075  1
  S  S30  1  0.46099676  0.51480889  0.83558494  1
  S  S31  1  0.57347508  0.51688544  0.21446538  1
  S  S32  1  0.92671715  0.46039271  0.00103715  1
  S  S33  1  0.07972555  0.49553479  0.00161651  1
  S  S34  1  0.67706201  0.54533358  0.90531089  1
  S  S35  1  0.33774712  0.49824918  0.10514833  1
  S  S36  1  0.58323182  0.95532830  0.63332133  1
  S  S37  1  0.41006303  0.07732203  0.34397856  1
  S  S38  1  0.23683571  0.50518976  0.28295540  1
  S  S39  1  0.76568123  0.45571203  0.68135196  1
  S  S40  1  0.68042316  0.07058476  0.44666477  1
  S  S41  1  0.31271476  0.02222761  0.53463361  1
