# generated using pymatgen
data_Pr2Mn3(SbS3)4
_symmetry_space_group_name_H-M   'P 1'
_cell_length_a   20.02960800
_cell_length_b   3.90410600
_cell_length_c   14.95364829
_cell_angle_alpha   90.00000000
_cell_angle_beta   126.33350609
_cell_angle_gamma   90.00000000
_symmetry_Int_Tables_number   1
_chemical_formula_structural   Pr2Mn3(SbS3)4
_chemical_formula_sum   'Pr4 Mn6 Sb8 S24'
_cell_volume   942.00006694
_cell_formula_units_Z   2
loop_
 _symmetry_equiv_pos_site_id
 _symmetry_equiv_pos_as_xyz
  1  'x, y, z'
loop_
 _atom_site_type_symbol
 _atom_site_label
 _atom_site_symmetry_multiplicity
 _atom_site_fract_x
 _atom_site_fract_y
 _atom_site_fract_z
 _atom_site_occupancy
  Pr  Pr0  1  0.26484062  0.45204079  0.87094645  1
  Pr  Pr1  1  0.74337920  0.50539694  0.14246736  1
  Pr  Pr2  1  0.77282219  0.94350202  0.87338388  1
  Pr  Pr3  1  0.23637338  0.02713834  0.13783223  1
  Mn  Mn4  1  0.27625960  0.56186231  0.57609708  1
  Mn  Mn5  1  0.71378546  0.49274721  0.39083268  1
  Mn  Mn6  1  0.99941328  0.97953555  0.00186009  1
  Mn  Mn7  1  0.79567585  0.96586302  0.61333296  1
  Mn  Mn8  1  0.17947357  0.97072900  0.39709369  1
  Mn  Mn9  1  0.53810358  0.48952370  0.03943777  1
  Sb  Sb10  1  0.90442976  0.01352757  0.46671325  1
  Sb  Sb11  1  0.11463733  0.94037128  0.55112017  1
  Sb  Sb12  1  0.02556298  0.51541982  0.80114115  1
  Sb  Sb13  1  0.97220324  0.50718075  0.20167580  1
  Sb  Sb14  1  0.38661669  0.50956031  0.44387565  1
  Sb  Sb15  1  0.61283160  0.46777924  0.54437551  1
  Sb  Sb16  1  0.53979976  0.95614872  0.82114862  1
  Sb  Sb17  1  0.46085771  0.04112785  0.18253666  1
  S  S18  1  0.93770085  0.01046139  0.81840715  1
  S  S19  1  0.07412495  0.96539531  0.21181033  1
  S  S20  1  0.41751448  0.03896276  0.98528969  1
  S  S21  1  0.60601388  0.98492186  0.04596071  1
  S  S22  1  0.17451067  0.00248098  0.90649624  1
  S  S23  1  0.84795609  0.03264525  0.12410759  1
  S  S24  1  0.10398943  0.49786569  0.66652463  1
  S  S25  1  0.91905878  0.51400285  0.36597796  1
  S  S26  1  0.75197898  0.94816708  0.31476991  1
  S  S27  1  0.26775738  0.99485292  0.69090412  1
  S  S28  1  0.14491298  0.46899789  0.43344668  1
  S  S29  1  0.84326765  0.41635104  0.57184008  1
  S  S30  1  0.46115769  0.51350684  0.83590814  1
  S  S31  1  0.57329177  0.51625314  0.21454163  1
  S  S32  1  0.92715287  0.46125295  0.00171846  1
  S  S33  1  0.07973169  0.49536822  0.00188587  1
  S  S34  1  0.67728911  0.54433513  0.90534226  1
  S  S35  1  0.33745210  0.49930226  0.10462706  1
  S  S36  1  0.58285790  0.95600532  0.63291038  1
  S  S37  1  0.40982615  0.07685922  0.34388290  1
  S  S38  1  0.23682170  0.50579689  0.28316300  1
  S  S39  1  0.76553679  0.45595516  0.68118293  1
  S  S40  1  0.68014354  0.07036408  0.44636883  1
  S  S41  1  0.31290548  0.02118958  0.53482847  1
