# generated using pymatgen
data_Pr2Mn3(SbS3)4
_symmetry_space_group_name_H-M   'P 1'
_cell_length_a   20.02960800
_cell_length_b   3.90410600
_cell_length_c   14.95364829
_cell_angle_alpha   90.00000000
_cell_angle_beta   126.33350609
_cell_angle_gamma   90.00000000
_symmetry_Int_Tables_number   1
_chemical_formula_structural   Pr2Mn3(SbS3)4
_chemical_formula_sum   'Pr4 Mn6 Sb8 S24'
_cell_volume   942.00006694
_cell_formula_units_Z   2
loop_
 _symmetry_equiv_pos_site_id
 _symmetry_equiv_pos_as_xyz
  1  'x, y, z'
loop_
 _atom_site_type_symbol
 _atom_site_label
 _atom_site_symmetry_multiplicity
 _atom_site_fract_x
 _atom_site_fract_y
 _atom_site_fract_z
 _atom_site_occupancy
  Pr  Pr0  1  0.26490433  0.45188995  0.87090044  1
  Pr  Pr1  1  0.74350931  0.50602117  0.14261449  1
  Pr  Pr2  1  0.77270885  0.94371964  0.87333716  1
  Pr  Pr3  1  0.23644102  0.02714470  0.13787372  1
  Mn  Mn4  1  0.27618364  0.56104207  0.57610697  1
  Mn  Mn5  1  0.71394684  0.49301620  0.39090266  1
  Mn  Mn6  1  0.99953846  0.97828372  0.00215535  1
  Mn  Mn7  1  0.79551468  0.96634879  0.61336926  1
  Mn  Mn8  1  0.17946350  0.97018010  0.39708410  1
  Mn  Mn9  1  0.53829875  0.48889072  0.03962962  1
  Sb  Sb10  1  0.90435879  0.01341838  0.46659121  1
  Sb  Sb11  1  0.11470539  0.94090162  0.55134692  1
  Sb  Sb12  1  0.02550906  0.51541736  0.80108232  1
  Sb  Sb13  1  0.97218067  0.50763734  0.20155278  1
  Sb  Sb14  1  0.38640643  0.50961398  0.44377453  1
  Sb  Sb15  1  0.61264786  0.46702891  0.54422012  1
  Sb  Sb16  1  0.53973436  0.95602820  0.82116972  1
  Sb  Sb17  1  0.46079799  0.04159073  0.18256985  1
  S  S18  1  0.93726380  0.01069606  0.81824567  1
  S  S19  1  0.07408763  0.96613457  0.21173221  1
  S  S20  1  0.41787883  0.03947928  0.98543850  1
  S  S21  1  0.60671117  0.98529415  0.04633407  1
  S  S22  1  0.17466906  0.00348345  0.90631099  1
  S  S23  1  0.84778622  0.03112512  0.12436769  1
  S  S24  1  0.10407252  0.49826861  0.66663271  1
  S  S25  1  0.91892786  0.51435403  0.36611999  1
  S  S26  1  0.75189378  0.94769165  0.31455415  1
  S  S27  1  0.26770116  0.99521717  0.69110152  1
  S  S28  1  0.14484447  0.46812773  0.43334281  1
  S  S29  1  0.84305689  0.41672097  0.57154531  1
  S  S30  1  0.46129071  0.51216440  0.83613007  1
  S  S31  1  0.57312240  0.51571454  0.21464348  1
  S  S32  1  0.92758858  0.46166246  0.00232908  1
  S  S33  1  0.07979211  0.49558946  0.00229581  1
  S  S34  1  0.67763270  0.54448438  0.90540537  1
  S  S35  1  0.33716761  0.49997316  0.10422075  1
  S  S36  1  0.58252595  0.95641578  0.63256134  1
  S  S37  1  0.40975827  0.07641423  0.34399417  1
  S  S38  1  0.23693144  0.50598056  0.28320975  1
  S  S39  1  0.76536984  0.45603564  0.68099925  1
  S  S40  1  0.67984494  0.06995465  0.44612515  1
  S  S41  1  0.31310944  0.02021478  0.53519281  1
