# generated using pymatgen
data_Pr2Mn3(SbS3)4
_symmetry_space_group_name_H-M   'P 1'
_cell_length_a   20.02960800
_cell_length_b   3.90410600
_cell_length_c   14.95364829
_cell_angle_alpha   90.00000000
_cell_angle_beta   126.33350609
_cell_angle_gamma   90.00000000
_symmetry_Int_Tables_number   1
_chemical_formula_structural   Pr2Mn3(SbS3)4
_chemical_formula_sum   'Pr4 Mn6 Sb8 S24'
_cell_volume   942.00006694
_cell_formula_units_Z   2
loop_
 _symmetry_equiv_pos_site_id
 _symmetry_equiv_pos_as_xyz
  1  'x, y, z'
loop_
 _atom_site_type_symbol
 _atom_site_label
 _atom_site_symmetry_multiplicity
 _atom_site_fract_x
 _atom_site_fract_y
 _atom_site_fract_z
 _atom_site_occupancy
  Pr  Pr0  1  0.26500368  0.45181856  0.87099440  1
  Pr  Pr1  1  0.74357264  0.50650764  0.14269920  1
  Pr  Pr2  1  0.77263284  0.94421489  0.87326592  1
  Pr  Pr3  1  0.23653991  0.02710547  0.13790900  1
  Mn  Mn4  1  0.27603048  0.56018682  0.57598016  1
  Mn  Mn5  1  0.71407805  0.49325866  0.39075469  1
  Mn  Mn6  1  0.99977764  0.97658372  0.00256337  1
  Mn  Mn7  1  0.79534103  0.96596916  0.61344498  1
  Mn  Mn8  1  0.17945133  0.96971753  0.39723148  1
  Mn  Mn9  1  0.53841149  0.48818068  0.03982331  1
  Sb  Sb10  1  0.90420157  0.01346897  0.46645428  1
  Sb  Sb11  1  0.11472367  0.94137904  0.55141775  1
  Sb  Sb12  1  0.02539754  0.51561567  0.80098834  1
  Sb  Sb13  1  0.97217875  0.50815723  0.20141879  1
  Sb  Sb14  1  0.38607093  0.50974286  0.44354835  1
  Sb  Sb15  1  0.61255018  0.46650472  0.54411195  1
  Sb  Sb16  1  0.53962882  0.95588726  0.82115785  1
  Sb  Sb17  1  0.46074692  0.04154579  0.18267679  1
  S  S18  1  0.93694495  0.01078121  0.81816195  1
  S  S19  1  0.07402049  0.96670809  0.21178156  1
  S  S20  1  0.41831629  0.04015958  0.98565430  1
  S  S21  1  0.60739436  0.98566533  0.04665271  1
  S  S22  1  0.17474158  0.00400852  0.90597062  1
  S  S23  1  0.84770303  0.02958913  0.12463461  1
  S  S24  1  0.10408410  0.49776221  0.66652481  1
  S  S25  1  0.91887976  0.51397456  0.36624620  1
  S  S26  1  0.75175801  0.94707556  0.31433465  1
  S  S27  1  0.26767017  0.99610653  0.69126621  1
  S  S28  1  0.14467111  0.46692816  0.43308831  1
  S  S29  1  0.84290197  0.41714804  0.57125651  1
  S  S30  1  0.46134307  0.51017121  0.83628725  1
  S  S31  1  0.57315970  0.51492773  0.21488492  1
  S  S32  1  0.92793282  0.46222373  0.00268654  1
  S  S33  1  0.08009215  0.49629808  0.00278351  1
  S  S34  1  0.67792632  0.54433315  0.90539183  1
  S  S35  1  0.33695487  0.50064703  0.10394932  1
  S  S36  1  0.58232866  0.95640995  0.63237461  1
  S  S37  1  0.40981812  0.07645551  0.34437210  1
  S  S38  1  0.23697987  0.50578823  0.28333787  1
  S  S39  1  0.76525953  0.45640814  0.68066493  1
  S  S40  1  0.67953836  0.06967688  0.44598892  1
  S  S41  1  0.31332474  0.01865841  0.53553657  1
