# generated using pymatgen
data_Pr2Mn3(SbS3)4
_symmetry_space_group_name_H-M   'P 1'
_cell_length_a   20.02960800
_cell_length_b   3.90410600
_cell_length_c   14.95364829
_cell_angle_alpha   90.00000000
_cell_angle_beta   126.33350609
_cell_angle_gamma   90.00000000
_symmetry_Int_Tables_number   1
_chemical_formula_structural   Pr2Mn3(SbS3)4
_chemical_formula_sum   'Pr4 Mn6 Sb8 S24'
_cell_volume   942.00006694
_cell_formula_units_Z   2
loop_
 _symmetry_equiv_pos_site_id
 _symmetry_equiv_pos_as_xyz
  1  'x, y, z'
loop_
 _atom_site_type_symbol
 _atom_site_label
 _atom_site_symmetry_multiplicity
 _atom_site_fract_x
 _atom_site_fract_y
 _atom_site_fract_z
 _atom_site_occupancy
  Pr  Pr0  1  0.26504807  0.45183308  0.87113538  1
  Pr  Pr1  1  0.74360025  0.50690868  0.14264603  1
  Pr  Pr2  1  0.77259232  0.94487817  0.87330724  1
  Pr  Pr3  1  0.23661511  0.02717595  0.13800185  1
  Mn  Mn4  1  0.27593250  0.55938650  0.57585142  1
  Mn  Mn5  1  0.71425483  0.49312575  0.39059215  1
  Mn  Mn6  1  0.00004487  0.97521982  0.00300854  1
  Mn  Mn7  1  0.79516293  0.96553150  0.61346919  1
  Mn  Mn8  1  0.17944355  0.96961569  0.39748687  1
  Mn  Mn9  1  0.53857634  0.48799880  0.04002659  1
  Sb  Sb10  1  0.90403455  0.01305010  0.46639163  1
  Sb  Sb11  1  0.11469574  0.94166264  0.55148899  1
  Sb  Sb12  1  0.02534334  0.51574328  0.80104714  1
  Sb  Sb13  1  0.97212529  0.50863111  0.20131412  1
  Sb  Sb14  1  0.38581479  0.51007609  0.44340888  1
  Sb  Sb15  1  0.61249770  0.46584653  0.54403550  1
  Sb  Sb16  1  0.53955256  0.95588908  0.82123177  1
  Sb  Sb17  1  0.46072550  0.04159012  0.18284620  1
  S  S18  1  0.93667121  0.01122704  0.81803928  1
  S  S19  1  0.07408163  0.96706425  0.21166038  1
  S  S20  1  0.41879766  0.04076727  0.98567899  1
  S  S21  1  0.60805836  0.98648846  0.04697880  1
  S  S22  1  0.17492901  0.00409855  0.90592766  1
  S  S23  1  0.84755373  0.02848128  0.12486615  1
  S  S24  1  0.10399985  0.49784532  0.66637620  1
  S  S25  1  0.91880942  0.51406892  0.36624525  1
  S  S26  1  0.75177704  0.94688197  0.31436146  1
  S  S27  1  0.26759650  0.99595583  0.69130734  1
  S  S28  1  0.14437317  0.46529009  0.43271709  1
  S  S29  1  0.84278606  0.41732550  0.57106424  1
  S  S30  1  0.46145622  0.50845469  0.83649861  1
  S  S31  1  0.57328167  0.51498292  0.21506711  1
  S  S32  1  0.92803266  0.46260624  0.00295693  1
  S  S33  1  0.08049371  0.49638347  0.00338924  1
  S  S34  1  0.67830440  0.54416481  0.90563505  1
  S  S35  1  0.33667104  0.50115138  0.10364431  1
  S  S36  1  0.58213793  0.95591695  0.63229683  1
  S  S37  1  0.40988597  0.07574289  0.34468482  1
  S  S38  1  0.23712703  0.50531496  0.28362146  1
  S  S39  1  0.76505829  0.45606646  0.68040987  1
  S  S40  1  0.67930687  0.06959950  0.44581452  1
  S  S41  1  0.31354166  0.01721925  0.53596679  1
