# generated using pymatgen
data_Pr2Mn3(SbS3)4
_symmetry_space_group_name_H-M   'P 1'
_cell_length_a   20.02960800
_cell_length_b   3.90410600
_cell_length_c   14.95364829
_cell_angle_alpha   90.00000000
_cell_angle_beta   126.33350609
_cell_angle_gamma   90.00000000
_symmetry_Int_Tables_number   1
_chemical_formula_structural   Pr2Mn3(SbS3)4
_chemical_formula_sum   'Pr4 Mn6 Sb8 S24'
_cell_volume   942.00006694
_cell_formula_units_Z   2
loop_
 _symmetry_equiv_pos_site_id
 _symmetry_equiv_pos_as_xyz
  1  'x, y, z'
loop_
 _atom_site_type_symbol
 _atom_site_label
 _atom_site_symmetry_multiplicity
 _atom_site_fract_x
 _atom_site_fract_y
 _atom_site_fract_z
 _atom_site_occupancy
  Pr  Pr0  1  0.26515460  0.45175944  0.87135403  1
  Pr  Pr1  1  0.74361132  0.50701853  0.14258612  1
  Pr  Pr2  1  0.77265577  0.94529618  0.87342425  1
  Pr  Pr3  1  0.23670086  0.02674001  0.13811818  1
  Mn  Mn4  1  0.27584361  0.55838201  0.57572610  1
  Mn  Mn5  1  0.71431969  0.49376150  0.39029006  1
  Mn  Mn6  1  0.00034930  0.97346784  0.00345332  1
  Mn  Mn7  1  0.79487903  0.96464570  0.61337174  1
  Mn  Mn8  1  0.17946145  0.96953353  0.39775961  1
  Mn  Mn9  1  0.53874395  0.48740720  0.04022205  1
  Sb  Sb10  1  0.90383722  0.01261953  0.46635939  1
  Sb  Sb11  1  0.11467323  0.94183879  0.55146176  1
  Sb  Sb12  1  0.02529225  0.51572765  0.80112993  1
  Sb  Sb13  1  0.97205489  0.50896403  0.20117323  1
  Sb  Sb14  1  0.38553656  0.51030142  0.44328840  1
  Sb  Sb15  1  0.61249073  0.46525235  0.54399570  1
  Sb  Sb16  1  0.53951213  0.95574609  0.82131768  1
  Sb  Sb17  1  0.46068816  0.04176615  0.18296906  1
  S  S18  1  0.93657956  0.01181773  0.81801845  1
  S  S19  1  0.07395644  0.96809947  0.21142722  1
  S  S20  1  0.41922119  0.04161339  0.98570813  1
  S  S21  1  0.60877026  0.98695012  0.04719616  1
  S  S22  1  0.17497239  0.00419783  0.90575625  1
  S  S23  1  0.84724119  0.02768029  0.12493797  1
  S  S24  1  0.10413763  0.49855028  0.66647536  1
  S  S25  1  0.91883395  0.51422426  0.36650153  1
  S  S26  1  0.75177834  0.94688365  0.31425146  1
  S  S27  1  0.26747189  0.99544776  0.69137788  1
  S  S28  1  0.14423654  0.46449975  0.43250690  1
  S  S29  1  0.84267082  0.41779188  0.57081105  1
  S  S30  1  0.46168166  0.50695121  0.83669924  1
  S  S31  1  0.57340773  0.51491576  0.21525402  1
  S  S32  1  0.92816416  0.46323080  0.00317652  1
  S  S33  1  0.08081719  0.49703820  0.00393405  1
  S  S34  1  0.67863622  0.54354704  0.90591220  1
  S  S35  1  0.33642106  0.50193702  0.10342058  1
  S  S36  1  0.58195023  0.95582537  0.63232220  1
  S  S37  1  0.41001328  0.07568892  0.34496485  1
  S  S38  1  0.23707495  0.50537896  0.28364974  1
  S  S39  1  0.76474138  0.45616507  0.68013531  1
  S  S40  1  0.67902318  0.06907226  0.44548087  1
  S  S41  1  0.31383741  0.01603768  0.53645140  1
