# generated using pymatgen
data_Pr2Mn3(SbS3)4
_symmetry_space_group_name_H-M   'P 1'
_cell_length_a   20.02960800
_cell_length_b   3.90410600
_cell_length_c   14.95364829
_cell_angle_alpha   90.00000000
_cell_angle_beta   126.33350609
_cell_angle_gamma   90.00000000
_symmetry_Int_Tables_number   1
_chemical_formula_structural   Pr2Mn3(SbS3)4
_chemical_formula_sum   'Pr4 Mn6 Sb8 S24'
_cell_volume   942.00006694
_cell_formula_units_Z   2
loop_
 _symmetry_equiv_pos_site_id
 _symmetry_equiv_pos_as_xyz
  1  'x, y, z'
loop_
 _atom_site_type_symbol
 _atom_site_label
 _atom_site_symmetry_multiplicity
 _atom_site_fract_x
 _atom_site_fract_y
 _atom_site_fract_z
 _atom_site_occupancy
  Pr  Pr0  1  0.26530860  0.45176528  0.87163085  1
  Pr  Pr1  1  0.74359265  0.50673962  0.14247128  1
  Pr  Pr2  1  0.77267821  0.94573839  0.87353817  1
  Pr  Pr3  1  0.23674134  0.02597738  0.13820324  1
  Mn  Mn4  1  0.27582256  0.55738606  0.57576853  1
  Mn  Mn5  1  0.71443389  0.49476681  0.39006525  1
  Mn  Mn6  1  0.00056870  0.97213319  0.00359917  1
  Mn  Mn7  1  0.79468310  0.96401465  0.61338034  1
  Mn  Mn8  1  0.17946343  0.96964531  0.39807649  1
  Mn  Mn9  1  0.53884978  0.48661049  0.04035784  1
  Sb  Sb10  1  0.90371903  0.01240814  0.46641838  1
  Sb  Sb11  1  0.11469669  0.94211605  0.55145176  1
  Sb  Sb12  1  0.02527963  0.51549518  0.80129670  1
  Sb  Sb13  1  0.97204968  0.50941325  0.20112742  1
  Sb  Sb14  1  0.38524905  0.51037705  0.44320357  1
  Sb  Sb15  1  0.61245434  0.46475712  0.54393256  1
  Sb  Sb16  1  0.53949437  0.95572922  0.82152818  1
  Sb  Sb17  1  0.46060405  0.04248668  0.18306126  1
  S  S18  1  0.93636363  0.01238232  0.81785036  1
  S  S19  1  0.07385544  0.96890029  0.21116056  1
  S  S20  1  0.41950761  0.04229808  0.98556825  1
  S  S21  1  0.60933351  0.98822883  0.04715103  1
  S  S22  1  0.17498407  0.00387639  0.90552404  1
  S  S23  1  0.84704770  0.02683486  0.12502852  1
  S  S24  1  0.10429699  0.49938010  0.66647829  1
  S  S25  1  0.91892655  0.51394614  0.36687331  1
  S  S26  1  0.75171178  0.94698602  0.31400386  1
  S  S27  1  0.26737989  0.99491314  0.69138912  1
  S  S28  1  0.14410038  0.46373570  0.43222376  1
  S  S29  1  0.84240754  0.41809875  0.57043873  1
  S  S30  1  0.46190515  0.50533255  0.83680713  1
  S  S31  1  0.57343972  0.51477384  0.21535171  1
  S  S32  1  0.92818422  0.46400218  0.00333886  1
  S  S33  1  0.08111538  0.49822783  0.00421568  1
  S  S34  1  0.67896959  0.54288924  0.90622933  1
  S  S35  1  0.33623494  0.50246748  0.10304228  1
  S  S36  1  0.58179707  0.95656621  0.63228357  1
  S  S37  1  0.41012018  0.07576949  0.34508598  1
  S  S38  1  0.23712915  0.50584556  0.28370272  1
  S  S39  1  0.76444883  0.45621885  0.68003850  1
  S  S40  1  0.67877897  0.06902609  0.44521694  1
  S  S41  1  0.31409215  0.01447195  0.53681837  1
