# generated using pymatgen
data_Pr2Mn3(SbS3)4
_symmetry_space_group_name_H-M   'P 1'
_cell_length_a   20.02960800
_cell_length_b   3.90410600
_cell_length_c   14.95364829
_cell_angle_alpha   90.00000000
_cell_angle_beta   126.33350609
_cell_angle_gamma   90.00000000
_symmetry_Int_Tables_number   1
_chemical_formula_structural   Pr2Mn3(SbS3)4
_chemical_formula_sum   'Pr4 Mn6 Sb8 S24'
_cell_volume   942.00006694
_cell_formula_units_Z   2
loop_
 _symmetry_equiv_pos_site_id
 _symmetry_equiv_pos_as_xyz
  1  'x, y, z'
loop_
 _atom_site_type_symbol
 _atom_site_label
 _atom_site_symmetry_multiplicity
 _atom_site_fract_x
 _atom_site_fract_y
 _atom_site_fract_z
 _atom_site_occupancy
  Pr  Pr0  1  0.26952240  0.50775101  0.87500007  1
  Pr  Pr1  1  0.73358971  0.52131602  0.13395721  1
  Pr  Pr2  1  0.76427977  0.03085674  0.87134639  1
  Pr  Pr3  1  0.22825533  0.95808747  0.12618435  1
  Mn  Mn4  1  0.29623266  0.45261356  0.60796364  1
  Mn  Mn5  1  0.68583928  0.45584587  0.36383826  1
  Mn  Mn6  1  0.99877261  0.97965384  0.00606325  1
  Mn  Mn7  1  0.78987204  0.01704058  0.61384624  1
  Mn  Mn8  1  0.20006928  0.03007354  0.37261398  1
  Mn  Mn9  1  0.47996022  0.47343202  0.97667590  1
  Sb  Sb10  1  0.89246981  0.97044856  0.44986034  1
  Sb  Sb11  1  0.11367295  0.97563802  0.54836968  1
  Sb  Sb12  1  0.03938328  0.51679662  0.82831371  1
  Sb  Sb13  1  0.96783512  0.48262970  0.19300061  1
  Sb  Sb14  1  0.39875231  0.49305576  0.45379196  1
  Sb  Sb15  1  0.61335089  0.48595782  0.54804554  1
  Sb  Sb16  1  0.52960010  0.97104778  0.80646028  1
  Sb  Sb17  1  0.46566692  0.03242371  0.18445256  1
  S  S18  1  0.93555064  0.98854785  0.80092040  1
  S  S19  1  0.06686491  0.98359554  0.20220718  1
  S  S20  1  0.41990019  0.97769194  0.97748017  1
  S  S21  1  0.58410205  0.01940206  0.00709777  1
  S  S22  1  0.16131994  0.02450116  0.89498481  1
  S  S23  1  0.82988636  0.97712111  0.10539569  1
  S  S24  1  0.09061083  0.49737290  0.63759777  1
  S  S25  1  0.91537385  0.50651784  0.35737209  1
  S  S26  1  0.73491173  0.99136807  0.29874194  1
  S  S27  1  0.26398464  0.01676071  0.70378785  1
  S  S28  1  0.17192865  0.52061723  0.44336256  1
  S  S29  1  0.80733122  0.53581163  0.53857100  1
  S  S30  1  0.43204771  0.47474013  0.79441502  1
  S  S31  1  0.55414763  0.48832845  0.17518726  1
  S  S32  1  0.91820962  0.52529521  0.98655022  1
  S  S33  1  0.08422478  0.49227899  0.02377726  1
  S  S34  1  0.66788553  0.55549714  0.88910214  1
  S  S35  1  0.32936593  0.45946870  0.10123318  1
  S  S36  1  0.58885835  0.98387095  0.64135690  1
  S  S37  1  0.39370440  0.00072725  0.33167098  1
  S  S38  1  0.24377497  0.47537732  0.31430583  1
  S  S39  1  0.76326909  0.48215622  0.69394727  1
  S  S40  1  0.65746814  0.99410960  0.43373531  1
  S  S41  1  0.32951980  0.97439641  0.55472783  1
