# generated using pymatgen
data_Pr2Mn3(SbS3)4
_symmetry_space_group_name_H-M   'P 1'
_cell_length_a   20.02960800
_cell_length_b   3.90410600
_cell_length_c   14.95364829
_cell_angle_alpha   90.00000000
_cell_angle_beta   126.33350609
_cell_angle_gamma   90.00000000
_symmetry_Int_Tables_number   1
_chemical_formula_structural   Pr2Mn3(SbS3)4
_chemical_formula_sum   'Pr4 Mn6 Sb8 S24'
_cell_volume   942.00006694
_cell_formula_units_Z   2
loop_
 _symmetry_equiv_pos_site_id
 _symmetry_equiv_pos_as_xyz
  1  'x, y, z'
loop_
 _atom_site_type_symbol
 _atom_site_label
 _atom_site_symmetry_multiplicity
 _atom_site_fract_x
 _atom_site_fract_y
 _atom_site_fract_z
 _atom_site_occupancy
  Pr  Pr0  1  0.26539921  0.45202603  0.87183170  1
  Pr  Pr1  1  0.74354132  0.50647651  0.14225874  1
  Pr  Pr2  1  0.77267927  0.94608560  0.87363150  1
  Pr  Pr3  1  0.23679587  0.02597440  0.13821492  1
  Mn  Mn4  1  0.27591779  0.55664713  0.57583804  1
  Mn  Mn5  1  0.71455439  0.49569208  0.38992559  1
  Mn  Mn6  1  0.00078194  0.97135330  0.00382722  1
  Mn  Mn7  1  0.79446689  0.96330861  0.61351657  1
  Mn  Mn8  1  0.17951909  0.96962604  0.39850279  1
  Mn  Mn9  1  0.53879124  0.48605692  0.04031467  1
  Sb  Sb10  1  0.90370196  0.01217038  0.46649813  1
  Sb  Sb11  1  0.11475335  0.94200586  0.55155088  1
  Sb  Sb12  1  0.02531007  0.51492297  0.80151136  1
  Sb  Sb13  1  0.97198169  0.50983522  0.20098066  1
  Sb  Sb14  1  0.38499801  0.51051796  0.44319113  1
  Sb  Sb15  1  0.61240626  0.46414255  0.54386930  1
  Sb  Sb16  1  0.53944360  0.95546147  0.82172777  1
  Sb  Sb17  1  0.46053117  0.04299404  0.18311434  1
  S  S18  1  0.93603066  0.01296878  0.81753175  1
  S  S19  1  0.07374771  0.96988707  0.21064485  1
  S  S20  1  0.41984846  0.04308133  0.98548377  1
  S  S21  1  0.60979371  0.98909053  0.04700734  1
  S  S22  1  0.17511397  0.00390400  0.90547685  1
  S  S23  1  0.84686897  0.02627995  0.12496214  1
  S  S24  1  0.10445945  0.50106440  0.66642672  1
  S  S25  1  0.91911028  0.51356545  0.36720760  1
  S  S26  1  0.75179527  0.94737036  0.31385971  1
  S  S27  1  0.26717718  0.99510130  0.69138063  1
  S  S28  1  0.14407154  0.46258750  0.43210302  1
  S  S29  1  0.84222950  0.41863071  0.57011301  1
  S  S30  1  0.46200702  0.50437416  0.83667509  1
  S  S31  1  0.57340087  0.51446600  0.21532100  1
  S  S32  1  0.92815990  0.46469916  0.00343103  1
  S  S33  1  0.08140881  0.49935112  0.00438300  1
  S  S34  1  0.67939449  0.54182013  0.90656313  1
  S  S35  1  0.33607095  0.50315699  0.10257483  1
  S  S36  1  0.58161951  0.95751232  0.63217146  1
  S  S37  1  0.41019052  0.07624885  0.34538303  1
  S  S38  1  0.23726129  0.50652978  0.28391747  1
  S  S39  1  0.76413823  0.45538058  0.67979950  1
  S  S40  1  0.67867654  0.06902478  0.44510327  1
  S  S41  1  0.31434612  0.01349541  0.53716849  1
