# generated using pymatgen
data_Pr2Mn3(SbS3)4
_symmetry_space_group_name_H-M   'P 1'
_cell_length_a   20.02960800
_cell_length_b   3.90410600
_cell_length_c   14.95364829
_cell_angle_alpha   90.00000000
_cell_angle_beta   126.33350609
_cell_angle_gamma   90.00000000
_symmetry_Int_Tables_number   1
_chemical_formula_structural   Pr2Mn3(SbS3)4
_chemical_formula_sum   'Pr4 Mn6 Sb8 S24'
_cell_volume   942.00006694
_cell_formula_units_Z   2
loop_
 _symmetry_equiv_pos_site_id
 _symmetry_equiv_pos_as_xyz
  1  'x, y, z'
loop_
 _atom_site_type_symbol
 _atom_site_label
 _atom_site_symmetry_multiplicity
 _atom_site_fract_x
 _atom_site_fract_y
 _atom_site_fract_z
 _atom_site_occupancy
  Pr  Pr0  1  0.26542766  0.45222626  0.87196691  1
  Pr  Pr1  1  0.74351825  0.50629686  0.14211452  1
  Pr  Pr2  1  0.77260525  0.94663747  0.87361750  1
  Pr  Pr3  1  0.23686109  0.02607818  0.13825442  1
  Mn  Mn4  1  0.27601891  0.55522664  0.57588815  1
  Mn  Mn5  1  0.71456164  0.49648755  0.38978192  1
  Mn  Mn6  1  0.00109527  0.97047456  0.00426841  1
  Mn  Mn7  1  0.79430461  0.96230906  0.61369513  1
  Mn  Mn8  1  0.17970843  0.96963286  0.39903625  1
  Mn  Mn9  1  0.53873078  0.48547862  0.04024694  1
  Sb  Sb10  1  0.90367894  0.01198407  0.46646964  1
  Sb  Sb11  1  0.11480061  0.94184942  0.55153464  1
  Sb  Sb12  1  0.02534292  0.51400074  0.80177866  1
  Sb  Sb13  1  0.97189712  0.51066678  0.20088621  1
  Sb  Sb14  1  0.38473846  0.51034815  0.44317206  1
  Sb  Sb15  1  0.61234632  0.46359051  0.54378507  1
  Sb  Sb16  1  0.53938519  0.95511444  0.82201320  1
  Sb  Sb17  1  0.46041181  0.04396504  0.18312980  1
  S  S18  1  0.93587713  0.01292996  0.81737214  1
  S  S19  1  0.07361516  0.97132664  0.21005550  1
  S  S20  1  0.42009737  0.04406289  0.98533141  1
  S  S21  1  0.61011260  0.99027553  0.04665982  1
  S  S22  1  0.17512526  0.00453970  0.90535573  1
  S  S23  1  0.84661365  0.02623702  0.12502605  1
  S  S24  1  0.10465544  0.50217069  0.66636069  1
  S  S25  1  0.91932212  0.51338301  0.36769068  1
  S  S26  1  0.75175526  0.94750676  0.31356303  1
  S  S27  1  0.26698968  0.99508941  0.69140406  1
  S  S28  1  0.14416265  0.46138888  0.43179891  1
  S  S29  1  0.84211750  0.41972154  0.56998336  1
  S  S30  1  0.46213240  0.50352924  0.83675962  1
  S  S31  1  0.57342369  0.51424778  0.21539414  1
  S  S32  1  0.92814665  0.46526684  0.00348329  1
  S  S33  1  0.08162573  0.50035919  0.00450131  1
  S  S34  1  0.67974108  0.54143850  0.90690220  1
  S  S35  1  0.33610174  0.50375777  0.10203530  1
  S  S36  1  0.58157445  0.95847279  0.63225357  1
  S  S37  1  0.41021163  0.07628086  0.34573295  1
  S  S38  1  0.23736214  0.50736268  0.28409554  1
  S  S39  1  0.76389297  0.45511431  0.67961163  1
  S  S40  1  0.67853332  0.06910536  0.44496636  1
  S  S41  1  0.31451326  0.01264607  0.53752443  1
