# generated using pymatgen
data_Pr2Mn3(SbS3)4
_symmetry_space_group_name_H-M   'P 1'
_cell_length_a   20.02960800
_cell_length_b   3.90410600
_cell_length_c   14.95364829
_cell_angle_alpha   90.00000000
_cell_angle_beta   126.33350609
_cell_angle_gamma   90.00000000
_symmetry_Int_Tables_number   1
_chemical_formula_structural   Pr2Mn3(SbS3)4
_chemical_formula_sum   'Pr4 Mn6 Sb8 S24'
_cell_volume   942.00006694
_cell_formula_units_Z   2
loop_
 _symmetry_equiv_pos_site_id
 _symmetry_equiv_pos_as_xyz
  1  'x, y, z'
loop_
 _atom_site_type_symbol
 _atom_site_label
 _atom_site_symmetry_multiplicity
 _atom_site_fract_x
 _atom_site_fract_y
 _atom_site_fract_z
 _atom_site_occupancy
  Pr  Pr0  1  0.26547130  0.45239485  0.87222634  1
  Pr  Pr1  1  0.74351731  0.50654607  0.14206994  1
  Pr  Pr2  1  0.77246540  0.94714105  0.87358502  1
  Pr  Pr3  1  0.23700425  0.02614536  0.13829574  1
  Mn  Mn4  1  0.27605818  0.55490060  0.57581056  1
  Mn  Mn5  1  0.71465813  0.49655984  0.38981160  1
  Mn  Mn6  1  0.00136880  0.96973963  0.00460285  1
  Mn  Mn7  1  0.79410844  0.96113547  0.61389104  1
  Mn  Mn8  1  0.17987974  0.96977811  0.39962400  1
  Mn  Mn9  1  0.53877703  0.48484411  0.04024917  1
  Sb  Sb10  1  0.90367104  0.01209890  0.46636699  1
  Sb  Sb11  1  0.11479009  0.94165224  0.55150387  1
  Sb  Sb12  1  0.02531428  0.51315436  0.80202156  1
  Sb  Sb13  1  0.97184079  0.51145034  0.20073624  1
  Sb  Sb14  1  0.38446328  0.51034726  0.44310454  1
  Sb  Sb15  1  0.61233471  0.46310835  0.54380460  1
  Sb  Sb16  1  0.53938572  0.95444976  0.82235432  1
  Sb  Sb17  1  0.46031184  0.04472331  0.18325484  1
  S  S18  1  0.93573293  0.01239388  0.81715355  1
  S  S19  1  0.07350150  0.97231964  0.20953645  1
  S  S20  1  0.42044183  0.04522195  0.98528226  1
  S  S21  1  0.61033678  0.99156836  0.04645215  1
  S  S22  1  0.17512252  0.00552522  0.90525267  1
  S  S23  1  0.84623560  0.02665707  0.12491889  1
  S  S24  1  0.10482442  0.50380902  0.66632670  1
  S  S25  1  0.91951917  0.51277168  0.36828125  1
  S  S26  1  0.75176456  0.94743612  0.31327995  1
  S  S27  1  0.26669076  0.99525861  0.69123913  1
  S  S28  1  0.14424047  0.46016967  0.43157480  1
  S  S29  1  0.84181454  0.42141595  0.56985047  1
  S  S30  1  0.46237736  0.50299069  0.83700007  1
  S  S31  1  0.57345279  0.51426662  0.21541067  1
  S  S32  1  0.92809727  0.46572436  0.00346910  1
  S  S33  1  0.08195006  0.50147649  0.00459303  1
  S  S34  1  0.67989660  0.54087961  0.90689835  1
  S  S35  1  0.33623261  0.50459017  0.10155988  1
  S  S36  1  0.58156051  0.96041020  0.63224883  1
  S  S37  1  0.41039116  0.07630092  0.34605491  1
  S  S38  1  0.23730059  0.50807610  0.28405763  1
  S  S39  1  0.76347207  0.45476940  0.67936162  1
  S  S40  1  0.67832209  0.06846196  0.44471743  1
  S  S41  1  0.31462327  0.01310163  0.53767612  1
