# generated using pymatgen
data_Pr2Mn3(SbS3)4
_symmetry_space_group_name_H-M   'P 1'
_cell_length_a   20.02960800
_cell_length_b   3.90410600
_cell_length_c   14.95364829
_cell_angle_alpha   90.00000000
_cell_angle_beta   126.33350609
_cell_angle_gamma   90.00000000
_symmetry_Int_Tables_number   1
_chemical_formula_structural   Pr2Mn3(SbS3)4
_chemical_formula_sum   'Pr4 Mn6 Sb8 S24'
_cell_volume   942.00006694
_cell_formula_units_Z   2
loop_
 _symmetry_equiv_pos_site_id
 _symmetry_equiv_pos_as_xyz
  1  'x, y, z'
loop_
 _atom_site_type_symbol
 _atom_site_label
 _atom_site_symmetry_multiplicity
 _atom_site_fract_x
 _atom_site_fract_y
 _atom_site_fract_z
 _atom_site_occupancy
  Pr  Pr0  1  0.26555520  0.45244168  0.87250917  1
  Pr  Pr1  1  0.74350522  0.50699740  0.14208331  1
  Pr  Pr2  1  0.77239593  0.94752847  0.87367334  1
  Pr  Pr3  1  0.23714355  0.02626270  0.13830218  1
  Mn  Mn4  1  0.27615591  0.55463434  0.57584334  1
  Mn  Mn5  1  0.71480282  0.49639260  0.38992607  1
  Mn  Mn6  1  0.00161325  0.96919272  0.00491333  1
  Mn  Mn7  1  0.79397697  0.95981365  0.61397380  1
  Mn  Mn8  1  0.17996048  0.96998215  0.40027967  1
  Mn  Mn9  1  0.53881990  0.48430904  0.04030809  1
  Sb  Sb10  1  0.90372543  0.01197122  0.46622733  1
  Sb  Sb11  1  0.11485547  0.94160247  0.55154975  1
  Sb  Sb12  1  0.02518091  0.51254095  0.80214249  1
  Sb  Sb13  1  0.97179095  0.51202766  0.20054061  1
  Sb  Sb14  1  0.38423898  0.51074253  0.44297838  1
  Sb  Sb15  1  0.61234438  0.46272928  0.54374808  1
  Sb  Sb16  1  0.53943435  0.95386313  0.82264738  1
  Sb  Sb17  1  0.46020831  0.04557597  0.18339737  1
  S  S18  1  0.93544524  0.01249188  0.81689094  1
  S  S19  1  0.07334066  0.97303859  0.20919060  1
  S  S20  1  0.42070491  0.04607495  0.98532574  1
  S  S21  1  0.61047938  0.99284018  0.04619685  1
  S  S22  1  0.17512777  0.00683303  0.90528246  1
  S  S23  1  0.84580435  0.02713698  0.12474144  1
  S  S24  1  0.10476917  0.50541750  0.66616772  1
  S  S25  1  0.91966131  0.51204726  0.36871686  1
  S  S26  1  0.75193756  0.94764419  0.31331378  1
  S  S27  1  0.26628159  0.99570488  0.69102067  1
  S  S28  1  0.14428577  0.45918196  0.43131718  1
  S  S29  1  0.84149997  0.42310195  0.56970585  1
  S  S30  1  0.46272323  0.50243416  0.83722351  1
  S  S31  1  0.57355970  0.51402166  0.21556146  1
  S  S32  1  0.92796146  0.46615265  0.00356591  1
  S  S33  1  0.08205369  0.50273103  0.00467796  1
  S  S34  1  0.68014799  0.54047231  0.90713049  1
  S  S35  1  0.33616432  0.50569378  0.10107443  1
  S  S36  1  0.58164459  0.96221738  0.63236423  1
  S  S37  1  0.41070917  0.07656005  0.34634049  1
  S  S38  1  0.23733499  0.50851482  0.28418072  1
  S  S39  1  0.76309377  0.45437627  0.67901450  1
  S  S40  1  0.67795311  0.06728146  0.44430509  1
  S  S41  1  0.31473778  0.01306347  0.53795635  1
