# generated using pymatgen
data_Pr2Mn3(SbS3)4
_symmetry_space_group_name_H-M   'P 1'
_cell_length_a   20.02960800
_cell_length_b   3.90410600
_cell_length_c   14.95364829
_cell_angle_alpha   90.00000000
_cell_angle_beta   126.33350609
_cell_angle_gamma   90.00000000
_symmetry_Int_Tables_number   1
_chemical_formula_structural   Pr2Mn3(SbS3)4
_chemical_formula_sum   'Pr4 Mn6 Sb8 S24'
_cell_volume   942.00006694
_cell_formula_units_Z   2
loop_
 _symmetry_equiv_pos_site_id
 _symmetry_equiv_pos_as_xyz
  1  'x, y, z'
loop_
 _atom_site_type_symbol
 _atom_site_label
 _atom_site_symmetry_multiplicity
 _atom_site_fract_x
 _atom_site_fract_y
 _atom_site_fract_z
 _atom_site_occupancy
  Pr  Pr0  1  0.26570330  0.45231479  0.87294325  1
  Pr  Pr1  1  0.74358312  0.50745533  0.14214996  1
  Pr  Pr2  1  0.77239396  0.94795169  0.87385723  1
  Pr  Pr3  1  0.23725569  0.02658732  0.13829239  1
  Mn  Mn4  1  0.27622434  0.55473475  0.57593430  1
  Mn  Mn5  1  0.71493220  0.49661484  0.38993772  1
  Mn  Mn6  1  0.00181372  0.96870857  0.00530995  1
  Mn  Mn7  1  0.79391290  0.95854158  0.61420552  1
  Mn  Mn8  1  0.18004797  0.96995746  0.40089582  1
  Mn  Mn9  1  0.53894876  0.48404729  0.04045907  1
  Sb  Sb10  1  0.90373390  0.01205162  0.46604141  1
  Sb  Sb11  1  0.11487221  0.94159619  0.55154657  1
  Sb  Sb12  1  0.02507163  0.51221544  0.80221756  1
  Sb  Sb13  1  0.97169575  0.51265139  0.20031306  1
  Sb  Sb14  1  0.38407016  0.51126556  0.44285596  1
  Sb  Sb15  1  0.61235708  0.46236381  0.54367420  1
  Sb  Sb16  1  0.53948833  0.95325999  0.82296398  1
  Sb  Sb17  1  0.46009185  0.04625702  0.18346564  1
  S  S18  1  0.93529717  0.01322284  0.81666462  1
  S  S19  1  0.07307605  0.97348353  0.20870283  1
  S  S20  1  0.42087983  0.04683750  0.98536785  1
  S  S21  1  0.61054128  0.99345284  0.04584378  1
  S  S22  1  0.17514779  0.00822577  0.90533235  1
  S  S23  1  0.84525409  0.02656885  0.12462268  1
  S  S24  1  0.10464566  0.50625990  0.66593124  1
  S  S25  1  0.91990956  0.51112241  0.36908294  1
  S  S26  1  0.75226139  0.94752823  0.31357510  1
  S  S27  1  0.26587286  0.99646433  0.69086323  1
  S  S28  1  0.14440315  0.45799888  0.43119077  1
  S  S29  1  0.84124325  0.42453719  0.56960252  1
  S  S30  1  0.46291828  0.50209588  0.83742038  1
  S  S31  1  0.57360082  0.51317229  0.21568706  1
  S  S32  1  0.92792198  0.46700897  0.00390853  1
  S  S33  1  0.08207430  0.50370015  0.00473341  1
  S  S34  1  0.68039029  0.54057012  0.90729292  1
  S  S35  1  0.33603590  0.50601739  0.10064534  1
  S  S36  1  0.58175113  0.96319564  0.63254360  1
  S  S37  1  0.41097103  0.07601278  0.34661050  1
  S  S38  1  0.23729373  0.50840042  0.28416564  1
  S  S39  1  0.76279907  0.45405677  0.67875573  1
  S  S40  1  0.67778470  0.06590181  0.44382671  1
  S  S41  1  0.31485392  0.01336392  0.53797516  1
