# generated using pymatgen
data_Pr2Mn3(SbS3)4
_symmetry_space_group_name_H-M   'P 1'
_cell_length_a   20.02960800
_cell_length_b   3.90410600
_cell_length_c   14.95364829
_cell_angle_alpha   90.00000000
_cell_angle_beta   126.33350609
_cell_angle_gamma   90.00000000
_symmetry_Int_Tables_number   1
_chemical_formula_structural   Pr2Mn3(SbS3)4
_chemical_formula_sum   'Pr4 Mn6 Sb8 S24'
_cell_volume   942.00006694
_cell_formula_units_Z   2
loop_
 _symmetry_equiv_pos_site_id
 _symmetry_equiv_pos_as_xyz
  1  'x, y, z'
loop_
 _atom_site_type_symbol
 _atom_site_label
 _atom_site_symmetry_multiplicity
 _atom_site_fract_x
 _atom_site_fract_y
 _atom_site_fract_z
 _atom_site_occupancy
  Pr  Pr0  1  0.26592251  0.45210606  0.87336946  1
  Pr  Pr1  1  0.74362172  0.50811123  0.14217806  1
  Pr  Pr2  1  0.77233605  0.94820711  0.87390903  1
  Pr  Pr3  1  0.23739289  0.02692820  0.13835647  1
  Mn  Mn4  1  0.27622405  0.55476923  0.57600182  1
  Mn  Mn5  1  0.71498425  0.49663683  0.38987050  1
  Mn  Mn6  1  0.00187079  0.96804344  0.00557198  1
  Mn  Mn7  1  0.79392015  0.95783269  0.61463408  1
  Mn  Mn8  1  0.18024683  0.96986074  0.40157945  1
  Mn  Mn9  1  0.53895517  0.48354868  0.04052807  1
  Sb  Sb10  1  0.90366043  0.01200438  0.46588168  1
  Sb  Sb11  1  0.11492567  0.94132849  0.55159943  1
  Sb  Sb12  1  0.02499103  0.51194715  0.80233632  1
  Sb  Sb13  1  0.97159935  0.51315527  0.20017330  1
  Sb  Sb14  1  0.38385226  0.51169536  0.44264333  1
  Sb  Sb15  1  0.61242884  0.46206149  0.54375095  1
  Sb  Sb16  1  0.53954688  0.95290796  0.82331856  1
  Sb  Sb17  1  0.45988864  0.04716711  0.18337578  1
  S  S18  1  0.93518676  0.01416435  0.81633589  1
  S  S19  1  0.07272483  0.97329994  0.20797799  1
  S  S20  1  0.42115426  0.04792081  0.98555027  1
  S  S21  1  0.61068073  0.99390366  0.04573242  1
  S  S22  1  0.17512965  0.00970843  0.90530628  1
  S  S23  1  0.84478112  0.02640978  0.12442826  1
  S  S24  1  0.10461546  0.50703746  0.66579890  1
  S  S25  1  0.92004890  0.51057853  0.36932690  1
  S  S26  1  0.75257756  0.94758221  0.31384008  1
  S  S27  1  0.26556196  0.99762176  0.69067167  1
  S  S28  1  0.14442833  0.45739358  0.43100391  1
  S  S29  1  0.84081426  0.42595485  0.56935292  1
  S  S30  1  0.46310583  0.50153309  0.83769103  1
  S  S31  1  0.57365331  0.51251683  0.21571759  1
  S  S32  1  0.92777073  0.46794108  0.00409447  1
  S  S33  1  0.08228954  0.50421897  0.00499392  1
  S  S34  1  0.68049929  0.54038564  0.90744680  1
  S  S35  1  0.33581206  0.50643648  0.10021587  1
  S  S36  1  0.58185407  0.96379430  0.63287519  1
  S  S37  1  0.41116757  0.07559750  0.34684568  1
  S  S38  1  0.23737321  0.50793914  0.28426287  1
  S  S39  1  0.76249434  0.45361512  0.67845241  1
  S  S40  1  0.67763170  0.06524350  0.44339812  1
  S  S41  1  0.31489935  0.01342795  0.53781032  1
