# generated using pymatgen
data_Pr2Mn3(SbS3)4
_symmetry_space_group_name_H-M   'P 1'
_cell_length_a   20.02960800
_cell_length_b   3.90410600
_cell_length_c   14.95364829
_cell_angle_alpha   90.00000000
_cell_angle_beta   126.33350609
_cell_angle_gamma   90.00000000
_symmetry_Int_Tables_number   1
_chemical_formula_structural   Pr2Mn3(SbS3)4
_chemical_formula_sum   'Pr4 Mn6 Sb8 S24'
_cell_volume   942.00006694
_cell_formula_units_Z   2
loop_
 _symmetry_equiv_pos_site_id
 _symmetry_equiv_pos_as_xyz
  1  'x, y, z'
loop_
 _atom_site_type_symbol
 _atom_site_label
 _atom_site_symmetry_multiplicity
 _atom_site_fract_x
 _atom_site_fract_y
 _atom_site_fract_z
 _atom_site_occupancy
  Pr  Pr0  1  0.26603206  0.45191300  0.87362586  1
  Pr  Pr1  1  0.74368267  0.50813313  0.14233082  1
  Pr  Pr2  1  0.77234583  0.94871489  0.87403128  1
  Pr  Pr3  1  0.23753876  0.02721987  0.13844359  1
  Mn  Mn4  1  0.27610828  0.55465921  0.57612480  1
  Mn  Mn5  1  0.71510883  0.49661936  0.38995753  1
  Mn  Mn6  1  0.00185813  0.96712843  0.00560767  1
  Mn  Mn7  1  0.79383914  0.95745714  0.61484606  1
  Mn  Mn8  1  0.18042830  0.96957364  0.40212613  1
  Mn  Mn9  1  0.53892305  0.48304835  0.04050455  1
  Sb  Sb10  1  0.90363708  0.01194248  0.46579933  1
  Sb  Sb11  1  0.11496500  0.94140373  0.55171365  1
  Sb  Sb12  1  0.02490867  0.51175465  0.80245382  1
  Sb  Sb13  1  0.97151002  0.51363269  0.20002318  1
  Sb  Sb14  1  0.38362167  0.51215581  0.44248951  1
  Sb  Sb15  1  0.61252286  0.46206692  0.54380381  1
  Sb  Sb16  1  0.53960447  0.95253315  0.82359860  1
  Sb  Sb17  1  0.45972693  0.04838263  0.18325395  1
  S  S18  1  0.93506511  0.01547883  0.81601725  1
  S  S19  1  0.07224230  0.97300381  0.20703742  1
  S  S20  1  0.42153615  0.04902473  0.98584836  1
  S  S21  1  0.61089154  0.99486382  0.04557977  1
  S  S22  1  0.17514528  0.01094492  0.90528000  1
  S  S23  1  0.84416456  0.02561476  0.12413989  1
  S  S24  1  0.10458794  0.50824891  0.66560916  1
  S  S25  1  0.92025035  0.51041922  0.36954836  1
  S  S26  1  0.75283072  0.94794803  0.31408758  1
  S  S27  1  0.26542344  0.99798019  0.69049007  1
  S  S28  1  0.14450465  0.45628681  0.43086185  1
  S  S29  1  0.84036854  0.42717081  0.56904746  1
  S  S30  1  0.46330119  0.50126128  0.83797954  1
  S  S31  1  0.57387999  0.51193887  0.21586882  1
  S  S32  1  0.92753614  0.46899683  0.00421124  1
  S  S33  1  0.08239633  0.50547759  0.00529477  1
  S  S34  1  0.68050532  0.53998643  0.90745416  1
  S  S35  1  0.33569906  0.50687503  0.09983644  1
  S  S36  1  0.58193542  0.96365059  0.63320450  1
  S  S37  1  0.41133946  0.07459490  0.34717995  1
  S  S38  1  0.23740133  0.50792947  0.28445111  1
  S  S39  1  0.76226083  0.45350339  0.67806283  1
  S  S40  1  0.67738698  0.06443651  0.44300689  1
  S  S41  1  0.31505973  0.01332242  0.53766155  1
