# generated using pymatgen
data_Pr2Mn3(SbS3)4
_symmetry_space_group_name_H-M   'P 1'
_cell_length_a   20.02960800
_cell_length_b   3.90410600
_cell_length_c   14.95364829
_cell_angle_alpha   90.00000000
_cell_angle_beta   126.33350609
_cell_angle_gamma   90.00000000
_symmetry_Int_Tables_number   1
_chemical_formula_structural   Pr2Mn3(SbS3)4
_chemical_formula_sum   'Pr4 Mn6 Sb8 S24'
_cell_volume   942.00006694
_cell_formula_units_Z   2
loop_
 _symmetry_equiv_pos_site_id
 _symmetry_equiv_pos_as_xyz
  1  'x, y, z'
loop_
 _atom_site_type_symbol
 _atom_site_label
 _atom_site_symmetry_multiplicity
 _atom_site_fract_x
 _atom_site_fract_y
 _atom_site_fract_z
 _atom_site_occupancy
  Pr  Pr0  1  0.26625952  0.45179587  0.87404103  1
  Pr  Pr1  1  0.74371579  0.50839372  0.14256671  1
  Pr  Pr2  1  0.77235187  0.94921954  0.87406135  1
  Pr  Pr3  1  0.23762352  0.02787257  0.13848926  1
  Mn  Mn4  1  0.27609905  0.55410018  0.57645664  1
  Mn  Mn5  1  0.71521571  0.49690566  0.39008787  1
  Mn  Mn6  1  0.00191959  0.96606390  0.00564128  1
  Mn  Mn7  1  0.79386310  0.95765888  0.61517839  1
  Mn  Mn8  1  0.18060163  0.96937409  0.40264608  1
  Mn  Mn9  1  0.53893365  0.48255153  0.04055207  1
  Sb  Sb10  1  0.90358260  0.01183796  0.46567452  1
  Sb  Sb11  1  0.11491644  0.94145617  0.55169602  1
  Sb  Sb12  1  0.02479901  0.51178034  0.80251669  1
  Sb  Sb13  1  0.97141633  0.51398938  0.19985259  1
  Sb  Sb14  1  0.38347689  0.51271680  0.44248579  1
  Sb  Sb15  1  0.61260675  0.46185863  0.54383635  1
  Sb  Sb16  1  0.53957829  0.95231260  0.82373879  1
  Sb  Sb17  1  0.45953330  0.04959075  0.18312541  1
  S  S18  1  0.93482191  0.01661957  0.81566408  1
  S  S19  1  0.07174377  0.97239493  0.20611648  1
  S  S20  1  0.42189134  0.04949211  0.98596632  1
  S  S21  1  0.61106939  0.99565463  0.04552724  1
  S  S22  1  0.17511113  0.01200242  0.90528080  1
  S  S23  1  0.84365869  0.02520522  0.12396270  1
  S  S24  1  0.10442541  0.50884016  0.66515117  1
  S  S25  1  0.92062611  0.50974982  0.36986198  1
  S  S26  1  0.75289294  0.94884736  0.31403531  1
  S  S27  1  0.26534126  0.99869679  0.69039465  1
  S  S28  1  0.14457483  0.45572642  0.43073200  1
  S  S29  1  0.84013181  0.42795772  0.56878498  1
  S  S30  1  0.46351313  0.50096426  0.83832622  1
  S  S31  1  0.57422594  0.51190050  0.21610258  1
  S  S32  1  0.92735215  0.46976901  0.00431129  1
  S  S33  1  0.08242289  0.50615426  0.00569716  1
  S  S34  1  0.68054815  0.54017396  0.90768501  1
  S  S35  1  0.33531037  0.50666502  0.09926648  1
  S  S36  1  0.58207864  0.96256719  0.63355238  1
  S  S37  1  0.41137072  0.07346348  0.34739197  1
  S  S38  1  0.23743673  0.50802018  0.28456045  1
  S  S39  1  0.76198787  0.45307849  0.67774286  1
  S  S40  1  0.67711352  0.06360170  0.44253045  1
  S  S41  1  0.31507286  0.01325528  0.53747807  1
