# generated using pymatgen
data_Pr2Mn3(SbS3)4
_symmetry_space_group_name_H-M   'P 1'
_cell_length_a   20.02960800
_cell_length_b   3.90410600
_cell_length_c   14.95364829
_cell_angle_alpha   90.00000000
_cell_angle_beta   126.33350609
_cell_angle_gamma   90.00000000
_symmetry_Int_Tables_number   1
_chemical_formula_structural   Pr2Mn3(SbS3)4
_chemical_formula_sum   'Pr4 Mn6 Sb8 S24'
_cell_volume   942.00006694
_cell_formula_units_Z   2
loop_
 _symmetry_equiv_pos_site_id
 _symmetry_equiv_pos_as_xyz
  1  'x, y, z'
loop_
 _atom_site_type_symbol
 _atom_site_label
 _atom_site_symmetry_multiplicity
 _atom_site_fract_x
 _atom_site_fract_y
 _atom_site_fract_z
 _atom_site_occupancy
  Pr  Pr0  1  0.26649386  0.45146089  0.87442568  1
  Pr  Pr1  1  0.74382434  0.50857118  0.14287307  1
  Pr  Pr2  1  0.77240874  0.94969196  0.87413951  1
  Pr  Pr3  1  0.23762880  0.02843033  0.13847359  1
  Mn  Mn4  1  0.27601869  0.55392660  0.57667106  1
  Mn  Mn5  1  0.71539885  0.49727378  0.39028050  1
  Mn  Mn6  1  0.00196608  0.96445825  0.00569672  1
  Mn  Mn7  1  0.79385954  0.95789285  0.61546640  1
  Mn  Mn8  1  0.18073149  0.96960455  0.40302991  1
  Mn  Mn9  1  0.53899144  0.48181207  0.04069198  1
  Sb  Sb10  1  0.90357038  0.01171659  0.46554977  1
  Sb  Sb11  1  0.11483423  0.94150197  0.55170478  1
  Sb  Sb12  1  0.02480011  0.51183277  0.80274283  1
  Sb  Sb13  1  0.97129989  0.51460109  0.19971964  1
  Sb  Sb14  1  0.38339054  0.51339503  0.44254783  1
  Sb  Sb15  1  0.61265197  0.46135736  0.54389061  1
  Sb  Sb16  1  0.53958014  0.95215759  0.82384022  1
  Sb  Sb17  1  0.45935448  0.05076798  0.18294862  1
  S  S18  1  0.93472201  0.01845234  0.81546898  1
  S  S19  1  0.07148917  0.97192976  0.20519312  1
  S  S20  1  0.42228325  0.04972232  0.98595533  1
  S  S21  1  0.61123715  0.99617210  0.04541427  1
  S  S22  1  0.17498518  0.01347850  0.90514833  1
  S  S23  1  0.84318168  0.02559256  0.12362496  1
  S  S24  1  0.10429802  0.50942311  0.66452474  1
  S  S25  1  0.92101307  0.50912971  0.37037974  1
  S  S26  1  0.75286680  0.94952459  0.31386630  1
  S  S27  1  0.26523510  0.99982521  0.69026868  1
  S  S28  1  0.14460066  0.45516452  0.43047609  1
  S  S29  1  0.83985256  0.42861051  0.56831991  1
  S  S30  1  0.46380264  0.50114446  0.83878485  1
  S  S31  1  0.57471275  0.51152120  0.21639523  1
  S  S32  1  0.92725207  0.47071672  0.00448042  1
  S  S33  1  0.08251138  0.50622063  0.00614329  1
  S  S34  1  0.68056558  0.54027182  0.90793762  1
  S  S35  1  0.33498150  0.50701379  0.09870866  1
  S  S36  1  0.58210178  0.96141669  0.63381197  1
  S  S37  1  0.41143201  0.07224047  0.34760442  1
  S  S38  1  0.23755394  0.50816783  0.28482220  1
  S  S39  1  0.76178518  0.45290299  0.67733055  1
  S  S40  1  0.67665364  0.06362461  0.44196623  1
  S  S41  1  0.31509974  0.01292798  0.53720125  1
