# generated using pymatgen
data_Pr2Mn3(SbS3)4
_symmetry_space_group_name_H-M   'P 1'
_cell_length_a   20.02960800
_cell_length_b   3.90410600
_cell_length_c   14.95364829
_cell_angle_alpha   90.00000000
_cell_angle_beta   126.33350609
_cell_angle_gamma   90.00000000
_symmetry_Int_Tables_number   1
_chemical_formula_structural   Pr2Mn3(SbS3)4
_chemical_formula_sum   'Pr4 Mn6 Sb8 S24'
_cell_volume   942.00006694
_cell_formula_units_Z   2
loop_
 _symmetry_equiv_pos_site_id
 _symmetry_equiv_pos_as_xyz
  1  'x, y, z'
loop_
 _atom_site_type_symbol
 _atom_site_label
 _atom_site_symmetry_multiplicity
 _atom_site_fract_x
 _atom_site_fract_y
 _atom_site_fract_z
 _atom_site_occupancy
  Pr  Pr0  1  0.26670068  0.45113919  0.87466784  1
  Pr  Pr1  1  0.74384663  0.50875853  0.14321473  1
  Pr  Pr2  1  0.77245049  0.95009739  0.87424990  1
  Pr  Pr3  1  0.23763097  0.02884031  0.13852364  1
  Mn  Mn4  1  0.27592843  0.55410935  0.57683291  1
  Mn  Mn5  1  0.71562044  0.49741360  0.39043943  1
  Mn  Mn6  1  0.00199309  0.96245897  0.00577413  1
  Mn  Mn7  1  0.79373294  0.95815113  0.61562997  1
  Mn  Mn8  1  0.18079438  0.96987261  0.40336907  1
  Mn  Mn9  1  0.53898760  0.48092453  0.04070843  1
  Sb  Sb10  1  0.90353396  0.01164505  0.46540735  1
  Sb  Sb11  1  0.11473934  0.94166624  0.55171063  1
  Sb  Sb12  1  0.02477879  0.51167512  0.80301425  1
  Sb  Sb13  1  0.97119787  0.51492786  0.19954225  1
  Sb  Sb14  1  0.38337162  0.51389168  0.44263600  1
  Sb  Sb15  1  0.61276888  0.46076252  0.54404077  1
  Sb  Sb16  1  0.53960520  0.95206391  0.82389899  1
  Sb  Sb17  1  0.45919014  0.05159971  0.18278485  1
  S  S18  1  0.93475117  0.01959387  0.81540289  1
  S  S19  1  0.07123350  0.97183488  0.20425111  1
  S  S20  1  0.42267929  0.04968017  0.98603969  1
  S  S21  1  0.61155447  0.99646590  0.04540988  1
  S  S22  1  0.17482046  0.01480256  0.90510432  1
  S  S23  1  0.84273934  0.02607160  0.12353376  1
  S  S24  1  0.10429070  0.50918052  0.66406243  1
  S  S25  1  0.92126976  0.50865961  0.37095084  1
  S  S26  1  0.75275716  0.95039536  0.31353891  1
  S  S27  1  0.26514518  0.00045837  0.69023641  1
  S  S28  1  0.14450298  0.45521265  0.43015804  1
  S  S29  1  0.83946044  0.42935247  0.56781967  1
  S  S30  1  0.46403308  0.50141146  0.83904967  1
  S  S31  1  0.57539869  0.51052412  0.21693845  1
  S  S32  1  0.92713284  0.47138703  0.00463907  1
  S  S33  1  0.08274292  0.50619275  0.00656705  1
  S  S34  1  0.68061149  0.54020826  0.90821156  1
  S  S35  1  0.33470180  0.50700864  0.09828011  1
  S  S36  1  0.58219885  0.96085399  0.63407117  1
  S  S37  1  0.41164784  0.07105958  0.34786965  1
  S  S38  1  0.23777061  0.50826490  0.28514550  1
  S  S39  1  0.76158960  0.45251071  0.67712627  1
  S  S40  1  0.67612994  0.06381265  0.44136285  1
  S  S41  1  0.31525672  0.01304819  0.53709011  1
