# generated using pymatgen
data_Pr2Mn3(SbS3)4
_symmetry_space_group_name_H-M   'P 1'
_cell_length_a   20.02960800
_cell_length_b   3.90410600
_cell_length_c   14.95364829
_cell_angle_alpha   90.00000000
_cell_angle_beta   126.33350609
_cell_angle_gamma   90.00000000
_symmetry_Int_Tables_number   1
_chemical_formula_structural   Pr2Mn3(SbS3)4
_chemical_formula_sum   'Pr4 Mn6 Sb8 S24'
_cell_volume   942.00006694
_cell_formula_units_Z   2
loop_
 _symmetry_equiv_pos_site_id
 _symmetry_equiv_pos_as_xyz
  1  'x, y, z'
loop_
 _atom_site_type_symbol
 _atom_site_label
 _atom_site_symmetry_multiplicity
 _atom_site_fract_x
 _atom_site_fract_y
 _atom_site_fract_z
 _atom_site_occupancy
  Pr  Pr0  1  0.26946711  0.50781696  0.87511175  1
  Pr  Pr1  1  0.73341882  0.52167562  0.13364154  1
  Pr  Pr2  1  0.76431257  0.03085537  0.87142052  1
  Pr  Pr3  1  0.22826961  0.95784005  0.12594106  1
  Mn  Mn4  1  0.29609655  0.45206350  0.60807927  1
  Mn  Mn5  1  0.68595756  0.45579056  0.36374673  1
  Mn  Mn6  1  0.99876017  0.97942070  0.00598570  1
  Mn  Mn7  1  0.78980746  0.01617166  0.61371634  1
  Mn  Mn8  1  0.20029169  0.03033207  0.37280550  1
  Mn  Mn9  1  0.48014182  0.47344161  0.97675529  1
  Sb  Sb10  1  0.89254807  0.97030772  0.44989396  1
  Sb  Sb11  1  0.11374091  0.97571867  0.54845337  1
  Sb  Sb12  1  0.03940504  0.51627043  0.82842207  1
  Sb  Sb13  1  0.96785517  0.48276844  0.19298026  1
  Sb  Sb14  1  0.39879670  0.49314546  0.45368445  1
  Sb  Sb15  1  0.61336042  0.48600604  0.54809321  1
  Sb  Sb16  1  0.52970474  0.97070110  0.80646414  1
  Sb  Sb17  1  0.46566459  0.03211339  0.18434563  1
  S  S18  1  0.93537171  0.98759710  0.80067212  1
  S  S19  1  0.06695619  0.98333073  0.20226648  1
  S  S20  1  0.41998978  0.97816830  0.97803116  1
  S  S21  1  0.58387155  0.01817648  0.00672078  1
  S  S22  1  0.16153476  0.02500118  0.89533779  1
  S  S23  1  0.83002786  0.97781454  0.10566749  1
  S  S24  1  0.09080316  0.49629698  0.63777922  1
  S  S25  1  0.91545046  0.50578337  0.35761322  1
  S  S26  1  0.73482134  0.99142078  0.29870564  1
  S  S27  1  0.26397761  0.01773876  0.70356515  1
  S  S28  1  0.17190153  0.52012100  0.44344807  1
  S  S29  1  0.80743211  0.53704516  0.53871534  1
  S  S30  1  0.43196535  0.47581559  0.79406029  1
  S  S31  1  0.55426427  0.48812653  0.17501661  1
  S  S32  1  0.91803602  0.52523478  0.98653975  1
  S  S33  1  0.08430158  0.49102498  0.02394479  1
  S  S34  1  0.66753218  0.55530219  0.88842807  1
  S  S35  1  0.32946943  0.45911679  0.10120084  1
  S  S36  1  0.58889313  0.98240366  0.64136244  1
  S  S37  1  0.39380984  0.99977470  0.33193945  1
  S  S38  1  0.24348813  0.47644432  0.31392684  1
  S  S39  1  0.76307760  0.48186007  0.69393769  1
  S  S40  1  0.65774558  0.99470153  0.43410766  1
  S  S41  1  0.32961362  0.97261267  0.55489754  1
