# generated using pymatgen
data_Pr2Mn3(SbS3)4
_symmetry_space_group_name_H-M   'P 1'
_cell_length_a   20.02960800
_cell_length_b   3.90410600
_cell_length_c   14.95364829
_cell_angle_alpha   90.00000000
_cell_angle_beta   126.33350609
_cell_angle_gamma   90.00000000
_symmetry_Int_Tables_number   1
_chemical_formula_structural   Pr2Mn3(SbS3)4
_chemical_formula_sum   'Pr4 Mn6 Sb8 S24'
_cell_volume   942.00006694
_cell_formula_units_Z   2
loop_
 _symmetry_equiv_pos_site_id
 _symmetry_equiv_pos_as_xyz
  1  'x, y, z'
loop_
 _atom_site_type_symbol
 _atom_site_label
 _atom_site_symmetry_multiplicity
 _atom_site_fract_x
 _atom_site_fract_y
 _atom_site_fract_z
 _atom_site_occupancy
  Pr  Pr0  1  0.26686919  0.45102231  0.87478048  1
  Pr  Pr1  1  0.74382329  0.50897248  0.14357134  1
  Pr  Pr2  1  0.77249102  0.95077972  0.87434051  1
  Pr  Pr3  1  0.23763030  0.02937085  0.13857898  1
  Mn  Mn4  1  0.27591775  0.55448424  0.57703710  1
  Mn  Mn5  1  0.71572508  0.49824111  0.39042762  1
  Mn  Mn6  1  0.00214191  0.96073937  0.00592964  1
  Mn  Mn7  1  0.79364539  0.95822636  0.61576217  1
  Mn  Mn8  1  0.18086484  0.97040655  0.40363295  1
  Mn  Mn9  1  0.53903143  0.48011981  0.04069625  1
  Sb  Sb10  1  0.90347408  0.01115178  0.46529938  1
  Sb  Sb11  1  0.11466504  0.94188692  0.55171653  1
  Sb  Sb12  1  0.02468728  0.51132975  0.80317361  1
  Sb  Sb13  1  0.97112592  0.51539173  0.19944640  1
  Sb  Sb14  1  0.38334965  0.51470278  0.44277898  1
  Sb  Sb15  1  0.61285642  0.46039750  0.54416791  1
  Sb  Sb16  1  0.53954844  0.95178261  0.82386679  1
  Sb  Sb17  1  0.45905124  0.05238594  0.18264569  1
  S  S18  1  0.93487903  0.02047765  0.81535139  1
  S  S19  1  0.07106963  0.97178270  0.20345244  1
  S  S20  1  0.42292753  0.04954791  0.98615964  1
  S  S21  1  0.61194467  0.99722310  0.04557557  1
  S  S22  1  0.17473362  0.01644369  0.90516209  1
  S  S23  1  0.84244213  0.02605770  0.12347827  1
  S  S24  1  0.10429443  0.50855055  0.66361800  1
  S  S25  1  0.92135777  0.50831797  0.37115916  1
  S  S26  1  0.75272909  0.95077125  0.31335096  1
  S  S27  1  0.26494059  0.00149019  0.69009993  1
  S  S28  1  0.14429290  0.45612725  0.42997686  1
  S  S29  1  0.83911987  0.42945042  0.56734621  1
  S  S30  1  0.46434300  0.50132940  0.83951439  1
  S  S31  1  0.57601968  0.51014622  0.21740804  1
  S  S32  1  0.92715697  0.47163808  0.00487724  1
  S  S33  1  0.08276176  0.50603372  0.00676382  1
  S  S34  1  0.68065146  0.53955549  0.90838592  1
  S  S35  1  0.33437758  0.50729864  0.09785732  1
  S  S36  1  0.58238096  0.96015330  0.63430381  1
  S  S37  1  0.41178528  0.07029971  0.34820194  1
  S  S38  1  0.23811561  0.50841371  0.28551454  1
  S  S39  1  0.76151548  0.45192080  0.67704989  1
  S  S40  1  0.67559260  0.06339348  0.44066439  1
  S  S41  1  0.31538775  0.01241077  0.53704173  1
