# generated using pymatgen
data_Pr2Mn3(SbS3)4
_symmetry_space_group_name_H-M   'P 1'
_cell_length_a   20.02960800
_cell_length_b   3.90410600
_cell_length_c   14.95364829
_cell_angle_alpha   90.00000000
_cell_angle_beta   126.33350609
_cell_angle_gamma   90.00000000
_symmetry_Int_Tables_number   1
_chemical_formula_structural   Pr2Mn3(SbS3)4
_chemical_formula_sum   'Pr4 Mn6 Sb8 S24'
_cell_volume   942.00006694
_cell_formula_units_Z   2
loop_
 _symmetry_equiv_pos_site_id
 _symmetry_equiv_pos_as_xyz
  1  'x, y, z'
loop_
 _atom_site_type_symbol
 _atom_site_label
 _atom_site_symmetry_multiplicity
 _atom_site_fract_x
 _atom_site_fract_y
 _atom_site_fract_z
 _atom_site_occupancy
  Pr  Pr0  1  0.26704369  0.45076767  0.87490692  1
  Pr  Pr1  1  0.74385109  0.50900474  0.14397914  1
  Pr  Pr2  1  0.77257023  0.95154059  0.87453063  1
  Pr  Pr3  1  0.23764988  0.02988437  0.13870039  1
  Mn  Mn4  1  0.27603673  0.55495155  0.57729031  1
  Mn  Mn5  1  0.71574314  0.49941688  0.39037020  1
  Mn  Mn6  1  0.00219483  0.95899886  0.00590807  1
  Mn  Mn7  1  0.79364463  0.95777721  0.61588034  1
  Mn  Mn8  1  0.18098228  0.97111466  0.40392112  1
  Mn  Mn9  1  0.53902859  0.47890380  0.04070072  1
  Sb  Sb10  1  0.90344061  0.01068554  0.46520687  1
  Sb  Sb11  1  0.11458184  0.94169377  0.55176790  1
  Sb  Sb12  1  0.02459303  0.51107694  0.80338927  1
  Sb  Sb13  1  0.97108500  0.51563949  0.19937730  1
  Sb  Sb14  1  0.38337828  0.51563450  0.44290425  1
  Sb  Sb15  1  0.61296375  0.45992874  0.54427511  1
  Sb  Sb16  1  0.53951417  0.95166305  0.82381519  1
  Sb  Sb17  1  0.45890452  0.05300739  0.18251125  1
  S  S18  1  0.93501648  0.02119855  0.81530332  1
  S  S19  1  0.07088017  0.97155617  0.20268186  1
  S  S20  1  0.42297120  0.04911908  0.98603727  1
  S  S21  1  0.61212052  0.99681511  0.04572354  1
  S  S22  1  0.17470773  0.01801000  0.90519840  1
  S  S23  1  0.84220282  0.02580114  0.12337040  1
  S  S24  1  0.10449852  0.50794251  0.66343318  1
  S  S25  1  0.92140749  0.50844759  0.37142826  1
  S  S26  1  0.75268584  0.95043469  0.31312794  1
  S  S27  1  0.26483150  0.00272350  0.69008000  1
  S  S28  1  0.14413214  0.45680292  0.42992373  1
  S  S29  1  0.83876507  0.42917355  0.56686903  1
  S  S30  1  0.46451640  0.50206501  0.83991402  1
  S  S31  1  0.57655640  0.50975881  0.21783834  1
  S  S32  1  0.92731423  0.47139421  0.00528920  1
  S  S33  1  0.08285876  0.50568400  0.00710552  1
  S  S34  1  0.68059539  0.53890599  0.90853274  1
  S  S35  1  0.33416739  0.50772796  0.09762950  1
  S  S36  1  0.58264540  0.95977680  0.63466387  1
  S  S37  1  0.41195851  0.06917545  0.34850112  1
  S  S38  1  0.23834511  0.50848798  0.28565318  1
  S  S39  1  0.76137836  0.45036661  0.67682719  1
  S  S40  1  0.67515221  0.06327167  0.44005887  1
  S  S41  1  0.31572926  0.01214758  0.53717061  1
