# generated using pymatgen
data_Pr2Mn3(SbS3)4
_symmetry_space_group_name_H-M   'P 1'
_cell_length_a   20.02960800
_cell_length_b   3.90410600
_cell_length_c   14.95364829
_cell_angle_alpha   90.00000000
_cell_angle_beta   126.33350609
_cell_angle_gamma   90.00000000
_symmetry_Int_Tables_number   1
_chemical_formula_structural   Pr2Mn3(SbS3)4
_chemical_formula_sum   'Pr4 Mn6 Sb8 S24'
_cell_volume   942.00006694
_cell_formula_units_Z   2
loop_
 _symmetry_equiv_pos_site_id
 _symmetry_equiv_pos_as_xyz
  1  'x, y, z'
loop_
 _atom_site_type_symbol
 _atom_site_label
 _atom_site_symmetry_multiplicity
 _atom_site_fract_x
 _atom_site_fract_y
 _atom_site_fract_z
 _atom_site_occupancy
  Pr  Pr0  1  0.26719879  0.45033617  0.87498430  1
  Pr  Pr1  1  0.74391761  0.50916716  0.14435814  1
  Pr  Pr2  1  0.77263620  0.95242354  0.87474796  1
  Pr  Pr3  1  0.23764643  0.03042368  0.13878034  1
  Mn  Mn4  1  0.27614874  0.55530086  0.57748632  1
  Mn  Mn5  1  0.71576579  0.50078747  0.39033944  1
  Mn  Mn6  1  0.00228028  0.95728890  0.00595265  1
  Mn  Mn7  1  0.79352430  0.95667146  0.61599379  1
  Mn  Mn8  1  0.18103575  0.97188832  0.40406065  1
  Mn  Mn9  1  0.53905940  0.47792163  0.04079100  1
  Sb  Sb10  1  0.90348644  0.01043491  0.46523554  1
  Sb  Sb11  1  0.11449190  0.94177380  0.55173104  1
  Sb  Sb12  1  0.02457942  0.51063292  0.80363035  1
  Sb  Sb13  1  0.97105492  0.51576340  0.19926751  1
  Sb  Sb14  1  0.38342386  0.51628013  0.44301397  1
  Sb  Sb15  1  0.61300095  0.45961573  0.54436852  1
  Sb  Sb16  1  0.53946397  0.95187097  0.82365143  1
  Sb  Sb17  1  0.45874411  0.05350135  0.18242385  1
  S  S18  1  0.93524332  0.02155641  0.81530173  1
  S  S19  1  0.07077700  0.97080528  0.20187145  1
  S  S20  1  0.42311289  0.04918779  0.98611848  1
  S  S21  1  0.61225807  0.99687753  0.04566995  1
  S  S22  1  0.17478113  0.01992521  0.90544407  1
  S  S23  1  0.84203305  0.02513693  0.12357716  1
  S  S24  1  0.10465490  0.50758414  0.66325667  1
  S  S25  1  0.92127778  0.50823040  0.37160761  1
  S  S26  1  0.75257191  0.94925151  0.31286478  1
  S  S27  1  0.26459504  0.00338401  0.69003992  1
  S  S28  1  0.14389139  0.45762267  0.42993627  1
  S  S29  1  0.83855515  0.42884155  0.56656803  1
  S  S30  1  0.46464535  0.50263797  0.84028503  1
  S  S31  1  0.57698156  0.50888637  0.21819787  1
  S  S32  1  0.92756433  0.47143131  0.00569618  1
  S  S33  1  0.08309935  0.50601678  0.00751459  1
  S  S34  1  0.68045619  0.53888914  0.90862413  1
  S  S35  1  0.33382589  0.50814475  0.09727988  1
  S  S36  1  0.58278506  0.95980713  0.63496385  1
  S  S37  1  0.41206182  0.06790341  0.34872188  1
  S  S38  1  0.23870879  0.50885377  0.28590815  1
  S  S39  1  0.76137448  0.44852890  0.67664977  1
  S  S40  1  0.67465831  0.06323821  0.43946905  1
  S  S41  1  0.31610004  0.01123520  0.53736275  1
