# generated using pymatgen
data_Pr2Mn3(SbS3)4
_symmetry_space_group_name_H-M   'P 1'
_cell_length_a   20.02960800
_cell_length_b   3.90410600
_cell_length_c   14.95364829
_cell_angle_alpha   90.00000000
_cell_angle_beta   126.33350609
_cell_angle_gamma   90.00000000
_symmetry_Int_Tables_number   1
_chemical_formula_structural   Pr2Mn3(SbS3)4
_chemical_formula_sum   'Pr4 Mn6 Sb8 S24'
_cell_volume   942.00006694
_cell_formula_units_Z   2
loop_
 _symmetry_equiv_pos_site_id
 _symmetry_equiv_pos_as_xyz
  1  'x, y, z'
loop_
 _atom_site_type_symbol
 _atom_site_label
 _atom_site_symmetry_multiplicity
 _atom_site_fract_x
 _atom_site_fract_y
 _atom_site_fract_z
 _atom_site_occupancy
  Pr  Pr0  1  0.26731393  0.44993430  0.87507667  1
  Pr  Pr1  1  0.74395130  0.50920088  0.14467701  1
  Pr  Pr2  1  0.77267334  0.95352771  0.87493760  1
  Pr  Pr3  1  0.23765144  0.03066473  0.13879206  1
  Mn  Mn4  1  0.27629061  0.55563794  0.57761719  1
  Mn  Mn5  1  0.71590913  0.50204241  0.39042998  1
  Mn  Mn6  1  0.00233577  0.95610574  0.00597003  1
  Mn  Mn7  1  0.79345346  0.95536877  0.61604390  1
  Mn  Mn8  1  0.18089127  0.97315252  0.40408785  1
  Mn  Mn9  1  0.53913961  0.47719203  0.04082815  1
  Sb  Sb10  1  0.90353317  0.01013975  0.46537304  1
  Sb  Sb11  1  0.11438334  0.94206287  0.55166381  1
  Sb  Sb12  1  0.02456620  0.51010656  0.80386794  1
  Sb  Sb13  1  0.97108350  0.51574756  0.19931944  1
  Sb  Sb14  1  0.38340734  0.51702714  0.44310449  1
  Sb  Sb15  1  0.61305939  0.45938581  0.54437281  1
  Sb  Sb16  1  0.53936083  0.95215994  0.82349869  1
  Sb  Sb17  1  0.45859863  0.05419916  0.18234485  1
  S  S18  1  0.93546153  0.02128890  0.81528102  1
  S  S19  1  0.07081282  0.96977231  0.20118356  1
  S  S20  1  0.42323176  0.04868100  0.98619896  1
  S  S21  1  0.61242544  0.99634665  0.04566829  1
  S  S22  1  0.17494765  0.02185419  0.90602671  1
  S  S23  1  0.84180985  0.02549074  0.12349115  1
  S  S24  1  0.10473425  0.50790683  0.66296701  1
  S  S25  1  0.92139204  0.50801640  0.37182937  1
  S  S26  1  0.75234282  0.94834977  0.31258375  1
  S  S27  1  0.26423880  0.00416301  0.68992622  1
  S  S28  1  0.14344118  0.45812346  0.42971703  1
  S  S29  1  0.83838371  0.42919755  0.56630900  1
  S  S30  1  0.46482374  0.50347645  0.84063299  1
  S  S31  1  0.57736824  0.50777375  0.21855906  1
  S  S32  1  0.92761485  0.47122629  0.00591724  1
  S  S33  1  0.08325560  0.50633532  0.00780001  1
  S  S34  1  0.68054846  0.53895078  0.90889076  1
  S  S35  1  0.33347115  0.50877516  0.09690180  1
  S  S36  1  0.58276898  0.95920023  0.63530989  1
  S  S37  1  0.41220442  0.06716505  0.34882652  1
  S  S38  1  0.23903497  0.50891213  0.28612148  1
  S  S39  1  0.76144712  0.44688530  0.67657256  1
  S  S40  1  0.67426836  0.06307618  0.43907700  1
  S  S41  1  0.31648326  0.01022145  0.53759191  1
