# generated using pymatgen
data_Pr2Mn3(SbS3)4
_symmetry_space_group_name_H-M   'P 1'
_cell_length_a   20.02960800
_cell_length_b   3.90410600
_cell_length_c   14.95364829
_cell_angle_alpha   90.00000000
_cell_angle_beta   126.33350609
_cell_angle_gamma   90.00000000
_symmetry_Int_Tables_number   1
_chemical_formula_structural   Pr2Mn3(SbS3)4
_chemical_formula_sum   'Pr4 Mn6 Sb8 S24'
_cell_volume   942.00006694
_cell_formula_units_Z   2
loop_
 _symmetry_equiv_pos_site_id
 _symmetry_equiv_pos_as_xyz
  1  'x, y, z'
loop_
 _atom_site_type_symbol
 _atom_site_label
 _atom_site_symmetry_multiplicity
 _atom_site_fract_x
 _atom_site_fract_y
 _atom_site_fract_z
 _atom_site_occupancy
  Pr  Pr0  1  0.26746176  0.44950053  0.87522021  1
  Pr  Pr1  1  0.74385907  0.50887855  0.14487604  1
  Pr  Pr2  1  0.77272991  0.95471795  0.87514250  1
  Pr  Pr3  1  0.23766907  0.03084784  0.13882901  1
  Mn  Mn4  1  0.27653677  0.55583532  0.57789764  1
  Mn  Mn5  1  0.71598683  0.50296821  0.39043585  1
  Mn  Mn6  1  0.00232849  0.95538791  0.00597292  1
  Mn  Mn7  1  0.79336206  0.95364568  0.61604858  1
  Mn  Mn8  1  0.18077309  0.97340270  0.40405505  1
  Mn  Mn9  1  0.53915517  0.47641925  0.04087075  1
  Sb  Sb10  1  0.90358915  0.00968053  0.46555474  1
  Sb  Sb11  1  0.11424243  0.94243046  0.55160718  1
  Sb  Sb12  1  0.02457719  0.50977618  0.80414015  1
  Sb  Sb13  1  0.97112713  0.51545534  0.19927098  1
  Sb  Sb14  1  0.38335969  0.51748659  0.44319523  1
  Sb  Sb15  1  0.61301417  0.45918873  0.54436358  1
  Sb  Sb16  1  0.53926359  0.95215318  0.82334161  1
  Sb  Sb17  1  0.45845995  0.05430436  0.18226099  1
  S  S18  1  0.93588108  0.02134201  0.81533375  1
  S  S19  1  0.07078787  0.96888798  0.20080345  1
  S  S20  1  0.42349223  0.04847198  0.98629903  1
  S  S21  1  0.61252535  0.99521152  0.04566247  1
  S  S22  1  0.17506961  0.02328010  0.90665156  1
  S  S23  1  0.84159051  0.02560069  0.12341173  1
  S  S24  1  0.10485571  0.50832734  0.66294014  1
  S  S25  1  0.92147906  0.50763794  0.37201176  1
  S  S26  1  0.75210106  0.94790266  0.31251520  1
  S  S27  1  0.26378531  0.00427969  0.68973495  1
  S  S28  1  0.14304382  0.45854489  0.42948974  1
  S  S29  1  0.83822470  0.42967613  0.56612152  1
  S  S30  1  0.46498321  0.50408827  0.84089023  1
  S  S31  1  0.57763006  0.50695304  0.21876538  1
  S  S32  1  0.92741120  0.47101150  0.00587431  1
  S  S33  1  0.08317596  0.50727843  0.00773172  1
  S  S34  1  0.68047360  0.53900004  0.90889380  1
  S  S35  1  0.33315562  0.50945342  0.09660054  1
  S  S36  1  0.58285510  0.95866480  0.63572185  1
  S  S37  1  0.41224134  0.06630533  0.34890759  1
  S  S38  1  0.23922458  0.50878958  0.28606036  1
  S  S39  1  0.76145337  0.44533486  0.67651117  1
  S  S40  1  0.67400439  0.06268443  0.43872081  1
  S  S41  1  0.31681550  0.00897374  0.53770928  1
