# generated using pymatgen
data_Pr2Mn3(SbS3)4
_symmetry_space_group_name_H-M   'P 1'
_cell_length_a   20.02960800
_cell_length_b   3.90410600
_cell_length_c   14.95364829
_cell_angle_alpha   90.00000000
_cell_angle_beta   126.33350609
_cell_angle_gamma   90.00000000
_symmetry_Int_Tables_number   1
_chemical_formula_structural   Pr2Mn3(SbS3)4
_chemical_formula_sum   'Pr4 Mn6 Sb8 S24'
_cell_volume   942.00006694
_cell_formula_units_Z   2
loop_
 _symmetry_equiv_pos_site_id
 _symmetry_equiv_pos_as_xyz
  1  'x, y, z'
loop_
 _atom_site_type_symbol
 _atom_site_label
 _atom_site_symmetry_multiplicity
 _atom_site_fract_x
 _atom_site_fract_y
 _atom_site_fract_z
 _atom_site_occupancy
  Pr  Pr0  1  0.26752518  0.44932244  0.87523862  1
  Pr  Pr1  1  0.74381221  0.50851439  0.14508447  1
  Pr  Pr2  1  0.77272342  0.95604254  0.87532767  1
  Pr  Pr3  1  0.23774081  0.03094088  0.13888641  1
  Mn  Mn4  1  0.27678671  0.55630924  0.57814387  1
  Mn  Mn5  1  0.71605896  0.50337684  0.39063452  1
  Mn  Mn6  1  0.00245292  0.95447729  0.00608825  1
  Mn  Mn7  1  0.79325213  0.95186513  0.61599620  1
  Mn  Mn8  1  0.18080692  0.97340094  0.40406890  1
  Mn  Mn9  1  0.53913598  0.47636007  0.04086935  1
  Sb  Sb10  1  0.90379147  0.00908747  0.46577544  1
  Sb  Sb11  1  0.11417462  0.94261041  0.55169764  1
  Sb  Sb12  1  0.02460559  0.50990021  0.80438070  1
  Sb  Sb13  1  0.97118186  0.51522026  0.19916106  1
  Sb  Sb14  1  0.38338652  0.51795555  0.44332854  1
  Sb  Sb15  1  0.61286265  0.45900178  0.54414285  1
  Sb  Sb16  1  0.53916854  0.95206811  0.82327232  1
  Sb  Sb17  1  0.45833868  0.05429342  0.18212683  1
  S  S18  1  0.93629827  0.02162650  0.81547122  1
  S  S19  1  0.07080004  0.96791553  0.20051522  1
  S  S20  1  0.42381492  0.04832133  0.98634131  1
  S  S21  1  0.61253652  0.99385276  0.04563682  1
  S  S22  1  0.17522791  0.02464536  0.90724100  1
  S  S23  1  0.84157704  0.02539514  0.12351335  1
  S  S24  1  0.10481123  0.50856041  0.66277443  1
  S  S25  1  0.92146466  0.50719744  0.37217164  1
  S  S26  1  0.75214112  0.94665257  0.31263839  1
  S  S27  1  0.26335862  0.00426456  0.68954422  1
  S  S28  1  0.14262027  0.45868875  0.42938937  1
  S  S29  1  0.83806129  0.42989243  0.56616225  1
  S  S30  1  0.46514060  0.50520823  0.84103175  1
  S  S31  1  0.57796557  0.50654431  0.21898193  1
  S  S32  1  0.92712316  0.47059599  0.00578028  1
  S  S33  1  0.08306748  0.50754655  0.00760135  1
  S  S34  1  0.68047857  0.53908810  0.90887809  1
  S  S35  1  0.33301538  0.51112393  0.09655442  1
  S  S36  1  0.58289555  0.95798513  0.63592192  1
  S  S37  1  0.41215899  0.06503565  0.34884770  1
  S  S38  1  0.23935636  0.50930094  0.28589566  1
  S  S39  1  0.76139542  0.44365029  0.67638426  1
  S  S40  1  0.67370996  0.06312822  0.43851885  1
  S  S41  1  0.31716514  0.00777331  0.53790523  1
