# generated using pymatgen
data_Pr2Mn3(SbS3)4
_symmetry_space_group_name_H-M   'P 1'
_cell_length_a   20.02960800
_cell_length_b   3.90410600
_cell_length_c   14.95364829
_cell_angle_alpha   90.00000000
_cell_angle_beta   126.33350609
_cell_angle_gamma   90.00000000
_symmetry_Int_Tables_number   1
_chemical_formula_structural   Pr2Mn3(SbS3)4
_chemical_formula_sum   'Pr4 Mn6 Sb8 S24'
_cell_volume   942.00006694
_cell_formula_units_Z   2
loop_
 _symmetry_equiv_pos_site_id
 _symmetry_equiv_pos_as_xyz
  1  'x, y, z'
loop_
 _atom_site_type_symbol
 _atom_site_label
 _atom_site_symmetry_multiplicity
 _atom_site_fract_x
 _atom_site_fract_y
 _atom_site_fract_z
 _atom_site_occupancy
  Pr  Pr0  1  0.26752299  0.44907585  0.87519099  1
  Pr  Pr1  1  0.74371754  0.50812971  0.14523665  1
  Pr  Pr2  1  0.77266318  0.95715587  0.87544792  1
  Pr  Pr3  1  0.23775145  0.03064617  0.13883682  1
  Mn  Mn4  1  0.27700659  0.55640278  0.57845699  1
  Mn  Mn5  1  0.71614581  0.50336039  0.39087301  1
  Mn  Mn6  1  0.00250373  0.95353346  0.00612171  1
  Mn  Mn7  1  0.79311527  0.95016683  0.61600373  1
  Mn  Mn8  1  0.18080106  0.97352866  0.40397409  1
  Mn  Mn9  1  0.53921532  0.47611449  0.04088799  1
  Sb  Sb10  1  0.90403031  0.00857403  0.46610243  1
  Sb  Sb11  1  0.11409908  0.94247837  0.55181338  1
  Sb  Sb12  1  0.02462031  0.50988637  0.80455999  1
  Sb  Sb13  1  0.97126838  0.51493944  0.19904082  1
  Sb  Sb14  1  0.38336706  0.51858856  0.44346424  1
  Sb  Sb15  1  0.61266243  0.45888584  0.54387740  1
  Sb  Sb16  1  0.53907816  0.95196125  0.82316096  1
  Sb  Sb17  1  0.45829748  0.05414195  0.18194106  1
  S  S18  1  0.93671190  0.02153177  0.81578367  1
  S  S19  1  0.07066252  0.96639359  0.20012860  1
  S  S20  1  0.42434337  0.04769488  0.98646251  1
  S  S21  1  0.61259331  0.99308521  0.04561444  1
  S  S22  1  0.17514604  0.02623097  0.90749768  1
  S  S23  1  0.84149310  0.02496735  0.12344537  1
  S  S24  1  0.10465166  0.50813954  0.66257786  1
  S  S25  1  0.92119464  0.50686500  0.37192621  1
  S  S26  1  0.75222990  0.94580775  0.31283935  1
  S  S27  1  0.26300589  0.00421018  0.68940886  1
  S  S28  1  0.14212711  0.45904521  0.42917678  1
  S  S29  1  0.83790526  0.43041363  0.56614034  1
  S  S30  1  0.46520422  0.50602883  0.84094719  1
  S  S31  1  0.57842470  0.50625636  0.21933961  1
  S  S32  1  0.92678260  0.46994553  0.00556000  1
  S  S33  1  0.08296070  0.50717492  0.00741444  1
  S  S34  1  0.68057216  0.53892373  0.90892289  1
  S  S35  1  0.33296676  0.51287810  0.09664001  1
  S  S36  1  0.58282863  0.95721749  0.63595556  1
  S  S37  1  0.41205422  0.06338684  0.34874060  1
  S  S38  1  0.23960743  0.50967493  0.28574346  1
  S  S39  1  0.76150905  0.44248642  0.67653656  1
  S  S40  1  0.67351063  0.06328137  0.43821678  1
  S  S41  1  0.31736894  0.00615824  0.53803121  1
