# generated using pymatgen
data_Pr2Mn3(SbS3)4
_symmetry_space_group_name_H-M   'P 1'
_cell_length_a   20.02960800
_cell_length_b   3.90410600
_cell_length_c   14.95364829
_cell_angle_alpha   90.00000000
_cell_angle_beta   126.33350609
_cell_angle_gamma   90.00000000
_symmetry_Int_Tables_number   1
_chemical_formula_structural   Pr2Mn3(SbS3)4
_chemical_formula_sum   'Pr4 Mn6 Sb8 S24'
_cell_volume   942.00006694
_cell_formula_units_Z   2
loop_
 _symmetry_equiv_pos_site_id
 _symmetry_equiv_pos_as_xyz
  1  'x, y, z'
loop_
 _atom_site_type_symbol
 _atom_site_label
 _atom_site_symmetry_multiplicity
 _atom_site_fract_x
 _atom_site_fract_y
 _atom_site_fract_z
 _atom_site_occupancy
  Pr  Pr0  1  0.26750446  0.44888034  0.87515208  1
  Pr  Pr1  1  0.74367583  0.50790890  0.14536151  1
  Pr  Pr2  1  0.77267430  0.95832019  0.87554765  1
  Pr  Pr3  1  0.23771617  0.03037855  0.13875797  1
  Mn  Mn4  1  0.27713491  0.55659127  0.57866191  1
  Mn  Mn5  1  0.71624764  0.50380228  0.39114584  1
  Mn  Mn6  1  0.00248705  0.95311687  0.00605417  1
  Mn  Mn7  1  0.79300464  0.94870412  0.61599730  1
  Mn  Mn8  1  0.18078728  0.97326410  0.40374094  1
  Mn  Mn9  1  0.53920118  0.47610070  0.04085797  1
  Sb  Sb10  1  0.90426987  0.00858529  0.46640466  1
  Sb  Sb11  1  0.11406932  0.94205866  0.55201907  1
  Sb  Sb12  1  0.02464179  0.50957465  0.80469166  1
  Sb  Sb13  1  0.97145029  0.51459410  0.19904995  1
  Sb  Sb14  1  0.38329314  0.51961901  0.44358993  1
  Sb  Sb15  1  0.61239730  0.45894452  0.54351983  1
  Sb  Sb16  1  0.53900744  0.95187312  0.82307378  1
  Sb  Sb17  1  0.45818413  0.05417378  0.18177996  1
  S  S18  1  0.93705800  0.02098384  0.81597358  1
  S  S19  1  0.07046133  0.96475024  0.19977530  1
  S  S20  1  0.42490314  0.04658622  0.98676451  1
  S  S21  1  0.61265213  0.99264758  0.04563446  1
  S  S22  1  0.17509231  0.02797046  0.90769242  1
  S  S23  1  0.84129268  0.02513099  0.12334620  1
  S  S24  1  0.10454893  0.50718585  0.66223261  1
  S  S25  1  0.92094850  0.50618514  0.37157281  1
  S  S26  1  0.75232090  0.94513408  0.31299407  1
  S  S27  1  0.26274306  0.00397308  0.68918614  1
  S  S28  1  0.14153660  0.45952247  0.42872268  1
  S  S29  1  0.83782349  0.43087420  0.56615846  1
  S  S30  1  0.46524455  0.50684709  0.84119792  1
  S  S31  1  0.57889485  0.50615530  0.21987785  1
  S  S32  1  0.92651046  0.46947593  0.00521713  1
  S  S33  1  0.08271642  0.50705506  0.00725856  1
  S  S34  1  0.68076878  0.53892528  0.90915057  1
  S  S35  1  0.33300780  0.51425634  0.09674039  1
  S  S36  1  0.58268015  0.95672744  0.63587838  1
  S  S37  1  0.41186623  0.06169092  0.34865053  1
  S  S38  1  0.23997200  0.51059612  0.28566833  1
  S  S39  1  0.76151720  0.44138972  0.67666587  1
  S  S40  1  0.67331808  0.06364818  0.43809243  1
  S  S41  1  0.31765441  0.00482153  0.53819056  1
