# generated using pymatgen
data_Pr2Mn3(SbS3)4
_symmetry_space_group_name_H-M   'P 1'
_cell_length_a   20.02960800
_cell_length_b   3.90410600
_cell_length_c   14.95364829
_cell_angle_alpha   90.00000000
_cell_angle_beta   126.33350609
_cell_angle_gamma   90.00000000
_symmetry_Int_Tables_number   1
_chemical_formula_structural   Pr2Mn3(SbS3)4
_chemical_formula_sum   'Pr4 Mn6 Sb8 S24'
_cell_volume   942.00006694
_cell_formula_units_Z   2
loop_
 _symmetry_equiv_pos_site_id
 _symmetry_equiv_pos_as_xyz
  1  'x, y, z'
loop_
 _atom_site_type_symbol
 _atom_site_label
 _atom_site_symmetry_multiplicity
 _atom_site_fract_x
 _atom_site_fract_y
 _atom_site_fract_z
 _atom_site_occupancy
  Pr  Pr0  1  0.26743608  0.44842461  0.87502156  1
  Pr  Pr1  1  0.74363096  0.50771792  0.14551023  1
  Pr  Pr2  1  0.77268472  0.95931339  0.87565393  1
  Pr  Pr3  1  0.23767805  0.02983514  0.13861125  1
  Mn  Mn4  1  0.27722370  0.55644010  0.57889654  1
  Mn  Mn5  1  0.71625185  0.50438364  0.39127974  1
  Mn  Mn6  1  0.00239933  0.95286571  0.00603623  1
  Mn  Mn7  1  0.79293555  0.94737556  0.61583327  1
  Mn  Mn8  1  0.18079113  0.97282240  0.40366777  1
  Mn  Mn9  1  0.53913536  0.47646834  0.04084557  1
  Sb  Sb10  1  0.90440643  0.00899342  0.46652225  1
  Sb  Sb11  1  0.11407420  0.94157778  0.55223502  1
  Sb  Sb12  1  0.02461549  0.50938416  0.80479741  1
  Sb  Sb13  1  0.97159900  0.51485733  0.19903330  1
  Sb  Sb14  1  0.38319799  0.52064922  0.44360950  1
  Sb  Sb15  1  0.61224535  0.45918360  0.54318731  1
  Sb  Sb16  1  0.53886770  0.95147753  0.82295972  1
  Sb  Sb17  1  0.45805275  0.05419300  0.18162112  1
  S  S18  1  0.93737007  0.02026704  0.81611716  1
  S  S19  1  0.07038797  0.96358285  0.19940741  1
  S  S20  1  0.42543964  0.04549986  0.98733558  1
  S  S21  1  0.61257750  0.99201385  0.04562457  1
  S  S22  1  0.17527172  0.02964485  0.90800695  1
  S  S23  1  0.84098881  0.02552685  0.12325551  1
  S  S24  1  0.10431604  0.50626927  0.66181406  1
  S  S25  1  0.92062626  0.50540195  0.37109303  1
  S  S26  1  0.75247969  0.94432874  0.31326024  1
  S  S27  1  0.26247366  0.00354657  0.68890562  1
  S  S28  1  0.14102537  0.45975621  0.42837271  1
  S  S29  1  0.83781857  0.43071261  0.56614563  1
  S  S30  1  0.46514512  0.50683691  0.84149221  1
  S  S31  1  0.57924220  0.50620749  0.22040658  1
  S  S32  1  0.92624354  0.46886803  0.00483829  1
  S  S33  1  0.08233174  0.50763972  0.00692810  1
  S  S34  1  0.68099915  0.53859126  0.90938969  1
  S  S35  1  0.33298950  0.51600408  0.09694275  1
  S  S36  1  0.58273885  0.95687132  0.63596531  1
  S  S37  1  0.41173676  0.05991431  0.34862071  1
  S  S38  1  0.24036365  0.51179365  0.28584537  1
  S  S39  1  0.76157547  0.44031369  0.67678262  1
  S  S40  1  0.67307475  0.06418734  0.43777748  1
  S  S41  1  0.31800695  0.00377387  0.53839642  1
