# generated using pymatgen
data_Pr2Mn3(SbS3)4
_symmetry_space_group_name_H-M   'P 1'
_cell_length_a   20.02960800
_cell_length_b   3.90410600
_cell_length_c   14.95364829
_cell_angle_alpha   90.00000000
_cell_angle_beta   126.33350609
_cell_angle_gamma   90.00000000
_symmetry_Int_Tables_number   1
_chemical_formula_structural   Pr2Mn3(SbS3)4
_chemical_formula_sum   'Pr4 Mn6 Sb8 S24'
_cell_volume   942.00006694
_cell_formula_units_Z   2
loop_
 _symmetry_equiv_pos_site_id
 _symmetry_equiv_pos_as_xyz
  1  'x, y, z'
loop_
 _atom_site_type_symbol
 _atom_site_label
 _atom_site_symmetry_multiplicity
 _atom_site_fract_x
 _atom_site_fract_y
 _atom_site_fract_z
 _atom_site_occupancy
  Pr  Pr0  1  0.26739670  0.44824777  0.87482708  1
  Pr  Pr1  1  0.74354911  0.50753634  0.14570790  1
  Pr  Pr2  1  0.77259134  0.96023452  0.87562331  1
  Pr  Pr3  1  0.23768646  0.02941551  0.13851365  1
  Mn  Mn4  1  0.27722242  0.55655906  0.57906247  1
  Mn  Mn5  1  0.71635126  0.50468953  0.39151629  1
  Mn  Mn6  1  0.00226162  0.95237780  0.00598106  1
  Mn  Mn7  1  0.79288291  0.94625529  0.61569797  1
  Mn  Mn8  1  0.18091834  0.97215328  0.40384641  1
  Mn  Mn9  1  0.53901243  0.47653021  0.04071156  1
  Sb  Sb10  1  0.90460058  0.00955335  0.46678610  1
  Sb  Sb11  1  0.11409794  0.94130476  0.55243498  1
  Sb  Sb12  1  0.02445796  0.50886985  0.80482703  1
  Sb  Sb13  1  0.97162983  0.51560014  0.19899711  1
  Sb  Sb14  1  0.38310695  0.52197156  0.44357984  1
  Sb  Sb15  1  0.61203790  0.45962665  0.54283196  1
  Sb  Sb16  1  0.53869534  0.95131069  0.82281554  1
  Sb  Sb17  1  0.45789408  0.05417663  0.18141395  1
  S  S18  1  0.93758194  0.01933475  0.81614726  1
  S  S19  1  0.07020495  0.96260486  0.19908358  1
  S  S20  1  0.42581070  0.04449051  0.98771571  1
  S  S21  1  0.61267628  0.99076689  0.04579433  1
  S  S22  1  0.17541067  0.03107348  0.90838133  1
  S  S23  1  0.84067768  0.02519716  0.12307968  1
  S  S24  1  0.10408883  0.50589688  0.66140920  1
  S  S25  1  0.92031604  0.50511512  0.37065312  1
  S  S26  1  0.75273812  0.94365631  0.31366107  1
  S  S27  1  0.26219466  0.00317723  0.68859721  1
  S  S28  1  0.14050552  0.46026102  0.42797827  1
  S  S29  1  0.83787604  0.43013626  0.56626505  1
  S  S30  1  0.46510771  0.50718041  0.84165988  1
  S  S31  1  0.57951992  0.50642962  0.22091888  1
  S  S32  1  0.92581889  0.46817803  0.00440980  1
  S  S33  1  0.08191831  0.50733861  0.00653745  1
  S  S34  1  0.68120940  0.53814767  0.90952776  1
  S  S35  1  0.33281744  0.51696349  0.09702671  1
  S  S36  1  0.58276356  0.95685603  0.63598796  1
  S  S37  1  0.41166170  0.05778269  0.34844597  1
  S  S38  1  0.24069766  0.51319053  0.28599419  1
  S  S39  1  0.76166221  0.43930494  0.67690477  1
  S  S40  1  0.67278111  0.06485009  0.43751842  1
  S  S41  1  0.31827219  0.00237175  0.53848368  1
