# generated using pymatgen
data_Pr2Mn3(SbS3)4
_symmetry_space_group_name_H-M   'P 1'
_cell_length_a   20.02960800
_cell_length_b   3.90410600
_cell_length_c   14.95364829
_cell_angle_alpha   90.00000000
_cell_angle_beta   126.33350609
_cell_angle_gamma   90.00000000
_symmetry_Int_Tables_number   1
_chemical_formula_structural   Pr2Mn3(SbS3)4
_chemical_formula_sum   'Pr4 Mn6 Sb8 S24'
_cell_volume   942.00006694
_cell_formula_units_Z   2
loop_
 _symmetry_equiv_pos_site_id
 _symmetry_equiv_pos_as_xyz
  1  'x, y, z'
loop_
 _atom_site_type_symbol
 _atom_site_label
 _atom_site_symmetry_multiplicity
 _atom_site_fract_x
 _atom_site_fract_y
 _atom_site_fract_z
 _atom_site_occupancy
  Pr  Pr0  1  0.26155175  0.49454256  0.86599442  1
  Pr  Pr1  1  0.74023642  0.50365605  0.13739412  1
  Pr  Pr2  1  0.76080710  0.00733999  0.86172443  1
  Pr  Pr3  1  0.23967677  0.99018929  0.13871499  1
  Mn  Mn4  1  0.29913642  0.50760094  0.62001085  1
  Mn  Mn5  1  0.69795223  0.49966853  0.38096485  1
  Mn  Mn6  1  0.00148073  0.00295696  0.99984288  1
  Mn  Mn7  1  0.80266971  0.99349876  0.61750328  1
  Mn  Mn8  1  0.19901383  0.98440080  0.37870420  1
  Mn  Mn9  1  0.50130575  0.48597657  0.99920652  1
  Sb  Sb10  1  0.89476507  0.01044475  0.45428716  1
  Sb  Sb11  1  0.10749632  0.98839146  0.55070834  1
  Sb  Sb12  1  0.03821020  0.48836149  0.81525104  1
  Sb  Sb13  1  0.96217800  0.50437400  0.18815049  1
  Sb  Sb14  1  0.39441163  0.48840572  0.45580414  1
  Sb  Sb15  1  0.60665475  0.50055719  0.54897365  1
  Sb  Sb16  1  0.53732339  0.00109343  0.81384948  1
  Sb  Sb17  1  0.46262454  0.00026725  0.18323521  1
  S  S18  1  0.93841859  0.98656232  0.79878408  1
  S  S19  1  0.05834147  0.99787187  0.19177290  1
  S  S20  1  0.40360426  0.97990283  0.97938851  1
  S  S21  1  0.59606407  0.99479702  0.01696088  1
  S  S22  1  0.17038177  0.98646214  0.90296095  1
  S  S23  1  0.82781917  0.00604555  0.10496337  1
  S  S24  1  0.08684485  0.49143248  0.64638108  1
  S  S25  1  0.91148439  0.48190664  0.35423956  1
  S  S26  1  0.74382749  0.96722889  0.29601642  1
  S  S27  1  0.25559059  0.00584899  0.69968502  1
  S  S28  1  0.16024436  0.49181711  0.44673187  1
  S  S29  1  0.83195894  0.49089905  0.54784058  1
  S  S30  1  0.43654427  0.50602147  0.79867527  1
  S  S31  1  0.56076588  0.49420730  0.19630336  1
  S  S32  1  0.90179067  0.47662487  0.97795865  1
  S  S33  1  0.09230737  0.48410372  0.01769371  1
  S  S34  1  0.66504316  0.50722077  0.89541943  1
  S  S35  1  0.33312895  0.50850147  0.10411335  1
  S  S36  1  0.59169537  0.01578316  0.64983091  1
  S  S37  1  0.41286882  0.98337463  0.35761659  1
  S  S38  1  0.24240085  0.47468469  0.29528693  1
  S  S39  1  0.76471184  0.50342390  0.70457872  1
  S  S40  1  0.66308854  0.00541201  0.46052274  1
  S  S41  1  0.33577015  0.99027506  0.54183169  1
