# generated using pymatgen
data_Pr2Mn3(SbS3)4
_symmetry_space_group_name_H-M   'P 1'
_cell_length_a   20.02960800
_cell_length_b   3.90410600
_cell_length_c   14.95364829
_cell_angle_alpha   90.00000000
_cell_angle_beta   126.33350609
_cell_angle_gamma   90.00000000
_symmetry_Int_Tables_number   1
_chemical_formula_structural   Pr2Mn3(SbS3)4
_chemical_formula_sum   'Pr4 Mn6 Sb8 S24'
_cell_volume   942.00006694
_cell_formula_units_Z   2
loop_
 _symmetry_equiv_pos_site_id
 _symmetry_equiv_pos_as_xyz
  1  'x, y, z'
loop_
 _atom_site_type_symbol
 _atom_site_label
 _atom_site_symmetry_multiplicity
 _atom_site_fract_x
 _atom_site_fract_y
 _atom_site_fract_z
 _atom_site_occupancy
  Pr  Pr0  1  0.26942611  0.50784854  0.87521300  1
  Pr  Pr1  1  0.73322498  0.52192411  0.13326901  1
  Pr  Pr2  1  0.76427095  0.03070050  0.87142276  1
  Pr  Pr3  1  0.22829763  0.95764978  0.12576778  1
  Mn  Mn4  1  0.29604827  0.45154300  0.60826066  1
  Mn  Mn5  1  0.68608479  0.45559314  0.36364068  1
  Mn  Mn6  1  0.99873844  0.97872420  0.00590571  1
  Mn  Mn7  1  0.78981557  0.01507264  0.61380768  1
  Mn  Mn8  1  0.20056030  0.03066562  0.37293286  1
  Mn  Mn9  1  0.48033171  0.47350900  0.97686833  1
  Sb  Sb10  1  0.89257744  0.97012418  0.44992597  1
  Sb  Sb11  1  0.11382469  0.97586304  0.54857287  1
  Sb  Sb12  1  0.03949693  0.51574592  0.82864193  1
  Sb  Sb13  1  0.96788765  0.48286973  0.19299163  1
  Sb  Sb14  1  0.39883921  0.49329391  0.45359878  1
  Sb  Sb15  1  0.61333621  0.48583993  0.54807399  1
  Sb  Sb16  1  0.52983624  0.97042563  0.80649034  1
  Sb  Sb17  1  0.46564844  0.03165051  0.18424907  1
  S  S18  1  0.93512073  0.98671791  0.80017748  1
  S  S19  1  0.06693869  0.98308691  0.20207630  1
  S  S20  1  0.42004602  0.97829876  0.97841612  1
  S  S21  1  0.58367507  0.01697403  0.00636700  1
  S  S22  1  0.16159935  0.02534869  0.89558469  1
  S  S23  1  0.83033805  0.97876611  0.10616904  1
  S  S24  1  0.09101665  0.49514266  0.63806963  1
  S  S25  1  0.91550782  0.50509869  0.35776224  1
  S  S26  1  0.73462357  0.99172599  0.29843274  1
  S  S27  1  0.26396551  0.01874089  0.70319150  1
  S  S28  1  0.17198360  0.51955812  0.44354014  1
  S  S29  1  0.80760962  0.53757725  0.53883175  1
  S  S30  1  0.43173823  0.47646331  0.79352410  1
  S  S31  1  0.55436398  0.48812954  0.17487187  1
  S  S32  1  0.91791338  0.52537870  0.98646511  1
  S  S33  1  0.08420127  0.48974780  0.02388025  1
  S  S34  1  0.66725272  0.55535343  0.88794505  1
  S  S35  1  0.32963171  0.45844586  0.10126677  1
  S  S36  1  0.58901902  0.98137665  0.64157854  1
  S  S37  1  0.39393959  0.99888714  0.33232653  1
  S  S38  1  0.24336446  0.47710497  0.31373511  1
  S  S39  1  0.76281361  0.48128265  0.69383718  1
  S  S40  1  0.65806058  0.99517669  0.43459210  1
  S  S41  1  0.32970430  0.97052272  0.55523452  1
