# generated using pymatgen
data_Pr2Mn3(SbS3)4
_symmetry_space_group_name_H-M   'P 1'
_cell_length_a   20.02960800
_cell_length_b   3.90410600
_cell_length_c   14.95364829
_cell_angle_alpha   90.00000000
_cell_angle_beta   126.33350609
_cell_angle_gamma   90.00000000
_symmetry_Int_Tables_number   1
_chemical_formula_structural   Pr2Mn3(SbS3)4
_chemical_formula_sum   'Pr4 Mn6 Sb8 S24'
_cell_volume   942.00006694
_cell_formula_units_Z   2
loop_
 _symmetry_equiv_pos_site_id
 _symmetry_equiv_pos_as_xyz
  1  'x, y, z'
loop_
 _atom_site_type_symbol
 _atom_site_label
 _atom_site_symmetry_multiplicity
 _atom_site_fract_x
 _atom_site_fract_y
 _atom_site_fract_z
 _atom_site_occupancy
  Pr  Pr0  1  0.26744081  0.44817793  0.87471818  1
  Pr  Pr1  1  0.74347151  0.50753546  0.14595438  1
  Pr  Pr2  1  0.77246895  0.96099356  0.87554047  1
  Pr  Pr3  1  0.23764902  0.02900016  0.13838033  1
  Mn  Mn4  1  0.27723054  0.55627494  0.57920646  1
  Mn  Mn5  1  0.71630378  0.50489080  0.39154619  1
  Mn  Mn6  1  0.00214817  0.95146475  0.00593351  1
  Mn  Mn7  1  0.79279337  0.94530737  0.61553134  1
  Mn  Mn8  1  0.18101070  0.97136695  0.40393839  1
  Mn  Mn9  1  0.53891679  0.47618022  0.04052415  1
  Sb  Sb10  1  0.90479546  0.01004009  0.46707900  1
  Sb  Sb11  1  0.11414231  0.94101181  0.55261983  1
  Sb  Sb12  1  0.02427811  0.50872009  0.80484473  1
  Sb  Sb13  1  0.97173758  0.51594057  0.19897793  1
  Sb  Sb14  1  0.38304179  0.52339784  0.44353740  1
  Sb  Sb15  1  0.61179307  0.46013420  0.54239407  1
  Sb  Sb16  1  0.53846479  0.95101281  0.82260734  1
  Sb  Sb17  1  0.45773935  0.05420572  0.18123628  1
  S  S18  1  0.93774385  0.01836687  0.81636531  1
  S  S19  1  0.07008908  0.96221415  0.19892012  1
  S  S20  1  0.42597919  0.04335040  0.98791746  1
  S  S21  1  0.61267925  0.98988271  0.04561083  1
  S  S22  1  0.17556000  0.03212295  0.90875308  1
  S  S23  1  0.84036082  0.02511247  0.12271974  1
  S  S24  1  0.10384397  0.50559969  0.66114286  1
  S  S25  1  0.92003122  0.50512760  0.37028172  1
  S  S26  1  0.75293047  0.94359663  0.31414996  1
  S  S27  1  0.26205505  0.00291596  0.68840329  1
  S  S28  1  0.14015557  0.46130073  0.42781431  1
  S  S29  1  0.83809055  0.42966859  0.56657874  1
  S  S30  1  0.46526959  0.50748211  0.84197991  1
  S  S31  1  0.57989856  0.50650896  0.22150422  1
  S  S32  1  0.92554867  0.46754323  0.00403284  1
  S  S33  1  0.08148078  0.50686743  0.00610232  1
  S  S34  1  0.68130316  0.53754605  0.90962295  1
  S  S35  1  0.33266364  0.51816046  0.09708776  1
  S  S36  1  0.58281671  0.95651048  0.63600817  1
  S  S37  1  0.41144014  0.05552479  0.34833699  1
  S  S38  1  0.24091717  0.51405634  0.28597134  1
  S  S39  1  0.76169757  0.43870645  0.67714781  1
  S  S40  1  0.67245540  0.06537756  0.43712528  1
  S  S41  1  0.31864836  0.00103504  0.53864253  1
