# generated using pymatgen
data_Pr2Mn3(SbS3)4
_symmetry_space_group_name_H-M   'P 1'
_cell_length_a   20.02960800
_cell_length_b   3.90410600
_cell_length_c   14.95364829
_cell_angle_alpha   90.00000000
_cell_angle_beta   126.33350609
_cell_angle_gamma   90.00000000
_symmetry_Int_Tables_number   1
_chemical_formula_structural   Pr2Mn3(SbS3)4
_chemical_formula_sum   'Pr4 Mn6 Sb8 S24'
_cell_volume   942.00006694
_cell_formula_units_Z   2
loop_
 _symmetry_equiv_pos_site_id
 _symmetry_equiv_pos_as_xyz
  1  'x, y, z'
loop_
 _atom_site_type_symbol
 _atom_site_label
 _atom_site_symmetry_multiplicity
 _atom_site_fract_x
 _atom_site_fract_y
 _atom_site_fract_z
 _atom_site_occupancy
  Pr  Pr0  1  0.26746224  0.44796010  0.87461302  1
  Pr  Pr1  1  0.74339330  0.50770916  0.14623360  1
  Pr  Pr2  1  0.77235526  0.96142988  0.87548570  1
  Pr  Pr3  1  0.23759653  0.02869627  0.13828808  1
  Mn  Mn4  1  0.27724979  0.55586290  0.57944503  1
  Mn  Mn5  1  0.71627125  0.50518613  0.39164540  1
  Mn  Mn6  1  0.00197318  0.95077692  0.00574372  1
  Mn  Mn7  1  0.79263156  0.94501030  0.61532006  1
  Mn  Mn8  1  0.18097529  0.97069667  0.40386073  1
  Mn  Mn9  1  0.53885235  0.47562395  0.04048875  1
  Sb  Sb10  1  0.90493755  0.01043460  0.46729933  1
  Sb  Sb11  1  0.11424718  0.94063849  0.55294255  1
  Sb  Sb12  1  0.02411833  0.50876636  0.80492149  1
  Sb  Sb13  1  0.97182966  0.51608762  0.19893685  1
  Sb  Sb14  1  0.38298715  0.52503853  0.44353190  1
  Sb  Sb15  1  0.61157376  0.46052545  0.54199915  1
  Sb  Sb16  1  0.53827566  0.95052256  0.82241499  1
  Sb  Sb17  1  0.45756558  0.05475141  0.18103171  1
  S  S18  1  0.93774799  0.01700306  0.81641911  1
  S  S19  1  0.07003372  0.96206133  0.19868433  1
  S  S20  1  0.42611887  0.04216404  0.98792232  1
  S  S21  1  0.61266535  0.98952539  0.04547443  1
  S  S22  1  0.17573197  0.03277972  0.90906875  1
  S  S23  1  0.84009928  0.02584296  0.12230778  1
  S  S24  1  0.10371689  0.50540302  0.66096007  1
  S  S25  1  0.91984344  0.50633449  0.37004669  1
  S  S26  1  0.75324365  0.94365171  0.31477576  1
  S  S27  1  0.26184304  0.00288698  0.68798984  1
  S  S28  1  0.13995205  0.46233132  0.42786549  1
  S  S29  1  0.83826605  0.42948892  0.56678377  1
  S  S30  1  0.46550801  0.50765010  0.84226695  1
  S  S31  1  0.58027084  0.50695833  0.22199563  1
  S  S32  1  0.92521956  0.46696848  0.00353208  1
  S  S33  1  0.08103567  0.50646346  0.00559361  1
  S  S34  1  0.68151776  0.53625548  0.90988610  1
  S  S35  1  0.33277031  0.51892991  0.09727710  1
  S  S36  1  0.58300690  0.95658472  0.63618530  1
  S  S37  1  0.41112364  0.05312646  0.34824392  1
  S  S38  1  0.24105455  0.51504650  0.28603742  1
  S  S39  1  0.76182729  0.43849798  0.67738037  1
  S  S40  1  0.67214257  0.06625246  0.43670606  1
  S  S41  1  0.31901067  0.99963942  0.53882490  1
