# generated using pymatgen
data_Pr2Mn3(SbS3)4
_symmetry_space_group_name_H-M   'P 1'
_cell_length_a   20.02960800
_cell_length_b   3.90410600
_cell_length_c   14.95364829
_cell_angle_alpha   90.00000000
_cell_angle_beta   126.33350609
_cell_angle_gamma   90.00000000
_symmetry_Int_Tables_number   1
_chemical_formula_structural   Pr2Mn3(SbS3)4
_chemical_formula_sum   'Pr4 Mn6 Sb8 S24'
_cell_volume   942.00006694
_cell_formula_units_Z   2
loop_
 _symmetry_equiv_pos_site_id
 _symmetry_equiv_pos_as_xyz
  1  'x, y, z'
loop_
 _atom_site_type_symbol
 _atom_site_label
 _atom_site_symmetry_multiplicity
 _atom_site_fract_x
 _atom_site_fract_y
 _atom_site_fract_z
 _atom_site_occupancy
  Pr  Pr0  1  0.26752121  0.44760634  0.87454234  1
  Pr  Pr1  1  0.74334827  0.50769018  0.14659340  1
  Pr  Pr2  1  0.77226157  0.96189131  0.87542906  1
  Pr  Pr3  1  0.23748777  0.02851685  0.13817934  1
  Mn  Mn4  1  0.27714347  0.55571703  0.57951905  1
  Mn  Mn5  1  0.71634151  0.50531544  0.39184443  1
  Mn  Mn6  1  0.00186507  0.95023483  0.00561105  1
  Mn  Mn7  1  0.79257098  0.94489946  0.61507402  1
  Mn  Mn8  1  0.18096043  0.97027119  0.40383903  1
  Mn  Mn9  1  0.53888527  0.47566846  0.04057492  1
  Sb  Sb10  1  0.90510151  0.01085941  0.46747960  1
  Sb  Sb11  1  0.11428855  0.94033818  0.55314897  1
  Sb  Sb12  1  0.02392621  0.50863022  0.80494196  1
  Sb  Sb13  1  0.97188123  0.51620164  0.19891632  1
  Sb  Sb14  1  0.38296931  0.52667050  0.44365979  1
  Sb  Sb15  1  0.61142739  0.46117971  0.54161822  1
  Sb  Sb16  1  0.53809167  0.95046498  0.82215650  1
  Sb  Sb17  1  0.45738550  0.05504990  0.18077623  1
  S  S18  1  0.93775791  0.01569976  0.81643622  1
  S  S19  1  0.06999913  0.96184606  0.19837131  1
  S  S20  1  0.42629036  0.04094582  0.98795156  1
  S  S21  1  0.61261990  0.98921366  0.04532749  1
  S  S22  1  0.17592072  0.03295948  0.90924998  1
  S  S23  1  0.83978486  0.02646425  0.12203229  1
  S  S24  1  0.10364268  0.50532865  0.66102375  1
  S  S25  1  0.91964754  0.50800644  0.36981092  1
  S  S26  1  0.75345347  0.94391477  0.31535148  1
  S  S27  1  0.26150426  0.00250369  0.68757316  1
  S  S28  1  0.14000278  0.46292543  0.42811784  1
  S  S29  1  0.83854444  0.42939912  0.56717611  1
  S  S30  1  0.46578121  0.50798453  0.84259065  1
  S  S31  1  0.58053514  0.50728776  0.22232225  1
  S  S32  1  0.92500205  0.46623625  0.00306319  1
  S  S33  1  0.08065299  0.50617189  0.00502825  1
  S  S34  1  0.68160407  0.53583774  0.90998011  1
  S  S35  1  0.33290330  0.51965265  0.09752192  1
  S  S36  1  0.58318488  0.95665045  0.63649721  1
  S  S37  1  0.41077823  0.05092201  0.34817760  1
  S  S38  1  0.24115323  0.51566972  0.28601564  1
  S  S39  1  0.76208689  0.43835197  0.67764008  1
  S  S40  1  0.67173549  0.06733566  0.43612783  1
  S  S41  1  0.31933416  0.99859210  0.53905692  1
