# generated using pymatgen
data_Pr2Mn3(SbS3)4
_symmetry_space_group_name_H-M   'P 1'
_cell_length_a   20.02960800
_cell_length_b   3.90410600
_cell_length_c   14.95364829
_cell_angle_alpha   90.00000000
_cell_angle_beta   126.33350609
_cell_angle_gamma   90.00000000
_symmetry_Int_Tables_number   1
_chemical_formula_structural   Pr2Mn3(SbS3)4
_chemical_formula_sum   'Pr4 Mn6 Sb8 S24'
_cell_volume   942.00006694
_cell_formula_units_Z   2
loop_
 _symmetry_equiv_pos_site_id
 _symmetry_equiv_pos_as_xyz
  1  'x, y, z'
loop_
 _atom_site_type_symbol
 _atom_site_label
 _atom_site_symmetry_multiplicity
 _atom_site_fract_x
 _atom_site_fract_y
 _atom_site_fract_z
 _atom_site_occupancy
  Pr  Pr0  1  0.26763043  0.44763254  0.87466654  1
  Pr  Pr1  1  0.74327548  0.50780287  0.14688375  1
  Pr  Pr2  1  0.77220349  0.96240586  0.87539349  1
  Pr  Pr3  1  0.23736265  0.02826643  0.13814145  1
  Mn  Mn4  1  0.27704705  0.55566167  0.57958085  1
  Mn  Mn5  1  0.71636544  0.50565235  0.39189522  1
  Mn  Mn6  1  0.00181339  0.94936555  0.00573715  1
  Mn  Mn7  1  0.79266400  0.94496978  0.61504274  1
  Mn  Mn8  1  0.18084298  0.97018549  0.40368712  1
  Mn  Mn9  1  0.53883717  0.47522913  0.04042659  1
  Sb  Sb10  1  0.90528424  0.01127469  0.46769147  1
  Sb  Sb11  1  0.11439213  0.93960645  0.55334647  1
  Sb  Sb12  1  0.02363871  0.50840897  0.80489618  1
  Sb  Sb13  1  0.97196901  0.51629115  0.19895923  1
  Sb  Sb14  1  0.38299008  0.52837675  0.44374724  1
  Sb  Sb15  1  0.61124882  0.46149931  0.54127343  1
  Sb  Sb16  1  0.53790089  0.95032462  0.82185918  1
  Sb  Sb17  1  0.45717448  0.05547795  0.18048479  1
  S  S18  1  0.93781240  0.01372643  0.81652412  1
  S  S19  1  0.06986179  0.96241674  0.19811671  1
  S  S20  1  0.42644619  0.03986249  0.98782688  1
  S  S21  1  0.61257335  0.98866068  0.04502110  1
  S  S22  1  0.17620044  0.03324330  0.90960368  1
  S  S23  1  0.83943418  0.02722202  0.12174376  1
  S  S24  1  0.10369575  0.50428470  0.66113482  1
  S  S25  1  0.91946358  0.50985392  0.36957604  1
  S  S26  1  0.75376734  0.94414856  0.31598980  1
  S  S27  1  0.26126467  0.00245521  0.68722700  1
  S  S28  1  0.13997479  0.46312957  0.42843814  1
  S  S29  1  0.83877186  0.42941112  0.56756409  1
  S  S30  1  0.46603632  0.50786735  0.84273874  1
  S  S31  1  0.58078371  0.50777833  0.22256756  1
  S  S32  1  0.92488165  0.46510192  0.00278951  1
  S  S33  1  0.08024719  0.50621477  0.00448191  1
  S  S34  1  0.68180733  0.53535950  0.91022737  1
  S  S35  1  0.33295196  0.51989846  0.09769309  1
  S  S36  1  0.58345415  0.95661177  0.63684473  1
  S  S37  1  0.41048725  0.04810248  0.34813938  1
  S  S38  1  0.24123041  0.51589210  0.28593110  1
  S  S39  1  0.76239291  0.43807827  0.67800432  1
  S  S40  1  0.67143012  0.06814945  0.43555206  1
  S  S41  1  0.31954208  0.99822549  0.53922327  1
