# generated using pymatgen
data_Pr2Mn3(SbS3)4
_symmetry_space_group_name_H-M   'P 1'
_cell_length_a   20.02960800
_cell_length_b   3.90410600
_cell_length_c   14.95364829
_cell_angle_alpha   90.00000000
_cell_angle_beta   126.33350609
_cell_angle_gamma   90.00000000
_symmetry_Int_Tables_number   1
_chemical_formula_structural   Pr2Mn3(SbS3)4
_chemical_formula_sum   'Pr4 Mn6 Sb8 S24'
_cell_volume   942.00006694
_cell_formula_units_Z   2
loop_
 _symmetry_equiv_pos_site_id
 _symmetry_equiv_pos_as_xyz
  1  'x, y, z'
loop_
 _atom_site_type_symbol
 _atom_site_label
 _atom_site_symmetry_multiplicity
 _atom_site_fract_x
 _atom_site_fract_y
 _atom_site_fract_z
 _atom_site_occupancy
  Pr  Pr0  1  0.26774695  0.44759918  0.87474328  1
  Pr  Pr1  1  0.74334170  0.50796642  0.14727329  1
  Pr  Pr2  1  0.77214535  0.96324116  0.87538689  1
  Pr  Pr3  1  0.23733237  0.02796641  0.13814877  1
  Mn  Mn4  1  0.27685197  0.55562452  0.57954282  1
  Mn  Mn5  1  0.71637244  0.50623166  0.39186635  1
  Mn  Mn6  1  0.00186948  0.94936290  0.00591646  1
  Mn  Mn7  1  0.79282637  0.94521190  0.61502119  1
  Mn  Mn8  1  0.18081259  0.97015233  0.40374131  1
  Mn  Mn9  1  0.53880496  0.47497158  0.04024584  1
  Sb  Sb10  1  0.90550004  0.01153056  0.46807004  1
  Sb  Sb11  1  0.11452614  0.93886616  0.55355857  1
  Sb  Sb12  1  0.02340797  0.50775842  0.80489005  1
  Sb  Sb13  1  0.97204797  0.51669239  0.19893248  1
  Sb  Sb14  1  0.38308958  0.52949143  0.44400765  1
  Sb  Sb15  1  0.61112857  0.46186667  0.54105616  1
  Sb  Sb16  1  0.53779248  0.95019685  0.82162457  1
  Sb  Sb17  1  0.45707959  0.05588968  0.18018467  1
  S  S18  1  0.93770664  0.01288093  0.81642898  1
  S  S19  1  0.06980505  0.96310984  0.19811610  1
  S  S20  1  0.42669023  0.03929549  0.98779817  1
  S  S21  1  0.61239993  0.98724283  0.04454387  1
  S  S22  1  0.17636653  0.03394091  0.90980022  1
  S  S23  1  0.83921893  0.02811185  0.12173821  1
  S  S24  1  0.10371701  0.50319252  0.66140404  1
  S  S25  1  0.91935640  0.51135826  0.36926981  1
  S  S26  1  0.75387458  0.94466633  0.31640991  1
  S  S27  1  0.26102777  0.00282031  0.68683927  1
  S  S28  1  0.13993123  0.46386654  0.42864238  1
  S  S29  1  0.83908817  0.42928906  0.56781162  1
  S  S30  1  0.46619514  0.50837218  0.84284392  1
  S  S31  1  0.58100296  0.50842972  0.22286385  1
  S  S32  1  0.92474866  0.46360882  0.00256120  1
  S  S33  1  0.08006275  0.50651517  0.00415087  1
  S  S34  1  0.68192399  0.53527400  0.91046789  1
  S  S35  1  0.33302996  0.51994156  0.09791603  1
  S  S36  1  0.58374100  0.95652901  0.63723134  1
  S  S37  1  0.41027624  0.04454894  0.34808620  1
  S  S38  1  0.24136249  0.51639446  0.28572009  1
  S  S39  1  0.76276001  0.43746817  0.67831526  1
  S  S40  1  0.67112377  0.06926618  0.43517426  1
  S  S41  1  0.31981355  0.99775483  0.53938217  1
