# generated using pymatgen
data_Pr2Mn3(SbS3)4
_symmetry_space_group_name_H-M   'P 1'
_cell_length_a   20.02960800
_cell_length_b   3.90410600
_cell_length_c   14.95364829
_cell_angle_alpha   90.00000000
_cell_angle_beta   126.33350609
_cell_angle_gamma   90.00000000
_symmetry_Int_Tables_number   1
_chemical_formula_structural   Pr2Mn3(SbS3)4
_chemical_formula_sum   'Pr4 Mn6 Sb8 S24'
_cell_volume   942.00006694
_cell_formula_units_Z   2
loop_
 _symmetry_equiv_pos_site_id
 _symmetry_equiv_pos_as_xyz
  1  'x, y, z'
loop_
 _atom_site_type_symbol
 _atom_site_label
 _atom_site_symmetry_multiplicity
 _atom_site_fract_x
 _atom_site_fract_y
 _atom_site_fract_z
 _atom_site_occupancy
  Pr  Pr0  1  0.26790264  0.44765378  0.87485002  1
  Pr  Pr1  1  0.74334649  0.50801578  0.14767414  1
  Pr  Pr2  1  0.77209333  0.96380396  0.87543183  1
  Pr  Pr3  1  0.23722306  0.02756405  0.13813485  1
  Mn  Mn4  1  0.27671055  0.55552272  0.57950343  1
  Mn  Mn5  1  0.71639835  0.50752417  0.39169233  1
  Mn  Mn6  1  0.00196679  0.94905381  0.00615967  1
  Mn  Mn7  1  0.79292377  0.94517802  0.61496416  1
  Mn  Mn8  1  0.18073982  0.97089159  0.40382577  1
  Mn  Mn9  1  0.53860447  0.47536653  0.04000977  1
  Sb  Sb10  1  0.90567405  0.01184562  0.46833999  1
  Sb  Sb11  1  0.11462338  0.93798178  0.55371642  1
  Sb  Sb12  1  0.02320932  0.50747738  0.80490595  1
  Sb  Sb13  1  0.97216245  0.51716120  0.19891433  1
  Sb  Sb14  1  0.38311218  0.53058615  0.44409547  1
  Sb  Sb15  1  0.61096149  0.46232446  0.54077359  1
  Sb  Sb16  1  0.53764014  0.95011518  0.82144137  1
  Sb  Sb17  1  0.45701538  0.05628263  0.17987998  1
  S  S18  1  0.93770095  0.01287233  0.81640608  1
  S  S19  1  0.06955377  0.96421059  0.19794340  1
  S  S20  1  0.42684545  0.03879860  0.98772564  1
  S  S21  1  0.61220890  0.98650902  0.04417796  1
  S  S22  1  0.17630240  0.03463932  0.90988777  1
  S  S23  1  0.83888382  0.02880171  0.12168273  1
  S  S24  1  0.10372438  0.50233665  0.66164125  1
  S  S25  1  0.91910154  0.51269701  0.36907354  1
  S  S26  1  0.75417200  0.94487215  0.31697695  1
  S  S27  1  0.26082891  0.00315916  0.68629565  1
  S  S28  1  0.13986938  0.46492051  0.42891958  1
  S  S29  1  0.83925611  0.42962678  0.56777540  1
  S  S30  1  0.46620213  0.50817100  0.84276389  1
  S  S31  1  0.58116004  0.50859424  0.22319794  1
  S  S32  1  0.92455655  0.46240734  0.00227408  1
  S  S33  1  0.07978330  0.50591208  0.00392457  1
  S  S34  1  0.68205535  0.53526648  0.91075487  1
  S  S35  1  0.33308593  0.52004022  0.09820191  1
  S  S36  1  0.58401348  0.95692389  0.63746929  1
  S  S37  1  0.41003308  0.04106912  0.34807270  1
  S  S38  1  0.24149380  0.51617854  0.28562606  1
  S  S39  1  0.76314435  0.43720526  0.67868529  1
  S  S40  1  0.67066978  0.07120195  0.43461727  1
  S  S41  1  0.32007542  0.99754224  0.53951737  1
