# generated using pymatgen
data_Pr2Mn3(SbS3)4
_symmetry_space_group_name_H-M   'P 1'
_cell_length_a   20.02960800
_cell_length_b   3.90410600
_cell_length_c   14.95364829
_cell_angle_alpha   90.00000000
_cell_angle_beta   126.33350609
_cell_angle_gamma   90.00000000
_symmetry_Int_Tables_number   1
_chemical_formula_structural   Pr2Mn3(SbS3)4
_chemical_formula_sum   'Pr4 Mn6 Sb8 S24'
_cell_volume   942.00006694
_cell_formula_units_Z   2
loop_
 _symmetry_equiv_pos_site_id
 _symmetry_equiv_pos_as_xyz
  1  'x, y, z'
loop_
 _atom_site_type_symbol
 _atom_site_label
 _atom_site_symmetry_multiplicity
 _atom_site_fract_x
 _atom_site_fract_y
 _atom_site_fract_z
 _atom_site_occupancy
  Pr  Pr0  1  0.26800664  0.44755174  0.87492555  1
  Pr  Pr1  1  0.74332941  0.50819948  0.14791299  1
  Pr  Pr2  1  0.77203566  0.96433008  0.87541611  1
  Pr  Pr3  1  0.23714697  0.02719841  0.13820047  1
  Mn  Mn4  1  0.27654534  0.55577828  0.57950609  1
  Mn  Mn5  1  0.71635370  0.50861038  0.39145954  1
  Mn  Mn6  1  0.00202651  0.94864247  0.00634844  1
  Mn  Mn7  1  0.79296842  0.94537360  0.61498732  1
  Mn  Mn8  1  0.18082306  0.97180096  0.40423399  1
  Mn  Mn9  1  0.53842862  0.47619167  0.03987740  1
  Sb  Sb10  1  0.90584328  0.01210342  0.46861856  1
  Sb  Sb11  1  0.11463503  0.93703405  0.55389589  1
  Sb  Sb12  1  0.02307826  0.50716549  0.80497086  1
  Sb  Sb13  1  0.97229722  0.51757287  0.19895298  1
  Sb  Sb14  1  0.38311898  0.53149503  0.44413696  1
  Sb  Sb15  1  0.61082773  0.46277997  0.54055353  1
  Sb  Sb16  1  0.53752364  0.95012444  0.82127581  1
  Sb  Sb17  1  0.45692067  0.05671150  0.17967137  1
  S  S18  1  0.93768350  0.01279082  0.81637900  1
  S  S19  1  0.06930456  0.96494135  0.19781693  1
  S  S20  1  0.42710319  0.03847473  0.98760552  1
  S  S21  1  0.61198407  0.98599566  0.04370248  1
  S  S22  1  0.17628621  0.03540832  0.91005854  1
  S  S23  1  0.83856496  0.02918163  0.12168370  1
  S  S24  1  0.10367107  0.50152802  0.66198897  1
  S  S25  1  0.91887819  0.51452018  0.36896423  1
  S  S26  1  0.75440829  0.94525973  0.31752120  1
  S  S27  1  0.26059971  0.00306625  0.68588974  1
  S  S28  1  0.13982932  0.46633181  0.42927259  1
  S  S29  1  0.83934764  0.42976918  0.56789307  1
  S  S30  1  0.46605725  0.50807353  0.84243269  1
  S  S31  1  0.58139689  0.50889602  0.22350806  1
  S  S32  1  0.92437091  0.46102214  0.00192915  1
  S  S33  1  0.07964840  0.50499892  0.00395763  1
  S  S34  1  0.68233498  0.53477443  0.91129122  1
  S  S35  1  0.33304335  0.52011203  0.09822737  1
  S  S36  1  0.58421753  0.95776185  0.63748936  1
  S  S37  1  0.40978182  0.03756821  0.34801268  1
  S  S38  1  0.24158441  0.51626717  0.28565647  1
  S  S39  1  0.76352442  0.43699502  0.67912974  1
  S  S40  1  0.67027600  0.07267746  0.43410701  1
  S  S41  1  0.32023608  0.99699890  0.53956184  1
