# generated using pymatgen
data_Pr2Mn3(SbS3)4
_symmetry_space_group_name_H-M   'P 1'
_cell_length_a   20.02960800
_cell_length_b   3.90410600
_cell_length_c   14.95364829
_cell_angle_alpha   90.00000000
_cell_angle_beta   126.33350609
_cell_angle_gamma   90.00000000
_symmetry_Int_Tables_number   1
_chemical_formula_structural   Pr2Mn3(SbS3)4
_chemical_formula_sum   'Pr4 Mn6 Sb8 S24'
_cell_volume   942.00006694
_cell_formula_units_Z   2
loop_
 _symmetry_equiv_pos_site_id
 _symmetry_equiv_pos_as_xyz
  1  'x, y, z'
loop_
 _atom_site_type_symbol
 _atom_site_label
 _atom_site_symmetry_multiplicity
 _atom_site_fract_x
 _atom_site_fract_y
 _atom_site_fract_z
 _atom_site_occupancy
  Pr  Pr0  1  0.26809270  0.44730673  0.87490476  1
  Pr  Pr1  1  0.74330697  0.50867647  0.14814142  1
  Pr  Pr2  1  0.77197254  0.96511915  0.87543892  1
  Pr  Pr3  1  0.23710982  0.02679173  0.13818962  1
  Mn  Mn4  1  0.27636924  0.55611571  0.57965677  1
  Mn  Mn5  1  0.71641875  0.50932315  0.39130918  1
  Mn  Mn6  1  0.00213230  0.94842927  0.00659523  1
  Mn  Mn7  1  0.79295455  0.94539401  0.61492452  1
  Mn  Mn8  1  0.18105820  0.97276413  0.40481510  1
  Mn  Mn9  1  0.53816355  0.47713072  0.03965655  1
  Sb  Sb10  1  0.90607375  0.01247665  0.46895780  1
  Sb  Sb11  1  0.11456630  0.93584700  0.55411125  1
  Sb  Sb12  1  0.02293413  0.50704801  0.80494413  1
  Sb  Sb13  1  0.97252807  0.51812458  0.19895203  1
  Sb  Sb14  1  0.38313731  0.53267805  0.44421334  1
  Sb  Sb15  1  0.61070232  0.46351098  0.54038765  1
  Sb  Sb16  1  0.53747842  0.94994355  0.82125519  1
  Sb  Sb17  1  0.45676816  0.05731200  0.17949798  1
  S  S18  1  0.93766084  0.01216768  0.81636383  1
  S  S19  1  0.06914589  0.96547642  0.19782505  1
  S  S20  1  0.42744587  0.03827396  0.98734001  1
  S  S21  1  0.61173838  0.98491189  0.04328906  1
  S  S22  1  0.17641719  0.03614279  0.91023582  1
  S  S23  1  0.83822274  0.02956703  0.12181685  1
  S  S24  1  0.10352658  0.50118147  0.66227873  1
  S  S25  1  0.91861665  0.51623563  0.36871476  1
  S  S26  1  0.75457974  0.94557404  0.31792941  1
  S  S27  1  0.26027756  0.00213225  0.68557649  1
  S  S28  1  0.13974808  0.46734108  0.42961664  1
  S  S29  1  0.83953867  0.42997400  0.56795504  1
  S  S30  1  0.46596165  0.50791269  0.84238496  1
  S  S31  1  0.58162569  0.50934696  0.22370218  1
  S  S32  1  0.92402198  0.45917276  0.00137856  1
  S  S33  1  0.07961390  0.50422599  0.00393459  1
  S  S34  1  0.68258233  0.53420210  0.91173713  1
  S  S35  1  0.33293609  0.52007475  0.09806348  1
  S  S36  1  0.58457575  0.95870185  0.63758896  1
  S  S37  1  0.40940685  0.03420831  0.34796075  1
  S  S38  1  0.24191806  0.51631798  0.28580237  1
  S  S39  1  0.76390278  0.43709187  0.67969848  1
  S  S40  1  0.66987666  0.07327124  0.43351670  1
  S  S41  1  0.32039749  0.99597418  0.53978752  1
