# generated using pymatgen
data_Pr2Mn3(SbS3)4
_symmetry_space_group_name_H-M   'P 1'
_cell_length_a   20.02960800
_cell_length_b   3.90410600
_cell_length_c   14.95364829
_cell_angle_alpha   90.00000000
_cell_angle_beta   126.33350609
_cell_angle_gamma   90.00000000
_symmetry_Int_Tables_number   1
_chemical_formula_structural   Pr2Mn3(SbS3)4
_chemical_formula_sum   'Pr4 Mn6 Sb8 S24'
_cell_volume   942.00006694
_cell_formula_units_Z   2
loop_
 _symmetry_equiv_pos_site_id
 _symmetry_equiv_pos_as_xyz
  1  'x, y, z'
loop_
 _atom_site_type_symbol
 _atom_site_label
 _atom_site_symmetry_multiplicity
 _atom_site_fract_x
 _atom_site_fract_y
 _atom_site_fract_z
 _atom_site_occupancy
  Pr  Pr0  1  0.26817803  0.44675811  0.87475572  1
  Pr  Pr1  1  0.74327285  0.50915290  0.14833053  1
  Pr  Pr2  1  0.77194015  0.96596425  0.87548588  1
  Pr  Pr3  1  0.23704664  0.02638322  0.13818801  1
  Mn  Mn4  1  0.27631643  0.55687139  0.57983986  1
  Mn  Mn5  1  0.71642072  0.51058408  0.39136476  1
  Mn  Mn6  1  0.00229495  0.94837488  0.00684240  1
  Mn  Mn7  1  0.79279208  0.94485041  0.61483125  1
  Mn  Mn8  1  0.18119044  0.97366733  0.40527878  1
  Mn  Mn9  1  0.53796307  0.47807311  0.03936200  1
  Sb  Sb10  1  0.90631593  0.01347924  0.46926743  1
  Sb  Sb11  1  0.11455461  0.93475552  0.55437672  1
  Sb  Sb12  1  0.02269657  0.50655369  0.80483404  1
  Sb  Sb13  1  0.97276901  0.51824865  0.19896004  1
  Sb  Sb14  1  0.38312984  0.53360509  0.44432900  1
  Sb  Sb15  1  0.61069209  0.46434592  0.54030789  1
  Sb  Sb16  1  0.53744677  0.94982884  0.82126499  1
  Sb  Sb17  1  0.45660477  0.05782236  0.17928216  1
  S  S18  1  0.93759506  0.01147442  0.81635692  1
  S  S19  1  0.06904375  0.96521796  0.19775499  1
  S  S20  1  0.42782623  0.03774464  0.98709321  1
  S  S21  1  0.61148262  0.98380468  0.04303369  1
  S  S22  1  0.17654646  0.03681581  0.91037812  1
  S  S23  1  0.83794702  0.03025111  0.12197817  1
  S  S24  1  0.10347991  0.50073095  0.66244495  1
  S  S25  1  0.91850119  0.51806413  0.36853866  1
  S  S26  1  0.75473571  0.94534987  0.31846581  1
  S  S27  1  0.26027711  0.00117824  0.68561313  1
  S  S28  1  0.13960899  0.46844049  0.42984293  1
  S  S29  1  0.83976644  0.43006256  0.56818201  1
  S  S30  1  0.46577268  0.50738156  0.84232149  1
  S  S31  1  0.58183843  0.50990418  0.22367755  1
  S  S32  1  0.92380187  0.45726696  0.00089905  1
  S  S33  1  0.07932994  0.50389735  0.00384977  1
  S  S34  1  0.68289113  0.53341113  0.91230834  1
  S  S35  1  0.33289199  0.51994099  0.09772134  1
  S  S36  1  0.58479676  0.96014204  0.63774105  1
  S  S37  1  0.40904130  0.03079385  0.34768966  1
  S  S38  1  0.24205593  0.51566419  0.28582956  1
  S  S39  1  0.76435128  0.43716733  0.68024126  1
  S  S40  1  0.66973247  0.07435550  0.43298000  1
  S  S41  1  0.32048017  0.99517151  0.54021196  1
