# generated using pymatgen
data_Pr2Mn3(SbS3)4
_symmetry_space_group_name_H-M   'P 1'
_cell_length_a   20.02960800
_cell_length_b   3.90410600
_cell_length_c   14.95364829
_cell_angle_alpha   90.00000000
_cell_angle_beta   126.33350609
_cell_angle_gamma   90.00000000
_symmetry_Int_Tables_number   1
_chemical_formula_structural   Pr2Mn3(SbS3)4
_chemical_formula_sum   'Pr4 Mn6 Sb8 S24'
_cell_volume   942.00006694
_cell_formula_units_Z   2
loop_
 _symmetry_equiv_pos_site_id
 _symmetry_equiv_pos_as_xyz
  1  'x, y, z'
loop_
 _atom_site_type_symbol
 _atom_site_label
 _atom_site_symmetry_multiplicity
 _atom_site_fract_x
 _atom_site_fract_y
 _atom_site_fract_z
 _atom_site_occupancy
  Pr  Pr0  1  0.26821286  0.44620250  0.87453630  1
  Pr  Pr1  1  0.74322808  0.50971207  0.14840993  1
  Pr  Pr2  1  0.77201274  0.96681887  0.87562943  1
  Pr  Pr3  1  0.23698175  0.02603298  0.13810968  1
  Mn  Mn4  1  0.27624314  0.55721493  0.57998244  1
  Mn  Mn5  1  0.71635539  0.51113302  0.39132931  1
  Mn  Mn6  1  0.00241524  0.94824379  0.00711401  1
  Mn  Mn7  1  0.79262248  0.94420321  0.61479500  1
  Mn  Mn8  1  0.18134774  0.97424934  0.40597487  1
  Mn  Mn9  1  0.53782988  0.47882764  0.03920825  1
  Sb  Sb10  1  0.90661629  0.01467998  0.46956840  1
  Sb  Sb11  1  0.11448728  0.93370488  0.55455444  1
  Sb  Sb12  1  0.02249791  0.50610396  0.80482101  1
  Sb  Sb13  1  0.97298918  0.51845290  0.19897982  1
  Sb  Sb14  1  0.38314784  0.53425164  0.44443403  1
  Sb  Sb15  1  0.61067012  0.46498691  0.54012952  1
  Sb  Sb16  1  0.53743519  0.94981072  0.82129661  1
  Sb  Sb17  1  0.45655943  0.05818443  0.17911764  1
  S  S18  1  0.93734917  0.01085025  0.81619541  1
  S  S19  1  0.06902539  0.96522467  0.19774824  1
  S  S20  1  0.42824642  0.03750543  0.98712393  1
  S  S21  1  0.61120376  0.98262592  0.04279243  1
  S  S22  1  0.17654549  0.03730459  0.91032183  1
  S  S23  1  0.83765681  0.03105944  0.12212180  1
  S  S24  1  0.10347702  0.49973099  0.66275239  1
  S  S25  1  0.91835914  0.51928552  0.36836124  1
  S  S26  1  0.75483078  0.94554644  0.31896939  1
  S  S27  1  0.26016941  0.00009994  0.68542605  1
  S  S28  1  0.13940382  0.46956968  0.42991515  1
  S  S29  1  0.83997854  0.43019630  0.56837638  1
  S  S30  1  0.46572448  0.50751028  0.84225063  1
  S  S31  1  0.58203966  0.51097079  0.22358446  1
  S  S32  1  0.92334492  0.45566022  0.00016495  1
  S  S33  1  0.07906322  0.50394430  0.00380301  1
  S  S34  1  0.68311559  0.53230162  0.91286003  1
  S  S35  1  0.33295424  0.51965488  0.09739931  1
  S  S36  1  0.58488851  0.96108502  0.63775191  1
  S  S37  1  0.40870367  0.02776515  0.34751694  1
  S  S38  1  0.24212946  0.51525797  0.28565900  1
  S  S39  1  0.76476365  0.43840924  0.68061559  1
  S  S40  1  0.66952445  0.07506175  0.43262341  1
  S  S41  1  0.32058066  0.99422375  0.54077432  1
