# generated using pymatgen
data_Pr2Mn3(SbS3)4
_symmetry_space_group_name_H-M   'P 1'
_cell_length_a   20.02960800
_cell_length_b   3.90410600
_cell_length_c   14.95364829
_cell_angle_alpha   90.00000000
_cell_angle_beta   126.33350609
_cell_angle_gamma   90.00000000
_symmetry_Int_Tables_number   1
_chemical_formula_structural   Pr2Mn3(SbS3)4
_chemical_formula_sum   'Pr4 Mn6 Sb8 S24'
_cell_volume   942.00006694
_cell_formula_units_Z   2
loop_
 _symmetry_equiv_pos_site_id
 _symmetry_equiv_pos_as_xyz
  1  'x, y, z'
loop_
 _atom_site_type_symbol
 _atom_site_label
 _atom_site_symmetry_multiplicity
 _atom_site_fract_x
 _atom_site_fract_y
 _atom_site_fract_z
 _atom_site_occupancy
  Pr  Pr0  1  0.26937190  0.50761394  0.87529382  1
  Pr  Pr1  1  0.73308056  0.52201929  0.13293305  1
  Pr  Pr2  1  0.76427355  0.03062166  0.87144609  1
  Pr  Pr3  1  0.22836618  0.95730339  0.12569904  1
  Mn  Mn4  1  0.29606643  0.45087257  0.60845128  1
  Mn  Mn5  1  0.68619116  0.45529773  0.36351511  1
  Mn  Mn6  1  0.99875799  0.97824292  0.00581796  1
  Mn  Mn7  1  0.78982828  0.01389623  0.61395175  1
  Mn  Mn8  1  0.20077573  0.03051161  0.37307053  1
  Mn  Mn9  1  0.48055059  0.47375192  0.97707329  1
  Sb  Sb10  1  0.89271672  0.96983617  0.45008076  1
  Sb  Sb11  1  0.11393811  0.97605152  0.54872497  1
  Sb  Sb12  1  0.03959820  0.51530206  0.82891437  1
  Sb  Sb13  1  0.96790911  0.48300584  0.19297553  1
  Sb  Sb14  1  0.39888259  0.49339681  0.45356033  1
  Sb  Sb15  1  0.61332445  0.48553741  0.54808957  1
  Sb  Sb16  1  0.52997791  0.97032716  0.80651298  1
  Sb  Sb17  1  0.46567068  0.03148808  0.18412467  1
  S  S18  1  0.93490062  0.98559863  0.79974365  1
  S  S19  1  0.06680508  0.98213690  0.20176262  1
  S  S20  1  0.42006783  0.97887139  0.97875302  1
  S  S21  1  0.58347163  0.01605822  0.00605238  1
  S  S22  1  0.16165416  0.02518264  0.89587322  1
  S  S23  1  0.83057861  0.97943457  0.10666392  1
  S  S24  1  0.09127074  0.49425032  0.63822558  1
  S  S25  1  0.91547008  0.50513115  0.35784418  1
  S  S26  1  0.73450726  0.99236083  0.29827710  1
  S  S27  1  0.26392255  0.01958145  0.70275931  1
  S  S28  1  0.17200462  0.51925747  0.44365931  1
  S  S29  1  0.80774508  0.53819591  0.53883719  1
  S  S30  1  0.43139662  0.47712739  0.79299096  1
  S  S31  1  0.55446941  0.48843011  0.17469298  1
  S  S32  1  0.91768746  0.52579426  0.98631690  1
  S  S33  1  0.08402118  0.48831685  0.02366103  1
  S  S34  1  0.66687153  0.55566477  0.88748890  1
  S  S35  1  0.32972307  0.45774384  0.10125743  1
  S  S36  1  0.58920120  0.98057654  0.64181138  1
  S  S37  1  0.39399931  0.99825381  0.33259389  1
  S  S38  1  0.24319354  0.47777702  0.31346465  1
  S  S39  1  0.76256183  0.48097598  0.69371770  1
  S  S40  1  0.65831161  0.99541615  0.43501670  1
  S  S41  1  0.32970187  0.96876048  0.55552762  1
