# generated using pymatgen
data_Pr2Mn3(SbS3)4
_symmetry_space_group_name_H-M   'P 1'
_cell_length_a   20.02960800
_cell_length_b   3.90410600
_cell_length_c   14.95364829
_cell_angle_alpha   90.00000000
_cell_angle_beta   126.33350609
_cell_angle_gamma   90.00000000
_symmetry_Int_Tables_number   1
_chemical_formula_structural   Pr2Mn3(SbS3)4
_chemical_formula_sum   'Pr4 Mn6 Sb8 S24'
_cell_volume   942.00006694
_cell_formula_units_Z   2
loop_
 _symmetry_equiv_pos_site_id
 _symmetry_equiv_pos_as_xyz
  1  'x, y, z'
loop_
 _atom_site_type_symbol
 _atom_site_label
 _atom_site_symmetry_multiplicity
 _atom_site_fract_x
 _atom_site_fract_y
 _atom_site_fract_z
 _atom_site_occupancy
  Pr  Pr0  1  0.26826767  0.44575691  0.87433780  1
  Pr  Pr1  1  0.74325543  0.51038010  0.14860797  1
  Pr  Pr2  1  0.77209492  0.96772681  0.87581458  1
  Pr  Pr3  1  0.23694831  0.02572302  0.13808110  1
  Mn  Mn4  1  0.27616110  0.55773501  0.58001599  1
  Mn  Mn5  1  0.71643930  0.51203307  0.39148326  1
  Mn  Mn6  1  0.00253631  0.94773784  0.00736372  1
  Mn  Mn7  1  0.79261943  0.94338077  0.61491752  1
  Mn  Mn8  1  0.18152701  0.97426259  0.40663549  1
  Mn  Mn9  1  0.53760450  0.47945195  0.03898628  1
  Sb  Sb10  1  0.90686062  0.01578568  0.46983933  1
  Sb  Sb11  1  0.11440522  0.93260998  0.55467268  1
  Sb  Sb12  1  0.02233651  0.50561679  0.80479656  1
  Sb  Sb13  1  0.97315832  0.51867456  0.19896844  1
  Sb  Sb14  1  0.38313155  0.53447617  0.44451162  1
  Sb  Sb15  1  0.61068732  0.46574489  0.54002297  1
  Sb  Sb16  1  0.53751617  0.94959237  0.82133257  1
  Sb  Sb17  1  0.45649636  0.05859074  0.17889742  1
  S  S18  1  0.93713358  0.00968109  0.81611654  1
  S  S19  1  0.06898799  0.96538728  0.19788138  1
  S  S20  1  0.42848696  0.03762377  0.98692834  1
  S  S21  1  0.61097671  0.98130326  0.04264493  1
  S  S22  1  0.17666979  0.03744306  0.91049847  1
  S  S23  1  0.83753129  0.03124159  0.12230844  1
  S  S24  1  0.10348461  0.49908979  0.66314890  1
  S  S25  1  0.91823657  0.52020732  0.36811570  1
  S  S26  1  0.75494853  0.94573602  0.31950089  1
  S  S27  1  0.26019819  0.99885313  0.68527333  1
  S  S28  1  0.13910920  0.47009578  0.43004570  1
  S  S29  1  0.84015574  0.43041538  0.56848583  1
  S  S30  1  0.46580338  0.50731448  0.84227368  1
  S  S31  1  0.58221100  0.51169869  0.22348148  1
  S  S32  1  0.92288960  0.45389118  0.99948361  1
  S  S33  1  0.07881808  0.50389975  0.00369975  1
  S  S34  1  0.68319213  0.53131738  0.91314369  1
  S  S35  1  0.33299052  0.51971427  0.09712628  1
  S  S36  1  0.58492250  0.96215650  0.63773557  1
  S  S37  1  0.40837340  0.02513069  0.34738752  1
  S  S38  1  0.24233703  0.51483319  0.28565726  1
  S  S39  1  0.76506645  0.43937580  0.68075771  1
  S  S40  1  0.66934807  0.07579992  0.43219682  1
  S  S41  1  0.32075972  0.99353605  0.54143992  1
