# generated using pymatgen
data_Pr2Mn3(SbS3)4
_symmetry_space_group_name_H-M   'P 1'
_cell_length_a   20.02960800
_cell_length_b   3.90410600
_cell_length_c   14.95364829
_cell_angle_alpha   90.00000000
_cell_angle_beta   126.33350609
_cell_angle_gamma   90.00000000
_symmetry_Int_Tables_number   1
_chemical_formula_structural   Pr2Mn3(SbS3)4
_chemical_formula_sum   'Pr4 Mn6 Sb8 S24'
_cell_volume   942.00006694
_cell_formula_units_Z   2
loop_
 _symmetry_equiv_pos_site_id
 _symmetry_equiv_pos_as_xyz
  1  'x, y, z'
loop_
 _atom_site_type_symbol
 _atom_site_label
 _atom_site_symmetry_multiplicity
 _atom_site_fract_x
 _atom_site_fract_y
 _atom_site_fract_z
 _atom_site_occupancy
  Pr  Pr0  1  0.26839723  0.44539170  0.87416898  1
  Pr  Pr1  1  0.74329163  0.51095582  0.14871685  1
  Pr  Pr2  1  0.77219186  0.96875789  0.87595408  1
  Pr  Pr3  1  0.23690141  0.02514595  0.13799301  1
  Mn  Mn4  1  0.27603422  0.55854102  0.58002559  1
  Mn  Mn5  1  0.71650361  0.51305924  0.39143182  1
  Mn  Mn6  1  0.00263962  0.94716543  0.00746043  1
  Mn  Mn7  1  0.79262180  0.94230968  0.61508306  1
  Mn  Mn8  1  0.18167817  0.97415461  0.40719006  1
  Mn  Mn9  1  0.53741070  0.47990978  0.03867293  1
  Sb  Sb10  1  0.90710427  0.01702114  0.47013150  1
  Sb  Sb11  1  0.11439987  0.93148722  0.55482805  1
  Sb  Sb12  1  0.02222016  0.50511513  0.80471942  1
  Sb  Sb13  1  0.97320611  0.51857871  0.19879070  1
  Sb  Sb14  1  0.38309798  0.53462354  0.44455435  1
  Sb  Sb15  1  0.61065729  0.46643923  0.53990603  1
  Sb  Sb16  1  0.53763778  0.94935132  0.82142546  1
  Sb  Sb17  1  0.45634274  0.05926548  0.17855900  1
  S  S18  1  0.93691053  0.00869473  0.81616500  1
  S  S19  1  0.06879959  0.96540006  0.19783159  1
  S  S20  1  0.42861295  0.03792045  0.98665490  1
  S  S21  1  0.61062822  0.97948287  0.04222516  1
  S  S22  1  0.17677248  0.03756008  0.91077320  1
  S  S23  1  0.83733855  0.03175200  0.12241079  1
  S  S24  1  0.10343417  0.49844411  0.66342848  1
  S  S25  1  0.91810973  0.52125351  0.36804443  1
  S  S26  1  0.75505333  0.94607060  0.31995998  1
  S  S27  1  0.26027417  0.99787082  0.68521799  1
  S  S28  1  0.13863937  0.47073218  0.42989681  1
  S  S29  1  0.84029414  0.43015073  0.56853201  1
  S  S30  1  0.46596919  0.50630716  0.84255530  1
  S  S31  1  0.58225401  0.51264606  0.22343695  1
  S  S32  1  0.92257164  0.45241030  0.99889288  1
  S  S33  1  0.07863741  0.50380736  0.00375369  1
  S  S34  1  0.68327451  0.53040744  0.91337081  1
  S  S35  1  0.33311289  0.51948225  0.09691743  1
  S  S36  1  0.58490453  0.96352670  0.63766092  1
  S  S37  1  0.40803973  0.02288750  0.34745723  1
  S  S38  1  0.24247121  0.51441633  0.28558954  1
  S  S39  1  0.76524029  0.43971416  0.68086383  1
  S  S40  1  0.66929599  0.07616129  0.43203310  1
  S  S41  1  0.32087373  0.99336468  0.54197439  1
