# generated using pymatgen
data_Pr2Mn3(SbS3)4
_symmetry_space_group_name_H-M   'P 1'
_cell_length_a   20.02960800
_cell_length_b   3.90410600
_cell_length_c   14.95364829
_cell_angle_alpha   90.00000000
_cell_angle_beta   126.33350609
_cell_angle_gamma   90.00000000
_symmetry_Int_Tables_number   1
_chemical_formula_structural   Pr2Mn3(SbS3)4
_chemical_formula_sum   'Pr4 Mn6 Sb8 S24'
_cell_volume   942.00006694
_cell_formula_units_Z   2
loop_
 _symmetry_equiv_pos_site_id
 _symmetry_equiv_pos_as_xyz
  1  'x, y, z'
loop_
 _atom_site_type_symbol
 _atom_site_label
 _atom_site_symmetry_multiplicity
 _atom_site_fract_x
 _atom_site_fract_y
 _atom_site_fract_z
 _atom_site_occupancy
  Pr  Pr0  1  0.26841944  0.44520908  0.87385795  1
  Pr  Pr1  1  0.74336948  0.51172592  0.14889442  1
  Pr  Pr2  1  0.77230365  0.96942346  0.87613522  1
  Pr  Pr3  1  0.23687332  0.02479506  0.13801365  1
  Mn  Mn4  1  0.27597511  0.55901785  0.58000897  1
  Mn  Mn5  1  0.71652271  0.51357161  0.39137472  1
  Mn  Mn6  1  0.00261584  0.94697927  0.00767905  1
  Mn  Mn7  1  0.79264582  0.94106214  0.61520082  1
  Mn  Mn8  1  0.18187150  0.97428457  0.40775676  1
  Mn  Mn9  1  0.53726270  0.48020448  0.03846328  1
  Sb  Sb10  1  0.90727252  0.01845969  0.47037092  1
  Sb  Sb11  1  0.11435087  0.93047038  0.55491866  1
  Sb  Sb12  1  0.02216078  0.50466581  0.80465687  1
  Sb  Sb13  1  0.97323549  0.51862248  0.19858376  1
  Sb  Sb14  1  0.38313847  0.53447180  0.44464299  1
  Sb  Sb15  1  0.61061627  0.46729173  0.53989070  1
  Sb  Sb16  1  0.53775919  0.94942645  0.82145235  1
  Sb  Sb17  1  0.45610594  0.05960392  0.17820369  1
  S  S18  1  0.93690665  0.00695218  0.81636706  1
  S  S19  1  0.06873880  0.96570929  0.19790331  1
  S  S20  1  0.42881620  0.03841373  0.98637110  1
  S  S21  1  0.61019421  0.97731737  0.04175750  1
  S  S22  1  0.17680102  0.03732950  0.91089877  1
  S  S23  1  0.83719954  0.03152280  0.12244071  1
  S  S24  1  0.10350354  0.49774479  0.66377292  1
  S  S25  1  0.91804421  0.52146555  0.36803782  1
  S  S26  1  0.75521947  0.94614431  0.32039971  1
  S  S27  1  0.26033600  0.99694940  0.68515411  1
  S  S28  1  0.13806868  0.47121836  0.42963374  1
  S  S29  1  0.84041104  0.43045089  0.56856439  1
  S  S30  1  0.46621599  0.50511873  0.84295245  1
  S  S31  1  0.58224354  0.51417147  0.22310675  1
  S  S32  1  0.92230008  0.45106804  0.99839392  1
  S  S33  1  0.07844644  0.50357117  0.00367658  1
  S  S34  1  0.68335688  0.53019356  0.91347752  1
  S  S35  1  0.33325215  0.51948761  0.09677347  1
  S  S36  1  0.58486112  0.96454881  0.63752194  1
  S  S37  1  0.40761138  0.02090691  0.34735030  1
  S  S38  1  0.24264562  0.51380042  0.28558896  1
  S  S39  1  0.76534667  0.44006631  0.68092924  1
  S  S40  1  0.66939457  0.07642365  0.43196630  1
  S  S41  1  0.32111507  0.99347611  0.54241720  1
