# generated using pymatgen
data_Pr2Mn3(SbS3)4
_symmetry_space_group_name_H-M   'P 1'
_cell_length_a   20.02960800
_cell_length_b   3.90410600
_cell_length_c   14.95364829
_cell_angle_alpha   90.00000000
_cell_angle_beta   126.33350609
_cell_angle_gamma   90.00000000
_symmetry_Int_Tables_number   1
_chemical_formula_structural   Pr2Mn3(SbS3)4
_chemical_formula_sum   'Pr4 Mn6 Sb8 S24'
_cell_volume   942.00006694
_cell_formula_units_Z   2
loop_
 _symmetry_equiv_pos_site_id
 _symmetry_equiv_pos_as_xyz
  1  'x, y, z'
loop_
 _atom_site_type_symbol
 _atom_site_label
 _atom_site_symmetry_multiplicity
 _atom_site_fract_x
 _atom_site_fract_y
 _atom_site_fract_z
 _atom_site_occupancy
  Pr  Pr0  1  0.26834868  0.44509045  0.87348144  1
  Pr  Pr1  1  0.74342538  0.51231308  0.14910072  1
  Pr  Pr2  1  0.77241163  0.97018548  0.87634866  1
  Pr  Pr3  1  0.23680597  0.02469374  0.13797393  1
  Mn  Mn4  1  0.27596535  0.55955372  0.58001160  1
  Mn  Mn5  1  0.71663374  0.51370260  0.39138634  1
  Mn  Mn6  1  0.00247838  0.94674912  0.00778915  1
  Mn  Mn7  1  0.79269391  0.93988018  0.61522372  1
  Mn  Mn8  1  0.18210235  0.97437378  0.40828251  1
  Mn  Mn9  1  0.53723164  0.48008322  0.03824787  1
  Sb  Sb10  1  0.90745901  0.01943791  0.47062329  1
  Sb  Sb11  1  0.11426081  0.92978323  0.55490430  1
  Sb  Sb12  1  0.02212562  0.50417506  0.80458290  1
  Sb  Sb13  1  0.97332316  0.51886092  0.19853911  1
  Sb  Sb14  1  0.38317227  0.53448859  0.44481083  1
  Sb  Sb15  1  0.61055621  0.46851556  0.53977253  1
  Sb  Sb16  1  0.53788261  0.94924662  0.82152786  1
  Sb  Sb17  1  0.45599678  0.05989403  0.17797273  1
  S  S18  1  0.93694599  0.00489027  0.81651268  1
  S  S19  1  0.06863638  0.96552765  0.19818437  1
  S  S20  1  0.42893104  0.03810226  0.98624047  1
  S  S21  1  0.60985460  0.97518408  0.04134194  1
  S  S22  1  0.17685548  0.03686335  0.91109594  1
  S  S23  1  0.83693041  0.03118271  0.12249534  1
  S  S24  1  0.10354395  0.49656161  0.66393229  1
  S  S25  1  0.91800834  0.52098750  0.36812618  1
  S  S26  1  0.75539783  0.94648684  0.32070817  1
  S  S27  1  0.26027234  0.99561695  0.68492516  1
  S  S28  1  0.13757494  0.47128835  0.42955892  1
  S  S29  1  0.84045894  0.43060952  0.56875390  1
  S  S30  1  0.46638358  0.50403993  0.84337900  1
  S  S31  1  0.58227986  0.51568316  0.22295295  1
  S  S32  1  0.92222518  0.44905301  0.99815623  1
  S  S33  1  0.07833059  0.50331614  0.00370727  1
  S  S34  1  0.68362951  0.52987816  0.91359501  1
  S  S35  1  0.33338446  0.51925121  0.09652512  1
  S  S36  1  0.58480075  0.96495190  0.63736914  1
  S  S37  1  0.40720446  0.01896911  0.34710409  1
  S  S38  1  0.24278592  0.51333559  0.28555842  1
  S  S39  1  0.76546404  0.44093537  0.68086024  1
  S  S40  1  0.66957313  0.07674740  0.43199974  1
  S  S41  1  0.32149096  0.99346102  0.54292516  1
