# generated using pymatgen
data_Pr2Mn3(SbS3)4
_symmetry_space_group_name_H-M   'P 1'
_cell_length_a   20.02960800
_cell_length_b   3.90410600
_cell_length_c   14.95364829
_cell_angle_alpha   90.00000000
_cell_angle_beta   126.33350609
_cell_angle_gamma   90.00000000
_symmetry_Int_Tables_number   1
_chemical_formula_structural   Pr2Mn3(SbS3)4
_chemical_formula_sum   'Pr4 Mn6 Sb8 S24'
_cell_volume   942.00006694
_cell_formula_units_Z   2
loop_
 _symmetry_equiv_pos_site_id
 _symmetry_equiv_pos_as_xyz
  1  'x, y, z'
loop_
 _atom_site_type_symbol
 _atom_site_label
 _atom_site_symmetry_multiplicity
 _atom_site_fract_x
 _atom_site_fract_y
 _atom_site_fract_z
 _atom_site_occupancy
  Pr  Pr0  1  0.26827667  0.44495929  0.87310692  1
  Pr  Pr1  1  0.74343525  0.51287508  0.14933217  1
  Pr  Pr2  1  0.77254072  0.97094155  0.87661861  1
  Pr  Pr3  1  0.23680501  0.02451207  0.13807489  1
  Mn  Mn4  1  0.27581644  0.56008084  0.57991845  1
  Mn  Mn5  1  0.71679582  0.51391165  0.39147632  1
  Mn  Mn6  1  0.00241324  0.94673661  0.00786929  1
  Mn  Mn7  1  0.79279179  0.93853426  0.61527432  1
  Mn  Mn8  1  0.18234316  0.97465050  0.40887832  1
  Mn  Mn9  1  0.53710895  0.47972805  0.03796251  1
  Sb  Sb10  1  0.90756342  0.02041867  0.47069254  1
  Sb  Sb11  1  0.11410587  0.92924298  0.55484362  1
  Sb  Sb12  1  0.02205992  0.50340082  0.80445415  1
  Sb  Sb13  1  0.97334499  0.51917490  0.19846279  1
  Sb  Sb14  1  0.38326759  0.53446893  0.44512640  1
  Sb  Sb15  1  0.61051608  0.46935680  0.53969810  1
  Sb  Sb16  1  0.53800535  0.94940262  0.82154688  1
  Sb  Sb17  1  0.45596302  0.06040299  0.17776864  1
  S  S18  1  0.93704288  0.00272192  0.81668447  1
  S  S19  1  0.06873419  0.96501580  0.19854939  1
  S  S20  1  0.42899155  0.03759997  0.98612587  1
  S  S21  1  0.60959672  0.97300698  0.04105343  1
  S  S22  1  0.17674120  0.03627905  0.91126085  1
  S  S23  1  0.83661390  0.03120804  0.12252471  1
  S  S24  1  0.10364297  0.49645354  0.66416394  1
  S  S25  1  0.91786041  0.52126385  0.36824574  1
  S  S26  1  0.75562114  0.94678599  0.32103977  1
  S  S27  1  0.26018599  0.99444070  0.68478280  1
  S  S28  1  0.13727931  0.47133309  0.42947183  1
  S  S29  1  0.84039323  0.43030333  0.56889525  1
  S  S30  1  0.46661973  0.50278141  0.84390876  1
  S  S31  1  0.58236841  0.51730440  0.22258537  1
  S  S32  1  0.92207554  0.44719032  0.99784374  1
  S  S33  1  0.07825949  0.50347428  0.00370029  1
  S  S34  1  0.68390636  0.52960542  0.91383220  1
  S  S35  1  0.33366129  0.51820839  0.09632713  1
  S  S36  1  0.58480696  0.96501273  0.63725221  1
  S  S37  1  0.40689562  0.01671811  0.34691730  1
  S  S38  1  0.24278310  0.51332821  0.28554764  1
  S  S39  1  0.76557376  0.44211418  0.68078760  1
  S  S40  1  0.66974417  0.07704645  0.43191320  1
  S  S41  1  0.32185863  0.99381406  0.54335219  1
