# generated using pymatgen
data_Pr2Mn3(SbS3)4
_symmetry_space_group_name_H-M   'P 1'
_cell_length_a   20.02960800
_cell_length_b   3.90410600
_cell_length_c   14.95364829
_cell_angle_alpha   90.00000000
_cell_angle_beta   126.33350609
_cell_angle_gamma   90.00000000
_symmetry_Int_Tables_number   1
_chemical_formula_structural   Pr2Mn3(SbS3)4
_chemical_formula_sum   'Pr4 Mn6 Sb8 S24'
_cell_volume   942.00006694
_cell_formula_units_Z   2
loop_
 _symmetry_equiv_pos_site_id
 _symmetry_equiv_pos_as_xyz
  1  'x, y, z'
loop_
 _atom_site_type_symbol
 _atom_site_label
 _atom_site_symmetry_multiplicity
 _atom_site_fract_x
 _atom_site_fract_y
 _atom_site_fract_z
 _atom_site_occupancy
  Pr  Pr0  1  0.26819855  0.44496257  0.87275708  1
  Pr  Pr1  1  0.74347696  0.51336789  0.14954401  1
  Pr  Pr2  1  0.77269760  0.97154579  0.87695049  1
  Pr  Pr3  1  0.23680338  0.02421484  0.13807637  1
  Mn  Mn4  1  0.27571514  0.56058083  0.57998539  1
  Mn  Mn5  1  0.71689818  0.51427268  0.39156360  1
  Mn  Mn6  1  0.00237045  0.94731638  0.00795307  1
  Mn  Mn7  1  0.79293193  0.93670957  0.61527220  1
  Mn  Mn8  1  0.18254751  0.97460793  0.40946651  1
  Mn  Mn9  1  0.53683086  0.47958718  0.03758097  1
  Sb  Sb10  1  0.90761122  0.02126820  0.47068943  1
  Sb  Sb11  1  0.11398193  0.92856388  0.55478392  1
  Sb  Sb12  1  0.02190224  0.50300105  0.80421089  1
  Sb  Sb13  1  0.97334739  0.51916409  0.19835993  1
  Sb  Sb14  1  0.38327284  0.53420725  0.44531407  1
  Sb  Sb15  1  0.61050485  0.47010036  0.53970080  1
  Sb  Sb16  1  0.53803924  0.94982464  0.82152956  1
  Sb  Sb17  1  0.45595337  0.06051708  0.17754139  1
  S  S18  1  0.93696808  0.00127534  0.81633729  1
  S  S19  1  0.06881380  0.96462606  0.19899205  1
  S  S20  1  0.42900632  0.03740298  0.98644804  1
  S  S21  1  0.60926476  0.97186571  0.04074637  1
  S  S22  1  0.17666336  0.03594682  0.91133685  1
  S  S23  1  0.83635776  0.03156063  0.12242473  1
  S  S24  1  0.10386453  0.49637940  0.66458990  1
  S  S25  1  0.91770853  0.52165104  0.36820274  1
  S  S26  1  0.75576683  0.94617631  0.32111072  1
  S  S27  1  0.26005228  0.99396454  0.68473315  1
  S  S28  1  0.13699390  0.47126034  0.42929306  1
  S  S29  1  0.84034513  0.42997880  0.56897888  1
  S  S30  1  0.46686189  0.50118746  0.84452223  1
  S  S31  1  0.58247439  0.51967111  0.22232068  1
  S  S32  1  0.92203976  0.44600278  0.99762494  1
  S  S33  1  0.07821475  0.50379948  0.00377009  1
  S  S34  1  0.68407976  0.52939048  0.91403882  1
  S  S35  1  0.33406356  0.51717791  0.09632373  1
  S  S36  1  0.58485437  0.96532628  0.63723485  1
  S  S37  1  0.40671516  0.01488776  0.34675421  1
  S  S38  1  0.24284131  0.51376850  0.28555291  1
  S  S39  1  0.76571148  0.44430331  0.68077439  1
  S  S40  1  0.66997596  0.07734218  0.43191960  1
  S  S41  1  0.32209119  0.99464693  0.54349648  1
