# generated using pymatgen
data_Pr2Mn3(SbS3)4
_symmetry_space_group_name_H-M   'P 1'
_cell_length_a   20.02960800
_cell_length_b   3.90410600
_cell_length_c   14.95364829
_cell_angle_alpha   90.00000000
_cell_angle_beta   126.33350609
_cell_angle_gamma   90.00000000
_symmetry_Int_Tables_number   1
_chemical_formula_structural   Pr2Mn3(SbS3)4
_chemical_formula_sum   'Pr4 Mn6 Sb8 S24'
_cell_volume   942.00006694
_cell_formula_units_Z   2
loop_
 _symmetry_equiv_pos_site_id
 _symmetry_equiv_pos_as_xyz
  1  'x, y, z'
loop_
 _atom_site_type_symbol
 _atom_site_label
 _atom_site_symmetry_multiplicity
 _atom_site_fract_x
 _atom_site_fract_y
 _atom_site_fract_z
 _atom_site_occupancy
  Pr  Pr0  1  0.26814127  0.44496665  0.87248783  1
  Pr  Pr1  1  0.74349297  0.51372162  0.14971692  1
  Pr  Pr2  1  0.77281839  0.97180381  0.87725330  1
  Pr  Pr3  1  0.23685253  0.02399979  0.13804958  1
  Mn  Mn4  1  0.27569229  0.56077202  0.58016596  1
  Mn  Mn5  1  0.71694923  0.51428523  0.39159874  1
  Mn  Mn6  1  0.00242685  0.94795980  0.00807507  1
  Mn  Mn7  1  0.79296197  0.93503774  0.61516558  1
  Mn  Mn8  1  0.18281899  0.97404769  0.41007933  1
  Mn  Mn9  1  0.53660704  0.47992456  0.03731126  1
  Sb  Sb10  1  0.90772472  0.02220588  0.47070238  1
  Sb  Sb11  1  0.11383677  0.92803303  0.55470187  1
  Sb  Sb12  1  0.02174245  0.50265380  0.80403345  1
  Sb  Sb13  1  0.97327417  0.51893395  0.19818911  1
  Sb  Sb14  1  0.38327412  0.53375453  0.44548187  1
  Sb  Sb15  1  0.61055149  0.47101431  0.53972993  1
  Sb  Sb16  1  0.53805063  0.95038786  0.82144155  1
  Sb  Sb17  1  0.45602679  0.06106675  0.17741393  1
  S  S18  1  0.93683423  0.00061411  0.81588748  1
  S  S19  1  0.06882324  0.96416785  0.19927751  1
  S  S20  1  0.42905910  0.03680061  0.98686034  1
  S  S21  1  0.60891673  0.97023649  0.04046356  1
  S  S22  1  0.17665813  0.03641412  0.91166170  1
  S  S23  1  0.83609594  0.03136782  0.12232388  1
  S  S24  1  0.10413422  0.49638808  0.66516235  1
  S  S25  1  0.91756321  0.52218372  0.36809123  1
  S  S26  1  0.75584598  0.94626236  0.32116170  1
  S  S27  1  0.25998199  0.99409720  0.68470152  1
  S  S28  1  0.13664521  0.47118630  0.42920863  1
  S  S29  1  0.84042145  0.43016577  0.56903102  1
  S  S30  1  0.46712169  0.49968721  0.84490943  1
  S  S31  1  0.58242352  0.52223034  0.22189177  1
  S  S32  1  0.92197116  0.44511795  0.99760454  1
  S  S33  1  0.07817823  0.50414452  0.00377470  1
  S  S34  1  0.68427158  0.52893383  0.91432040  1
  S  S35  1  0.33436075  0.51610468  0.09611348  1
  S  S36  1  0.58484414  0.96572192  0.63715042  1
  S  S37  1  0.40652751  0.01313366  0.34664121  1
  S  S38  1  0.24283024  0.51485422  0.28533957  1
  S  S39  1  0.76575254  0.44624350  0.68079125  1
  S  S40  1  0.67018488  0.07739894  0.43190363  1
  S  S41  1  0.32231753  0.99557650  0.54375971  1
