# generated using pymatgen
data_Pr2Mn3(SbS3)4
_symmetry_space_group_name_H-M   'P 1'
_cell_length_a   20.02960800
_cell_length_b   3.90410600
_cell_length_c   14.95364829
_cell_angle_alpha   90.00000000
_cell_angle_beta   126.33350609
_cell_angle_gamma   90.00000000
_symmetry_Int_Tables_number   1
_chemical_formula_structural   Pr2Mn3(SbS3)4
_chemical_formula_sum   'Pr4 Mn6 Sb8 S24'
_cell_volume   942.00006694
_cell_formula_units_Z   2
loop_
 _symmetry_equiv_pos_site_id
 _symmetry_equiv_pos_as_xyz
  1  'x, y, z'
loop_
 _atom_site_type_symbol
 _atom_site_label
 _atom_site_symmetry_multiplicity
 _atom_site_fract_x
 _atom_site_fract_y
 _atom_site_fract_z
 _atom_site_occupancy
  Pr  Pr0  1  0.26811093  0.44525241  0.87215733  1
  Pr  Pr1  1  0.74350922  0.51402445  0.14992737  1
  Pr  Pr2  1  0.77292123  0.97176030  0.87757600  1
  Pr  Pr3  1  0.23695604  0.02401737  0.13806020  1
  Mn  Mn4  1  0.27557503  0.56087548  0.58029215  1
  Mn  Mn5  1  0.71702319  0.51407012  0.39159230  1
  Mn  Mn6  1  0.00259848  0.94875434  0.00819811  1
  Mn  Mn7  1  0.79296045  0.93330723  0.61523658  1
  Mn  Mn8  1  0.18312697  0.97328301  0.41080956  1
  Mn  Mn9  1  0.53640220  0.48017437  0.03718312  1
  Sb  Sb10  1  0.90789451  0.02280987  0.47083518  1
  Sb  Sb11  1  0.11365924  0.92771615  0.55467105  1
  Sb  Sb12  1  0.02163135  0.50227080  0.80382506  1
  Sb  Sb13  1  0.97312396  0.51909512  0.19799942  1
  Sb  Sb14  1  0.38335625  0.53298902  0.44567449  1
  Sb  Sb15  1  0.61062253  0.47207468  0.53977136  1
  Sb  Sb16  1  0.53809828  0.95079514  0.82135898  1
  Sb  Sb17  1  0.45611291  0.06160318  0.17731078  1
  S  S18  1  0.93685734  0.00025607  0.81551266  1
  S  S19  1  0.06879190  0.96355524  0.19942101  1
  S  S20  1  0.42912578  0.03620109  0.98725706  1
  S  S21  1  0.60856252  0.96964415  0.04016553  1
  S  S22  1  0.17666865  0.03732207  0.91201520  1
  S  S23  1  0.83576189  0.03082439  0.12225243  1
  S  S24  1  0.10423192  0.49663236  0.66559346  1
  S  S25  1  0.91743922  0.52290348  0.36803115  1
  S  S26  1  0.75592003  0.94654375  0.32117060  1
  S  S27  1  0.26002156  0.99413300  0.68479475  1
  S  S28  1  0.13647273  0.47075996  0.42925466  1
  S  S29  1  0.84036090  0.43095666  0.56889193  1
  S  S30  1  0.46728071  0.49852698  0.84518459  1
  S  S31  1  0.58232887  0.52488392  0.22135347  1
  S  S32  1  0.92176515  0.44466498  0.99742456  1
  S  S33  1  0.07836999  0.50379029  0.00398780  1
  S  S34  1  0.68437447  0.52782440  0.91434473  1
  S  S35  1  0.33478548  0.51508196  0.09607786  1
  S  S36  1  0.58488165  0.96697726  0.63711063  1
  S  S37  1  0.40637742  0.01150037  0.34636338  1
  S  S38  1  0.24275558  0.51578447  0.28506484  1
  S  S39  1  0.76564750  0.44787224  0.68051271  1
  S  S40  1  0.67051047  0.07830476  0.43196552  1
  S  S41  1  0.32241172  0.99669542  0.54379068  1
