# generated using pymatgen
data_Pr2Mn3(SbS3)4
_symmetry_space_group_name_H-M   'P 1'
_cell_length_a   20.02960800
_cell_length_b   3.90410600
_cell_length_c   14.95364829
_cell_angle_alpha   90.00000000
_cell_angle_beta   126.33350609
_cell_angle_gamma   90.00000000
_symmetry_Int_Tables_number   1
_chemical_formula_structural   Pr2Mn3(SbS3)4
_chemical_formula_sum   'Pr4 Mn6 Sb8 S24'
_cell_volume   942.00006694
_cell_formula_units_Z   2
loop_
 _symmetry_equiv_pos_site_id
 _symmetry_equiv_pos_as_xyz
  1  'x, y, z'
loop_
 _atom_site_type_symbol
 _atom_site_label
 _atom_site_symmetry_multiplicity
 _atom_site_fract_x
 _atom_site_fract_y
 _atom_site_fract_z
 _atom_site_occupancy
  Pr  Pr0  1  0.26802664  0.44546728  0.87184249  1
  Pr  Pr1  1  0.74347204  0.51411539  0.15009107  1
  Pr  Pr2  1  0.77300919  0.97179809  0.87788462  1
  Pr  Pr3  1  0.23700441  0.02395152  0.13809321  1
  Mn  Mn4  1  0.27540186  0.56115544  0.58045110  1
  Mn  Mn5  1  0.71700541  0.51335759  0.39151666  1
  Mn  Mn6  1  0.00266183  0.94965100  0.00814423  1
  Mn  Mn7  1  0.79301680  0.93132217  0.61535487  1
  Mn  Mn8  1  0.18337730  0.97230182  0.41153012  1
  Mn  Mn9  1  0.53631962  0.48028206  0.03705689  1
  Sb  Sb10  1  0.90802436  0.02327304  0.47099700  1
  Sb  Sb11  1  0.11344701  0.92739093  0.55460660  1
  Sb  Sb12  1  0.02146142  0.50181595  0.80359543  1
  Sb  Sb13  1  0.97305796  0.51937682  0.19787248  1
  Sb  Sb14  1  0.38337010  0.53253656  0.44579869  1
  Sb  Sb15  1  0.61066827  0.47324056  0.53984147  1
  Sb  Sb16  1  0.53816897  0.95141785  0.82128226  1
  Sb  Sb17  1  0.45622168  0.06196654  0.17728696  1
  S  S18  1  0.93692026  0.99993018  0.81512531  1
  S  S19  1  0.06855266  0.96294904  0.19942043  1
  S  S20  1  0.42920852  0.03522946  0.98759421  1
  S  S21  1  0.60833105  0.96970223  0.03995795  1
  S  S22  1  0.17669774  0.03812057  0.91228629  1
  S  S23  1  0.83549004  0.03075384  0.12219356  1
  S  S24  1  0.10428799  0.49688126  0.66613537  1
  S  S25  1  0.91738553  0.52360042  0.36794870  1
  S  S26  1  0.75588994  0.94654653  0.32116122  1
  S  S27  1  0.26016828  0.99452150  0.68480460  1
  S  S28  1  0.13648195  0.47056504  0.42960290  1
  S  S29  1  0.84020051  0.43159958  0.56866039  1
  S  S30  1  0.46741925  0.49705966  0.84557882  1
  S  S31  1  0.58232482  0.52784150  0.22086137  1
  S  S32  1  0.92156524  0.44431219  0.99706642  1
  S  S33  1  0.07855171  0.50318283  0.00408050  1
  S  S34  1  0.68466578  0.52569855  0.91452534  1
  S  S35  1  0.33529868  0.51440554  0.09611007  1
  S  S36  1  0.58479268  0.96885629  0.63694924  1
  S  S37  1  0.40611795  0.00957027  0.34600906  1
  S  S38  1  0.24273011  0.51655072  0.28490239  1
  S  S39  1  0.76531713  0.44982896  0.68026462  1
  S  S40  1  0.67083111  0.07894017  0.43194325  1
  S  S41  1  0.32264878  0.99786143  0.54412791  1
