# generated using pymatgen
data_Pr2Mn3(SbS3)4
_symmetry_space_group_name_H-M   'P 1'
_cell_length_a   20.02960800
_cell_length_b   3.90410600
_cell_length_c   14.95364829
_cell_angle_alpha   90.00000000
_cell_angle_beta   126.33350609
_cell_angle_gamma   90.00000000
_symmetry_Int_Tables_number   1
_chemical_formula_structural   Pr2Mn3(SbS3)4
_chemical_formula_sum   'Pr4 Mn6 Sb8 S24'
_cell_volume   942.00006694
_cell_formula_units_Z   2
loop_
 _symmetry_equiv_pos_site_id
 _symmetry_equiv_pos_as_xyz
  1  'x, y, z'
loop_
 _atom_site_type_symbol
 _atom_site_label
 _atom_site_symmetry_multiplicity
 _atom_site_fract_x
 _atom_site_fract_y
 _atom_site_fract_z
 _atom_site_occupancy
  Pr  Pr0  1  0.26798640  0.44590088  0.87156850  1
  Pr  Pr1  1  0.74345900  0.51414215  0.15034030  1
  Pr  Pr2  1  0.77305531  0.97211688  0.87811335  1
  Pr  Pr3  1  0.23700852  0.02381652  0.13806020  1
  Mn  Mn4  1  0.27533653  0.56111410  0.58067476  1
  Mn  Mn5  1  0.71708071  0.51269538  0.39151451  1
  Mn  Mn6  1  0.00264731  0.95076848  0.00801311  1
  Mn  Mn7  1  0.79310582  0.92973097  0.61562265  1
  Mn  Mn8  1  0.18358526  0.97141970  0.41212698  1
  Mn  Mn9  1  0.53628172  0.48077615  0.03696028  1
  Sb  Sb10  1  0.90815962  0.02377528  0.47112225  1
  Sb  Sb11  1  0.11325675  0.92699658  0.55449057  1
  Sb  Sb12  1  0.02124671  0.50135874  0.80332668  1
  Sb  Sb13  1  0.97299902  0.51966493  0.19776979  1
  Sb  Sb14  1  0.38334390  0.53172463  0.44580262  1
  Sb  Sb15  1  0.61070989  0.47430614  0.53990127  1
  Sb  Sb16  1  0.53832352  0.95213201  0.82120651  1
  Sb  Sb17  1  0.45626242  0.06212182  0.17724121  1
  S  S18  1  0.93704008  0.99976023  0.81480712  1
  S  S19  1  0.06845520  0.96295182  0.19955039  1
  S  S20  1  0.42920807  0.03410529  0.98794326  1
  S  S21  1  0.60817458  0.96988370  0.03991525  1
  S  S22  1  0.17680819  0.03880399  0.91268585  1
  S  S23  1  0.83533355  0.03027455  0.12222642  1
  S  S24  1  0.10431532  0.49679248  0.66661120  1
  S  S25  1  0.91727952  0.52361957  0.36795678  1
  S  S26  1  0.75584730  0.94643212  0.32125196  1
  S  S27  1  0.26028262  0.99530142  0.68463619  1
  S  S28  1  0.13660642  0.47026474  0.43023292  1
  S  S29  1  0.84005173  0.43267570  0.56841022  1
  S  S30  1  0.46765222  0.49565899  0.84603424  1
  S  S31  1  0.58229439  0.53030269  0.22033993  1
  S  S32  1  0.92149536  0.44403550  0.99676482  1
  S  S33  1  0.07873796  0.50238801  0.00434807  1
  S  S34  1  0.68499082  0.52416859  0.91465117  1
  S  S35  1  0.33561193  0.51423994  0.09601314  1
  S  S36  1  0.58472754  0.97074116  0.63674425  1
  S  S37  1  0.40586374  0.00772955  0.34553341  1
  S  S38  1  0.24269062  0.51636810  0.28474445  1
  S  S39  1  0.76512492  0.45124075  0.68003722  1
  S  S40  1  0.67124099  0.07939530  0.43206839  1
  S  S41  1  0.32276391  0.99843870  0.54440849  1
