# generated using pymatgen
data_Pr2Mn3(SbS3)4
_symmetry_space_group_name_H-M   'P 1'
_cell_length_a   20.02960800
_cell_length_b   3.90410600
_cell_length_c   14.95364829
_cell_angle_alpha   90.00000000
_cell_angle_beta   126.33350609
_cell_angle_gamma   90.00000000
_symmetry_Int_Tables_number   1
_chemical_formula_structural   Pr2Mn3(SbS3)4
_chemical_formula_sum   'Pr4 Mn6 Sb8 S24'
_cell_volume   942.00006694
_cell_formula_units_Z   2
loop_
 _symmetry_equiv_pos_site_id
 _symmetry_equiv_pos_as_xyz
  1  'x, y, z'
loop_
 _atom_site_type_symbol
 _atom_site_label
 _atom_site_symmetry_multiplicity
 _atom_site_fract_x
 _atom_site_fract_y
 _atom_site_fract_z
 _atom_site_occupancy
  Pr  Pr0  1  0.26929403  0.50749019  0.87535401  1
  Pr  Pr1  1  0.73294560  0.52177182  0.13267888  1
  Pr  Pr2  1  0.76428124  0.03042834  0.87149437  1
  Pr  Pr3  1  0.22851008  0.95697600  0.12574377  1
  Mn  Mn4  1  0.29605220  0.45032748  0.60858309  1
  Mn  Mn5  1  0.68624674  0.45505877  0.36331832  1
  Mn  Mn6  1  0.99879232  0.97745555  0.00583317  1
  Mn  Mn7  1  0.78989701  0.01259225  0.61420668  1
  Mn  Mn8  1  0.20100045  0.03031514  0.37310282  1
  Mn  Mn9  1  0.48076815  0.47389949  0.97732612  1
  Sb  Sb10  1  0.89284547  0.96944975  0.45020170  1
  Sb  Sb11  1  0.11398475  0.97635343  0.54885236  1
  Sb  Sb12  1  0.03965834  0.51480952  0.82917124  1
  Sb  Sb13  1  0.96794924  0.48309397  0.19296044  1
  Sb  Sb14  1  0.39886446  0.49359195  0.45342807  1
  Sb  Sb15  1  0.61330468  0.48558816  0.54810652  1
  Sb  Sb16  1  0.53010317  0.97044864  0.80655992  1
  Sb  Sb17  1  0.46566936  0.03145914  0.18400655  1
  S  S18  1  0.93454622  0.98435829  0.79921930  1
  S  S19  1  0.06680524  0.98130633  0.20151358  1
  S  S20  1  0.42009799  0.97988681  0.97907332  1
  S  S21  1  0.58329950  0.01485642  0.00558054  1
  S  S22  1  0.16182092  0.02526442  0.89613827  1
  S  S23  1  0.83065125  0.98012118  0.10699765  1
  S  S24  1  0.09143400  0.49339125  0.63837483  1
  S  S25  1  0.91543208  0.50504223  0.35774919  1
  S  S26  1  0.73442065  0.99276345  0.29818177  1
  S  S27  1  0.26391362  0.02006010  0.70249880  1
  S  S28  1  0.17198584  0.51867402  0.44366496  1
  S  S29  1  0.80776191  0.53891724  0.53875598  1
  S  S30  1  0.43108183  0.47776717  0.79261137  1
  S  S31  1  0.55454205  0.48866588  0.17454793  1
  S  S32  1  0.91739801  0.52617853  0.98614212  1
  S  S33  1  0.08391814  0.48739249  0.02357599  1
  S  S34  1  0.66651844  0.55575422  0.88712718  1
  S  S35  1  0.32981603  0.45736454  0.10113109  1
  S  S36  1  0.58946112  0.97988284  0.64208659  1
  S  S37  1  0.39409023  0.99798589  0.33298333  1
  S  S38  1  0.24297446  0.47858526  0.31324141  1
  S  S39  1  0.76221151  0.48050813  0.69352455  1
  S  S40  1  0.65853554  0.99615119  0.43546153  1
  S  S41  1  0.32957395  0.96738143  0.55565370  1
