# generated using pymatgen
data_Pr2Mn3(SbS3)4
_symmetry_space_group_name_H-M   'P 1'
_cell_length_a   20.02960800
_cell_length_b   3.90410600
_cell_length_c   14.95364829
_cell_angle_alpha   90.00000000
_cell_angle_beta   126.33350609
_cell_angle_gamma   90.00000000
_symmetry_Int_Tables_number   1
_chemical_formula_structural   Pr2Mn3(SbS3)4
_chemical_formula_sum   'Pr4 Mn6 Sb8 S24'
_cell_volume   942.00006694
_cell_formula_units_Z   2
loop_
 _symmetry_equiv_pos_site_id
 _symmetry_equiv_pos_as_xyz
  1  'x, y, z'
loop_
 _atom_site_type_symbol
 _atom_site_label
 _atom_site_symmetry_multiplicity
 _atom_site_fract_x
 _atom_site_fract_y
 _atom_site_fract_z
 _atom_site_occupancy
  Pr  Pr0  1  0.26797316  0.44634999  0.87126859  1
  Pr  Pr1  1  0.74342931  0.51421459  0.15058291  1
  Pr  Pr2  1  0.77311392  0.97233768  0.87828085  1
  Pr  Pr3  1  0.23699023  0.02384542  0.13812413  1
  Mn  Mn4  1  0.27521831  0.56119571  0.58078462  1
  Mn  Mn5  1  0.71713359  0.51147619  0.39150245  1
  Mn  Mn6  1  0.00263726  0.95234630  0.00780051  1
  Mn  Mn7  1  0.79314986  0.92810325  0.61581508  1
  Mn  Mn8  1  0.18385901  0.97064669  0.41266809  1
  Mn  Mn9  1  0.53626024  0.48093479  0.03684626  1
  Sb  Sb10  1  0.90823220  0.02416153  0.47113550  1
  Sb  Sb11  1  0.11306264  0.92704622  0.55441231  1
  Sb  Sb12  1  0.02101970  0.50116094  0.80314793  1
  Sb  Sb13  1  0.97301850  0.51998638  0.19774454  1
  Sb  Sb14  1  0.38340867  0.53107458  0.44587148  1
  Sb  Sb15  1  0.61077923  0.47539606  0.54003848  1
  Sb  Sb16  1  0.53838912  0.95281650  0.82109799  1
  Sb  Sb17  1  0.45626544  0.06206552  0.17717364  1
  S  S18  1  0.93703362  0.99986562  0.81442328  1
  S  S19  1  0.06823505  0.96306882  0.19962834  1
  S  S20  1  0.42919314  0.03313939  0.98829087  1
  S  S21  1  0.60810860  0.97001602  0.03982872  1
  S  S22  1  0.17657782  0.03951972  0.91268508  1
  S  S23  1  0.83511815  0.02977535  0.12217664  1
  S  S24  1  0.10443221  0.49756485  0.66692054  1
  S  S25  1  0.91719014  0.52385669  0.36795627  1
  S  S26  1  0.75583208  0.94610215  0.32144980  1
  S  S27  1  0.26016540  0.99661025  0.68443595  1
  S  S28  1  0.13671465  0.47030081  0.43079196  1
  S  S29  1  0.83997038  0.43357027  0.56836897  1
  S  S30  1  0.46771264  0.49405572  0.84632817  1
  S  S31  1  0.58231892  0.53246989  0.21993515  1
  S  S32  1  0.92149930  0.44377877  0.99663626  1
  S  S33  1  0.07867224  0.50184559  0.00457936  1
  S  S34  1  0.68530716  0.52272500  0.91479321  1
  S  S35  1  0.33576414  0.51396550  0.09592127  1
  S  S36  1  0.58464380  0.97268114  0.63648246  1
  S  S37  1  0.40571772  0.00634355  0.34512212  1
  S  S38  1  0.24264903  0.51642074  0.28465271  1
  S  S39  1  0.76496730  0.45317803  0.67998970  1
  S  S40  1  0.67162787  0.07974396  0.43230242  1
  S  S41  1  0.32287295  0.99868594  0.54463294  1
