# generated using pymatgen
data_Pr2Mn3(SbS3)4
_symmetry_space_group_name_H-M   'P 1'
_cell_length_a   20.02960800
_cell_length_b   3.90410600
_cell_length_c   14.95364829
_cell_angle_alpha   90.00000000
_cell_angle_beta   126.33350609
_cell_angle_gamma   90.00000000
_symmetry_Int_Tables_number   1
_chemical_formula_structural   Pr2Mn3(SbS3)4
_chemical_formula_sum   'Pr4 Mn6 Sb8 S24'
_cell_volume   942.00006694
_cell_formula_units_Z   2
loop_
 _symmetry_equiv_pos_site_id
 _symmetry_equiv_pos_as_xyz
  1  'x, y, z'
loop_
 _atom_site_type_symbol
 _atom_site_label
 _atom_site_symmetry_multiplicity
 _atom_site_fract_x
 _atom_site_fract_y
 _atom_site_fract_z
 _atom_site_occupancy
  Pr  Pr0  1  0.26793991  0.44661878  0.87087989  1
  Pr  Pr1  1  0.74336740  0.51431887  0.15077683  1
  Pr  Pr2  1  0.77314060  0.97266010  0.87842798  1
  Pr  Pr3  1  0.23697926  0.02375524  0.13824286  1
  Mn  Mn4  1  0.27511361  0.56171290  0.58098967  1
  Mn  Mn5  1  0.71714144  0.50989019  0.39148654  1
  Mn  Mn6  1  0.00270783  0.95415091  0.00762391  1
  Mn  Mn7  1  0.79320814  0.92723260  0.61600027  1
  Mn  Mn8  1  0.18414767  0.97011239  0.41325674  1
  Mn  Mn9  1  0.53631901  0.48123062  0.03679107  1
  Sb  Sb10  1  0.90822477  0.02440715  0.47111913  1
  Sb  Sb11  1  0.11299796  0.92695892  0.55446889  1
  Sb  Sb12  1  0.02081767  0.50099353  0.80305221  1
  Sb  Sb13  1  0.97303640  0.52006912  0.19778223  1
  Sb  Sb14  1  0.38343379  0.53044477  0.44600525  1
  Sb  Sb15  1  0.61087517  0.47635461  0.54017464  1
  Sb  Sb16  1  0.53844503  0.95352560  0.82094725  1
  Sb  Sb17  1  0.45624995  0.06186330  0.17694374  1
  S  S18  1  0.93702516  0.99944490  0.81414762  1
  S  S19  1  0.06810824  0.96289235  0.19974881  1
  S  S20  1  0.42915997  0.03252267  0.98869042  1
  S  S21  1  0.60799283  0.96956780  0.03970016  1
  S  S22  1  0.17635547  0.04016904  0.91242035  1
  S  S23  1  0.83521033  0.02954741  0.12231715  1
  S  S24  1  0.10462930  0.49895396  0.66727558  1
  S  S25  1  0.91711516  0.52422859  0.36790010  1
  S  S26  1  0.75582889  0.94573899  0.32159557  1
  S  S27  1  0.25983823  0.99786091  0.68416811  1
  S  S28  1  0.13683867  0.46991135  0.43141246  1
  S  S29  1  0.83992690  0.43449768  0.56849837  1
  S  S30  1  0.46766768  0.49219523  0.84666680  1
  S  S31  1  0.58232281  0.53432831  0.21963243  1
  S  S32  1  0.92154944  0.44366827  0.99666439  1
  S  S33  1  0.07864959  0.50095290  0.00457759  1
  S  S34  1  0.68562419  0.52128762  0.91493215  1
  S  S35  1  0.33580872  0.51322889  0.09575020  1
  S  S36  1  0.58444997  0.97480026  0.63624741  1
  S  S37  1  0.40560859  0.00522370  0.34479015  1
  S  S38  1  0.24252723  0.51700676  0.28444091  1
  S  S39  1  0.76479312  0.45481866  0.67984574  1
  S  S40  1  0.67197458  0.08069160  0.43264899  1
  S  S41  1  0.32307646  0.99906624  0.54497050  1
