# generated using pymatgen
data_Pr2Mn3(SbS3)4
_symmetry_space_group_name_H-M   'P 1'
_cell_length_a   20.02960800
_cell_length_b   3.90410600
_cell_length_c   14.95364829
_cell_angle_alpha   90.00000000
_cell_angle_beta   126.33350609
_cell_angle_gamma   90.00000000
_symmetry_Int_Tables_number   1
_chemical_formula_structural   Pr2Mn3(SbS3)4
_chemical_formula_sum   'Pr4 Mn6 Sb8 S24'
_cell_volume   942.00006694
_cell_formula_units_Z   2
loop_
 _symmetry_equiv_pos_site_id
 _symmetry_equiv_pos_as_xyz
  1  'x, y, z'
loop_
 _atom_site_type_symbol
 _atom_site_label
 _atom_site_symmetry_multiplicity
 _atom_site_fract_x
 _atom_site_fract_y
 _atom_site_fract_z
 _atom_site_occupancy
  Pr  Pr0  1  0.26783926  0.44676769  0.87046345  1
  Pr  Pr1  1  0.74327737  0.51454288  0.15094380  1
  Pr  Pr2  1  0.77313575  0.97263381  0.87855324  1
  Pr  Pr3  1  0.23693588  0.02383460  0.13839859  1
  Mn  Mn4  1  0.27498596  0.56209424  0.58107572  1
  Mn  Mn5  1  0.71711355  0.50805874  0.39145554  1
  Mn  Mn6  1  0.00288042  0.95608093  0.00756845  1
  Mn  Mn7  1  0.79326687  0.92714811  0.61595006  1
  Mn  Mn8  1  0.18426046  0.96936320  0.41369827  1
  Mn  Mn9  1  0.53645902  0.48081859  0.03672710  1
  Sb  Sb10  1  0.90818754  0.02473295  0.47107057  1
  Sb  Sb11  1  0.11289991  0.92689862  0.55449567  1
  Sb  Sb12  1  0.02065684  0.50075781  0.80302691  1
  Sb  Sb13  1  0.97304792  0.52025637  0.19788405  1
  Sb  Sb14  1  0.38344819  0.52993456  0.44605016  1
  Sb  Sb15  1  0.61095817  0.47712819  0.54021129  1
  Sb  Sb16  1  0.53852765  0.95421308  0.82083141  1
  Sb  Sb17  1  0.45618738  0.06187393  0.17665435  1
  S  S18  1  0.93701424  0.99895743  0.81355364  1
  S  S19  1  0.06798662  0.96259313  0.19983382  1
  S  S20  1  0.42925993  0.03178492  0.98912810  1
  S  S21  1  0.60793946  0.96883045  0.03966924  1
  S  S22  1  0.17620051  0.03982881  0.91226423  1
  S  S23  1  0.83514618  0.02894575  0.12226667  1
  S  S24  1  0.10477685  0.50001468  0.66754673  1
  S  S25  1  0.91689942  0.52525496  0.36777057  1
  S  S26  1  0.75575253  0.94558387  0.32164785  1
  S  S27  1  0.25954750  0.99886498  0.68371688  1
  S  S28  1  0.13694880  0.46926686  0.43191446  1
  S  S29  1  0.83976412  0.43531450  0.56833367  1
  S  S30  1  0.46763762  0.49015370  0.84706882  1
  S  S31  1  0.58229444  0.53573955  0.21919516  1
  S  S32  1  0.92158421  0.44310014  0.99654317  1
  S  S33  1  0.07864158  0.49986941  0.00458690  1
  S  S34  1  0.68607696  0.52023037  0.91514185  1
  S  S35  1  0.33566850  0.51279355  0.09522430  1
  S  S36  1  0.58417877  0.97756068  0.63605675  1
  S  S37  1  0.40535175  0.00481436  0.34434209  1
  S  S38  1  0.24220745  0.51758654  0.28410265  1
  S  S39  1  0.76454045  0.45652894  0.67943947  1
  S  S40  1  0.67218877  0.08102205  0.43276299  1
  S  S41  1  0.32317827  0.99971698  0.54524460  1
