# generated using pymatgen
data_Pr2Mn3(SbS3)4
_symmetry_space_group_name_H-M   'P 1'
_cell_length_a   20.02960800
_cell_length_b   3.90410600
_cell_length_c   14.95364829
_cell_angle_alpha   90.00000000
_cell_angle_beta   126.33350609
_cell_angle_gamma   90.00000000
_symmetry_Int_Tables_number   1
_chemical_formula_structural   Pr2Mn3(SbS3)4
_chemical_formula_sum   'Pr4 Mn6 Sb8 S24'
_cell_volume   942.00006694
_cell_formula_units_Z   2
loop_
 _symmetry_equiv_pos_site_id
 _symmetry_equiv_pos_as_xyz
  1  'x, y, z'
loop_
 _atom_site_type_symbol
 _atom_site_label
 _atom_site_symmetry_multiplicity
 _atom_site_fract_x
 _atom_site_fract_y
 _atom_site_fract_z
 _atom_site_occupancy
  Pr  Pr0  1  0.26768879  0.44699945  0.86994198  1
  Pr  Pr1  1  0.74314692  0.51496134  0.15101489  1
  Pr  Pr2  1  0.77317310  0.97256115  0.87866233  1
  Pr  Pr3  1  0.23689464  0.02384238  0.13855059  1
  Mn  Mn4  1  0.27484218  0.56250702  0.58123075  1
  Mn  Mn5  1  0.71712513  0.50658663  0.39145013  1
  Mn  Mn6  1  0.00307787  0.95806289  0.00769643  1
  Mn  Mn7  1  0.79326431  0.92718081  0.61590041  1
  Mn  Mn8  1  0.18432143  0.96836439  0.41403390  1
  Mn  Mn9  1  0.53667172  0.48023819  0.03679706  1
  Sb  Sb10  1  0.90821262  0.02503352  0.47098115  1
  Sb  Sb11  1  0.11284497  0.92716547  0.55461425  1
  Sb  Sb12  1  0.02049588  0.50036859  0.80298634  1
  Sb  Sb13  1  0.97310270  0.52027193  0.19803635  1
  Sb  Sb14  1  0.38347208  0.52923792  0.44614451  1
  Sb  Sb15  1  0.61105372  0.47779541  0.54029449  1
  Sb  Sb16  1  0.53861125  0.95470782  0.82074545  1
  Sb  Sb17  1  0.45608119  0.06160101  0.17635453  1
  S  S18  1  0.93697834  0.99846783  0.81289522  1
  S  S19  1  0.06771194  0.96284098  0.19966210  1
  S  S20  1  0.42928163  0.03132953  0.98944159  1
  S  S21  1  0.60784867  0.96867411  0.03958587  1
  S  S22  1  0.17624330  0.03958669  0.91230657  1
  S  S23  1  0.83494263  0.02844361  0.12185245  1
  S  S24  1  0.10484175  0.50046310  0.66766446  1
  S  S25  1  0.91690815  0.52605624  0.36760317  1
  S  S26  1  0.75561911  0.94483868  0.32175852  1
  S  S27  1  0.25934792  0.99939528  0.68341902  1
  S  S28  1  0.13705265  0.46858572  0.43243129  1
  S  S29  1  0.83962496  0.43629375  0.56818862  1
  S  S30  1  0.46771343  0.48876601  0.84750791  1
  S  S31  1  0.58235540  0.53711630  0.21898438  1
  S  S32  1  0.92163449  0.44264187  0.99632461  1
  S  S33  1  0.07866932  0.49900240  0.00473822  1
  S  S34  1  0.68651370  0.51902760  0.91540595  1
  S  S35  1  0.33555798  0.51272872  0.09455962  1
  S  S36  1  0.58387679  0.98019034  0.63610966  1
  S  S37  1  0.40493519  0.00394871  0.34372754  1
  S  S38  1  0.24198038  0.51879437  0.28391803  1
  S  S39  1  0.76435372  0.45832761  0.67910634  1
  S  S40  1  0.67232382  0.08101626  0.43281009  1
  S  S41  1  0.32332176  0.99982817  0.54553917  1
