# generated using pymatgen
data_Pr2Mn3(SbS3)4
_symmetry_space_group_name_H-M   'P 1'
_cell_length_a   20.02960800
_cell_length_b   3.90410600
_cell_length_c   14.95364829
_cell_angle_alpha   90.00000000
_cell_angle_beta   126.33350609
_cell_angle_gamma   90.00000000
_symmetry_Int_Tables_number   1
_chemical_formula_structural   Pr2Mn3(SbS3)4
_chemical_formula_sum   'Pr4 Mn6 Sb8 S24'
_cell_volume   942.00006694
_cell_formula_units_Z   2
loop_
 _symmetry_equiv_pos_site_id
 _symmetry_equiv_pos_as_xyz
  1  'x, y, z'
loop_
 _atom_site_type_symbol
 _atom_site_label
 _atom_site_symmetry_multiplicity
 _atom_site_fract_x
 _atom_site_fract_y
 _atom_site_fract_z
 _atom_site_occupancy
  Pr  Pr0  1  0.26754865  0.44737969  0.86939455  1
  Pr  Pr1  1  0.74306466  0.51525187  0.15109359  1
  Pr  Pr2  1  0.77324683  0.97257021  0.87874884  1
  Pr  Pr3  1  0.23683424  0.02364581  0.13871081  1
  Mn  Mn4  1  0.27469487  0.56303537  0.58133643  1
  Mn  Mn5  1  0.71707110  0.50547847  0.39133990  1
  Mn  Mn6  1  0.00329726  0.95984841  0.00777380  1
  Mn  Mn7  1  0.79321263  0.92735234  0.61576502  1
  Mn  Mn8  1  0.18435575  0.96761473  0.41431395  1
  Mn  Mn9  1  0.53680025  0.47977952  0.03691816  1
  Sb  Sb10  1  0.90820712  0.02557365  0.47095309  1
  Sb  Sb11  1  0.11278099  0.92738758  0.55477557  1
  Sb  Sb12  1  0.02048232  0.49982720  0.80307468  1
  Sb  Sb13  1  0.97313005  0.52024198  0.19814983  1
  Sb  Sb14  1  0.38351962  0.52852517  0.44635101  1
  Sb  Sb15  1  0.61107776  0.47818883  0.54028511  1
  Sb  Sb16  1  0.53863042  0.95514701  0.82061179  1
  Sb  Sb17  1  0.45607091  0.06126238  0.17623973  1
  S  S18  1  0.93706100  0.99800686  0.81237991  1
  S  S19  1  0.06759866  0.96322404  0.19974458  1
  S  S20  1  0.42938578  0.03060001  0.98979120  1
  S  S21  1  0.60788387  0.96880303  0.03968958  1
  S  S22  1  0.17630926  0.03955890  0.91218145  1
  S  S23  1  0.83471158  0.02791412  0.12129789  1
  S  S24  1  0.10495590  0.50087562  0.66785209  1
  S  S25  1  0.91692816  0.52627273  0.36734280  1
  S  S26  1  0.75565249  0.94449323  0.32213074  1
  S  S27  1  0.25918387  0.99900737  0.68327652  1
  S  S28  1  0.13702629  0.46760432  0.43272313  1
  S  S29  1  0.83949226  0.43684267  0.56795800  1
  S  S30  1  0.46769812  0.48765859  0.84786262  1
  S  S31  1  0.58252328  0.53904608  0.21903490  1
  S  S32  1  0.92162887  0.44258312  0.99597732  1
  S  S33  1  0.07868159  0.49856281  0.00478127  1
  S  S34  1  0.68688577  0.51749226  0.91558102  1
  S  S35  1  0.33561196  0.51196604  0.09396231  1
  S  S36  1  0.58352878  0.98285898  0.63596715  1
  S  S37  1  0.40464142  0.00281064  0.34320607  1
  S  S38  1  0.24193007  0.51981697  0.28399978  1
  S  S39  1  0.76408562  0.45954653  0.67861379  1
  S  S40  1  0.67224887  0.08099495  0.43257177  1
  S  S41  1  0.32346404  0.99970329  0.54604464  1
