# generated using pymatgen
data_Pr2Mn3(SbS3)4
_symmetry_space_group_name_H-M   'P 1'
_cell_length_a   20.02960800
_cell_length_b   3.90410600
_cell_length_c   14.95364829
_cell_angle_alpha   90.00000000
_cell_angle_beta   126.33350609
_cell_angle_gamma   90.00000000
_symmetry_Int_Tables_number   1
_chemical_formula_structural   Pr2Mn3(SbS3)4
_chemical_formula_sum   'Pr4 Mn6 Sb8 S24'
_cell_volume   942.00006694
_cell_formula_units_Z   2
loop_
 _symmetry_equiv_pos_site_id
 _symmetry_equiv_pos_as_xyz
  1  'x, y, z'
loop_
 _atom_site_type_symbol
 _atom_site_label
 _atom_site_symmetry_multiplicity
 _atom_site_fract_x
 _atom_site_fract_y
 _atom_site_fract_z
 _atom_site_occupancy
  Pr  Pr0  1  0.26741190  0.44772354  0.86890734  1
  Pr  Pr1  1  0.74296127  0.51523290  0.15118104  1
  Pr  Pr2  1  0.77332064  0.97257945  0.87885115  1
  Pr  Pr3  1  0.23685124  0.02314176  0.13885573  1
  Mn  Mn4  1  0.27452437  0.56365311  0.58136051  1
  Mn  Mn5  1  0.71698783  0.50470365  0.39120663  1
  Mn  Mn6  1  0.00355835  0.96129706  0.00782532  1
  Mn  Mn7  1  0.79314082  0.92740401  0.61561320  1
  Mn  Mn8  1  0.18436040  0.96629329  0.41442412  1
  Mn  Mn9  1  0.53676875  0.47935770  0.03692962  1
  Sb  Sb10  1  0.90815256  0.02663010  0.47079670  1
  Sb  Sb11  1  0.11276313  0.92742563  0.55493355  1
  Sb  Sb12  1  0.02043172  0.49926482  0.80305734  1
  Sb  Sb13  1  0.97321497  0.52024410  0.19823179  1
  Sb  Sb14  1  0.38353728  0.52799540  0.44650873  1
  Sb  Sb15  1  0.61108381  0.47879218  0.54026812  1
  Sb  Sb16  1  0.53869528  0.95567864  0.82040614  1
  Sb  Sb17  1  0.45598044  0.06105907  0.17603249  1
  S  S18  1  0.93731647  0.99706028  0.81216168  1
  S  S19  1  0.06732088  0.96337386  0.19965871  1
  S  S20  1  0.42956701  0.02992316  0.99033523  1
  S  S21  1  0.60782553  0.96880994  0.03971977  1
  S  S22  1  0.17633712  0.03957675  0.91201040  1
  S  S23  1  0.83432205  0.02728058  0.12085372  1
  S  S24  1  0.10496605  0.50193434  0.66800775  1
  S  S25  1  0.91692231  0.52557240  0.36721369  1
  S  S26  1  0.75573952  0.94462034  0.32238921  1
  S  S27  1  0.25884539  0.99843591  0.68304592  1
  S  S28  1  0.13716246  0.46668791  0.43315362  1
  S  S29  1  0.83937035  0.43671494  0.56775430  1
  S  S30  1  0.46768204  0.48685636  0.84817338  1
  S  S31  1  0.58264464  0.54092085  0.21911105  1
  S  S32  1  0.92172173  0.44237644  0.99587526  1
  S  S33  1  0.07867636  0.49782142  0.00478910  1
  S  S34  1  0.68719261  0.51612708  0.91570366  1
  S  S35  1  0.33580579  0.51169301  0.09351553  1
  S  S36  1  0.58316237  0.98518695  0.63572298  1
  S  S37  1  0.40429786  0.00181877  0.34262687  1
  S  S38  1  0.24204152  0.52152047  0.28403637  1
  S  S39  1  0.76381972  0.46166191  0.67803886  1
  S  S40  1  0.67206970  0.08079232  0.43238628  1
  S  S41  1  0.32364046  0.99921520  0.54666406  1
