# generated using pymatgen
data_Pr2Mn3(SbS3)4
_symmetry_space_group_name_H-M   'P 1'
_cell_length_a   20.02960800
_cell_length_b   3.90410600
_cell_length_c   14.95364829
_cell_angle_alpha   90.00000000
_cell_angle_beta   126.33350609
_cell_angle_gamma   90.00000000
_symmetry_Int_Tables_number   1
_chemical_formula_structural   Pr2Mn3(SbS3)4
_chemical_formula_sum   'Pr4 Mn6 Sb8 S24'
_cell_volume   942.00006694
_cell_formula_units_Z   2
loop_
 _symmetry_equiv_pos_site_id
 _symmetry_equiv_pos_as_xyz
  1  'x, y, z'
loop_
 _atom_site_type_symbol
 _atom_site_label
 _atom_site_symmetry_multiplicity
 _atom_site_fract_x
 _atom_site_fract_y
 _atom_site_fract_z
 _atom_site_occupancy
  Pr  Pr0  1  0.26718461  0.44806737  0.86832678  1
  Pr  Pr1  1  0.74291085  0.51533318  0.15130300  1
  Pr  Pr2  1  0.77342697  0.97270212  0.87899367  1
  Pr  Pr3  1  0.23682100  0.02297204  0.13887825  1
  Mn  Mn4  1  0.27442435  0.56455609  0.58141279  1
  Mn  Mn5  1  0.71698628  0.50376897  0.39114919  1
  Mn  Mn6  1  0.00376404  0.96195681  0.00775322  1
  Mn  Mn7  1  0.79313689  0.92734048  0.61554018  1
  Mn  Mn8  1  0.18454784  0.96479324  0.41458230  1
  Mn  Mn9  1  0.53686490  0.47966940  0.03711361  1
  Sb  Sb10  1  0.90811281  0.02783653  0.47075062  1
  Sb  Sb11  1  0.11280393  0.92748009  0.55512351  1
  Sb  Sb12  1  0.02035376  0.49902080  0.80302685  1
  Sb  Sb13  1  0.97330016  0.51990567  0.19831806  1
  Sb  Sb14  1  0.38345209  0.52749967  0.44664748  1
  Sb  Sb15  1  0.61105931  0.47933077  0.54019985  1
  Sb  Sb16  1  0.53875746  0.95622393  0.82012253  1
  Sb  Sb17  1  0.45588521  0.06082503  0.17587945  1
  S  S18  1  0.93757264  0.99587277  0.81200283  1
  S  S19  1  0.06715196  0.96376853  0.19953947  1
  S  S20  1  0.42972461  0.02943123  0.99066483  1
  S  S21  1  0.60773116  0.96835210  0.03979682  1
  S  S22  1  0.17639716  0.03952178  0.91191379  1
  S  S23  1  0.83391862  0.02629689  0.12041470  1
  S  S24  1  0.10504602  0.50296193  0.66793649  1
  S  S25  1  0.91698359  0.52457330  0.36733333  1
  S  S26  1  0.75594306  0.94479222  0.32272935  1
  S  S27  1  0.25856222  0.99771423  0.68274892  1
  S  S28  1  0.13738666  0.46641575  0.43364495  1
  S  S29  1  0.83911821  0.43609466  0.56764001  1
  S  S30  1  0.46772811  0.48616096  0.84845399  1
  S  S31  1  0.58288543  0.54305572  0.21933328  1
  S  S32  1  0.92191991  0.44218975  0.99578554  1
  S  S33  1  0.07864190  0.49791042  0.00488024  1
  S  S34  1  0.68749394  0.51529376  0.91593609  1
  S  S35  1  0.33615238  0.51087518  0.09331868  1
  S  S36  1  0.58285164  0.98700490  0.63550940  1
  S  S37  1  0.40390376  0.00131953  0.34188428  1
  S  S38  1  0.24227914  0.52350071  0.28415408  1
  S  S39  1  0.76353004  0.46369415  0.67759373  1
  S  S40  1  0.67184831  0.08013971  0.43214352  1
  S  S41  1  0.32370821  0.99914574  0.54716539  1
