# generated using pymatgen
data_Pr2Mn3(SbS3)4
_symmetry_space_group_name_H-M   'P 1'
_cell_length_a   20.02960800
_cell_length_b   3.90410600
_cell_length_c   14.95364829
_cell_angle_alpha   90.00000000
_cell_angle_beta   126.33350609
_cell_angle_gamma   90.00000000
_symmetry_Int_Tables_number   1
_chemical_formula_structural   Pr2Mn3(SbS3)4
_chemical_formula_sum   'Pr4 Mn6 Sb8 S24'
_cell_volume   942.00006694
_cell_formula_units_Z   2
loop_
 _symmetry_equiv_pos_site_id
 _symmetry_equiv_pos_as_xyz
  1  'x, y, z'
loop_
 _atom_site_type_symbol
 _atom_site_label
 _atom_site_symmetry_multiplicity
 _atom_site_fract_x
 _atom_site_fract_y
 _atom_site_fract_z
 _atom_site_occupancy
  Pr  Pr0  1  0.26690511  0.44830940  0.86774281  1
  Pr  Pr1  1  0.74292359  0.51559072  0.15146518  1
  Pr  Pr2  1  0.77356890  0.97259586  0.87917666  1
  Pr  Pr3  1  0.23684302  0.02267136  0.13892789  1
  Mn  Mn4  1  0.27426045  0.56578804  0.58146153  1
  Mn  Mn5  1  0.71694286  0.50313290  0.39105681  1
  Mn  Mn6  1  0.00384572  0.96306161  0.00749914  1
  Mn  Mn7  1  0.79299749  0.92667991  0.61537398  1
  Mn  Mn8  1  0.18467442  0.96366685  0.41464941  1
  Mn  Mn9  1  0.53693672  0.47977900  0.03729095  1
  Sb  Sb10  1  0.90803581  0.02882031  0.47064229  1
  Sb  Sb11  1  0.11284500  0.92731606  0.55535459  1
  Sb  Sb12  1  0.02032415  0.49847259  0.80306763  1
  Sb  Sb13  1  0.97341069  0.51982378  0.19838453  1
  Sb  Sb14  1  0.38345574  0.52727235  0.44691534  1
  Sb  Sb15  1  0.61101542  0.47977312  0.54018395  1
  Sb  Sb16  1  0.53886906  0.95652416  0.81984798  1
  Sb  Sb17  1  0.45585631  0.06068528  0.17583391  1
  S  S18  1  0.93786505  0.99511191  0.81189762  1
  S  S19  1  0.06698703  0.96443878  0.19971365  1
  S  S20  1  0.42969679  0.02895540  0.99074802  1
  S  S21  1  0.60757433  0.96867180  0.03983292  1
  S  S22  1  0.17634536  0.03965370  0.91159802  1
  S  S23  1  0.83339058  0.02480762  0.11982471  1
  S  S24  1  0.10520641  0.50364214  0.66806949  1
  S  S25  1  0.91712193  0.52349719  0.36751542  1
  S  S26  1  0.75594936  0.94482958  0.32310183  1
  S  S27  1  0.25837592  0.99687600  0.68251576  1
  S  S28  1  0.13755868  0.46651743  0.43410525  1
  S  S29  1  0.83878409  0.43603887  0.56741353  1
  S  S30  1  0.46783103  0.48561537  0.84869526  1
  S  S31  1  0.58282592  0.54554504  0.21927190  1
  S  S32  1  0.92221747  0.44213042  0.99559702  1
  S  S33  1  0.07862765  0.49816865  0.00492448  1
  S  S34  1  0.68756507  0.51480235  0.91598198  1
  S  S35  1  0.33651495  0.51045489  0.09311246  1
  S  S36  1  0.58278097  0.98916263  0.63550067  1
  S  S37  1  0.40357727  0.00085099  0.34120373  1
  S  S38  1  0.24245178  0.52549595  0.28408156  1
  S  S39  1  0.76325029  0.46577527  0.67718253  1
  S  S40  1  0.67170985  0.07983503  0.43217469  1
  S  S41  1  0.32373392  0.99958490  0.54763618  1
