# generated using pymatgen
data_Pr2Mn3(SbS3)4
_symmetry_space_group_name_H-M   'P 1'
_cell_length_a   20.02960800
_cell_length_b   3.90410600
_cell_length_c   14.95364829
_cell_angle_alpha   90.00000000
_cell_angle_beta   126.33350609
_cell_angle_gamma   90.00000000
_symmetry_Int_Tables_number   1
_chemical_formula_structural   Pr2Mn3(SbS3)4
_chemical_formula_sum   'Pr4 Mn6 Sb8 S24'
_cell_volume   942.00006694
_cell_formula_units_Z   2
loop_
 _symmetry_equiv_pos_site_id
 _symmetry_equiv_pos_as_xyz
  1  'x, y, z'
loop_
 _atom_site_type_symbol
 _atom_site_label
 _atom_site_symmetry_multiplicity
 _atom_site_fract_x
 _atom_site_fract_y
 _atom_site_fract_z
 _atom_site_occupancy
  Pr  Pr0  1  0.26662880  0.44834630  0.86716074  1
  Pr  Pr1  1  0.74295177  0.51583296  0.15166562  1
  Pr  Pr2  1  0.77362548  0.97243036  0.87921484  1
  Pr  Pr3  1  0.23689499  0.02212593  0.13898031  1
  Mn  Mn4  1  0.27404189  0.56668838  0.58153704  1
  Mn  Mn5  1  0.71699279  0.50263608  0.39100249  1
  Mn  Mn6  1  0.00386622  0.96424619  0.00720542  1
  Mn  Mn7  1  0.79291023  0.92610984  0.61532298  1
  Mn  Mn8  1  0.18483064  0.96216561  0.41486518  1
  Mn  Mn9  1  0.53705233  0.47996472  0.03733099  1
  Sb  Sb10  1  0.90799145  0.02966585  0.47055288  1
  Sb  Sb11  1  0.11291607  0.92715505  0.55560446  1
  Sb  Sb12  1  0.02031558  0.49794086  0.80312963  1
  Sb  Sb13  1  0.97350477  0.51991479  0.19850332  1
  Sb  Sb14  1  0.38346434  0.52681744  0.44714138  1
  Sb  Sb15  1  0.61103666  0.48040039  0.54020870  1
  Sb  Sb16  1  0.53888996  0.95677854  0.81971550  1
  Sb  Sb17  1  0.45585714  0.06012378  0.17586001  1
  S  S18  1  0.93837139  0.99474548  0.81186619  1
  S  S19  1  0.06669802  0.96459747  0.19974132  1
  S  S20  1  0.42961800  0.02829777  0.99087507  1
  S  S21  1  0.60748397  0.96842326  0.04001212  1
  S  S22  1  0.17621359  0.03969063  0.91127567  1
  S  S23  1  0.83296251  0.02383242  0.11920302  1
  S  S24  1  0.10537169  0.50365669  0.66814141  1
  S  S25  1  0.91715489  0.52261847  0.36773108  1
  S  S26  1  0.75595496  0.94482628  0.32353804  1
  S  S27  1  0.25807416  0.99663789  0.68222549  1
  S  S28  1  0.13770902  0.46610628  0.43452276  1
  S  S29  1  0.83865467  0.43572666  0.56747655  1
  S  S30  1  0.46789022  0.48517114  0.84889328  1
  S  S31  1  0.58285475  0.54736595  0.21920586  1
  S  S32  1  0.92245803  0.44223014  0.99543504  1
  S  S33  1  0.07873982  0.49856242  0.00511399  1
  S  S34  1  0.68752855  0.51465796  0.91592344  1
  S  S35  1  0.33685336  0.51057013  0.09281834  1
  S  S36  1  0.58276834  0.99113343  0.63550910  1
  S  S37  1  0.40329534  0.00058746  0.34070627  1
  S  S38  1  0.24267459  0.52731324  0.28404732  1
  S  S39  1  0.76289623  0.46758643  0.67690995  1
  S  S40  1  0.67155636  0.07938064  0.43219452  1
  S  S41  1  0.32368399  0.99968273  0.54803372  1
