# generated using pymatgen
data_Pr2Mn3(SbS3)4
_symmetry_space_group_name_H-M   'P 1'
_cell_length_a   20.02960800
_cell_length_b   3.90410600
_cell_length_c   14.95364829
_cell_angle_alpha   90.00000000
_cell_angle_beta   126.33350609
_cell_angle_gamma   90.00000000
_symmetry_Int_Tables_number   1
_chemical_formula_structural   Pr2Mn3(SbS3)4
_chemical_formula_sum   'Pr4 Mn6 Sb8 S24'
_cell_volume   942.00006694
_cell_formula_units_Z   2
loop_
 _symmetry_equiv_pos_site_id
 _symmetry_equiv_pos_as_xyz
  1  'x, y, z'
loop_
 _atom_site_type_symbol
 _atom_site_label
 _atom_site_symmetry_multiplicity
 _atom_site_fract_x
 _atom_site_fract_y
 _atom_site_fract_z
 _atom_site_occupancy
  Pr  Pr0  1  0.26640640  0.44853495  0.86673213  1
  Pr  Pr1  1  0.74301408  0.51608788  0.15183934  1
  Pr  Pr2  1  0.77361774  0.97223029  0.87915282  1
  Pr  Pr3  1  0.23689623  0.02167248  0.13892640  1
  Mn  Mn4  1  0.27392557  0.56791337  0.58161123  1
  Mn  Mn5  1  0.71702987  0.50252547  0.39089864  1
  Mn  Mn6  1  0.00401716  0.96512400  0.00696997  1
  Mn  Mn7  1  0.79283727  0.92541296  0.61530761  1
  Mn  Mn8  1  0.18503949  0.96094335  0.41511095  1
  Mn  Mn9  1  0.53712274  0.48027243  0.03739285  1
  Sb  Sb10  1  0.90798830  0.03051993  0.47047295  1
  Sb  Sb11  1  0.11296766  0.92731299  0.55578547  1
  Sb  Sb12  1  0.02030686  0.49752569  0.80324365  1
  Sb  Sb13  1  0.97364779  0.51992226  0.19863399  1
  Sb  Sb14  1  0.38335809  0.52644873  0.44731463  1
  Sb  Sb15  1  0.61103539  0.48141222  0.54023359  1
  Sb  Sb16  1  0.53892733  0.95709358  0.81966668  1
  Sb  Sb17  1  0.45594443  0.05951099  0.17597410  1
  S  S18  1  0.93888205  0.99413827  0.81185655  1
  S  S19  1  0.06639203  0.96458730  0.19980151  1
  S  S20  1  0.42961023  0.02763463  0.99104348  1
  S  S21  1  0.60735797  0.96910307  0.04001723  1
  S  S22  1  0.17613912  0.03926524  0.91098146  1
  S  S23  1  0.83262944  0.02290738  0.11874944  1
  S  S24  1  0.10551676  0.50388929  0.66831216  1
  S  S25  1  0.91726742  0.52143359  0.36792402  1
  S  S26  1  0.75595960  0.94499717  0.32401097  1
  S  S27  1  0.25774357  0.99718377  0.68196961  1
  S  S28  1  0.13784153  0.46551096  0.43489524  1
  S  S29  1  0.83855531  0.43517023  0.56770173  1
  S  S30  1  0.46781418  0.48443238  0.84900821  1
  S  S31  1  0.58284036  0.54940135  0.21926329  1
  S  S32  1  0.92249568  0.44288173  0.99535104  1
  S  S33  1  0.07891528  0.49950561  0.00540157  1
  S  S34  1  0.68759121  0.51476900  0.91613201  1
  S  S35  1  0.33717721  0.51106510  0.09266851  1
  S  S36  1  0.58291226  0.99244825  0.63564178  1
  S  S37  1  0.40300008  0.99973877  0.34024149  1
  S  S38  1  0.24269065  0.52895647  0.28393958  1
  S  S39  1  0.76258774  0.46933355  0.67662825  1
  S  S40  1  0.67144164  0.07947731  0.43210546  1
  S  S41  1  0.32352864  0.99986386  0.54810513  1
