# generated using pymatgen
data_Pr2Mn3(SbS3)4
_symmetry_space_group_name_H-M   'P 1'
_cell_length_a   20.02960800
_cell_length_b   3.90410600
_cell_length_c   14.95364829
_cell_angle_alpha   90.00000000
_cell_angle_beta   126.33350609
_cell_angle_gamma   90.00000000
_symmetry_Int_Tables_number   1
_chemical_formula_structural   Pr2Mn3(SbS3)4
_chemical_formula_sum   'Pr4 Mn6 Sb8 S24'
_cell_volume   942.00006694
_cell_formula_units_Z   2
loop_
 _symmetry_equiv_pos_site_id
 _symmetry_equiv_pos_as_xyz
  1  'x, y, z'
loop_
 _atom_site_type_symbol
 _atom_site_label
 _atom_site_symmetry_multiplicity
 _atom_site_fract_x
 _atom_site_fract_y
 _atom_site_fract_z
 _atom_site_occupancy
  Pr  Pr0  1  0.26928720  0.50739438  0.87541865  1
  Pr  Pr1  1  0.73281334  0.52134394  0.13244589  1
  Pr  Pr2  1  0.76432273  0.03030111  0.87156939  1
  Pr  Pr3  1  0.22857410  0.95679999  0.12572828  1
  Mn  Mn4  1  0.29595668  0.45000452  0.60863244  1
  Mn  Mn5  1  0.68631687  0.45480848  0.36314311  1
  Mn  Mn6  1  0.99883454  0.97673175  0.00579906  1
  Mn  Mn7  1  0.78986436  0.01150885  0.61438311  1
  Mn  Mn8  1  0.20117187  0.03020837  0.37303709  1
  Mn  Mn9  1  0.48092862  0.47394392  0.97755795  1
  Sb  Sb10  1  0.89295760  0.96890388  0.45032249  1
  Sb  Sb11  1  0.11404913  0.97654140  0.54894920  1
  Sb  Sb12  1  0.03973031  0.51416988  0.82945809  1
  Sb  Sb13  1  0.96797874  0.48321292  0.19296510  1
  Sb  Sb14  1  0.39885699  0.49384402  0.45329714  1
  Sb  Sb15  1  0.61330472  0.48538982  0.54808840  1
  Sb  Sb16  1  0.53024671  0.97078865  0.80660333  1
  Sb  Sb17  1  0.46573579  0.03131978  0.18391624  1
  S  S18  1  0.93414418  0.98307905  0.79859803  1
  S  S19  1  0.06679321  0.98091564  0.20123909  1
  S  S20  1  0.42011285  0.98055838  0.97941636  1
  S  S21  1  0.58306308  0.01388126  0.00492463  1
  S  S22  1  0.16199877  0.02484368  0.89635312  1
  S  S23  1  0.83076660  0.98075047  0.10738356  1
  S  S24  1  0.09163864  0.49260626  0.63862136  1
  S  S25  1  0.91538650  0.50560065  0.35756995  1
  S  S26  1  0.73423614  0.99321219  0.29809297  1
  S  S27  1  0.26388902  0.01975505  0.70222505  1
  S  S28  1  0.17188152  0.51827268  0.44376084  1
  S  S29  1  0.80776326  0.53975873  0.53853272  1
  S  S30  1  0.43086460  0.47794810  0.79237259  1
  S  S31  1  0.55458452  0.48958344  0.17448392  1
  S  S32  1  0.91704909  0.52680910  0.98596514  1
  S  S33  1  0.08388345  0.48582544  0.02347248  1
  S  S34  1  0.66628312  0.55621685  0.88667452  1
  S  S35  1  0.32982395  0.45653566  0.10101352  1
  S  S36  1  0.58960852  0.97940778  0.64234324  1
  S  S37  1  0.39433497  0.99747192  0.33351418  1
  S  S38  1  0.24287185  0.47924088  0.31299497  1
  S  S39  1  0.76188623  0.48066906  0.69329562  1
  S  S40  1  0.65886669  0.99691971  0.43594183  1
  S  S41  1  0.32944163  0.96650062  0.55571998  1
