# generated using pymatgen
data_Pr2Mn3(SbS3)4
_symmetry_space_group_name_H-M   'P 1'
_cell_length_a   20.02960800
_cell_length_b   3.90410600
_cell_length_c   14.95364829
_cell_angle_alpha   90.00000000
_cell_angle_beta   126.33350609
_cell_angle_gamma   90.00000000
_symmetry_Int_Tables_number   1
_chemical_formula_structural   Pr2Mn3(SbS3)4
_chemical_formula_sum   'Pr4 Mn6 Sb8 S24'
_cell_volume   942.00006694
_cell_formula_units_Z   2
loop_
 _symmetry_equiv_pos_site_id
 _symmetry_equiv_pos_as_xyz
  1  'x, y, z'
loop_
 _atom_site_type_symbol
 _atom_site_label
 _atom_site_symmetry_multiplicity
 _atom_site_fract_x
 _atom_site_fract_y
 _atom_site_fract_z
 _atom_site_occupancy
  Pr  Pr0  1  0.26622319  0.44862087  0.86634027  1
  Pr  Pr1  1  0.74307396  0.51638727  0.15210408  1
  Pr  Pr2  1  0.77360368  0.97208468  0.87911552  1
  Pr  Pr3  1  0.23687732  0.02132067  0.13883809  1
  Mn  Mn4  1  0.27389672  0.56872355  0.58180135  1
  Mn  Mn5  1  0.71708074  0.50249928  0.39086201  1
  Mn  Mn6  1  0.00415163  0.96591532  0.00665804  1
  Mn  Mn7  1  0.79271738  0.92465607  0.61515571  1
  Mn  Mn8  1  0.18521817  0.95971042  0.41535932  1
  Mn  Mn9  1  0.53725617  0.48058210  0.03758708  1
  Sb  Sb10  1  0.90805652  0.03145534  0.47050751  1
  Sb  Sb11  1  0.11301688  0.92767447  0.55587648  1
  Sb  Sb12  1  0.02030123  0.49681971  0.80335281  1
  Sb  Sb13  1  0.97383902  0.52045363  0.19889794  1
  Sb  Sb14  1  0.38324123  0.52612024  0.44749849  1
  Sb  Sb15  1  0.61100504  0.48229093  0.54019358  1
  Sb  Sb16  1  0.53900984  0.95774119  0.81958178  1
  Sb  Sb17  1  0.45599584  0.05903755  0.17603006  1
  S  S18  1  0.93940436  0.99361163  0.81194957  1
  S  S19  1  0.06611934  0.96423272  0.20001708  1
  S  S20  1  0.42954552  0.02700905  0.99125330  1
  S  S21  1  0.60733044  0.96959981  0.04012953  1
  S  S22  1  0.17619252  0.03950573  0.91075606  1
  S  S23  1  0.83239461  0.02240653  0.11840866  1
  S  S24  1  0.10586603  0.50425948  0.66896466  1
  S  S25  1  0.91726965  0.52028867  0.36800473  1
  S  S26  1  0.75599956  0.94511539  0.32442148  1
  S  S27  1  0.25759769  0.99712360  0.68207281  1
  S  S28  1  0.13798813  0.46486357  0.43526318  1
  S  S29  1  0.83866088  0.43452350  0.56787534  1
  S  S30  1  0.46776902  0.48451427  0.84924922  1
  S  S31  1  0.58272219  0.55066761  0.21933702  1
  S  S32  1  0.92243403  0.44364625  0.99526615  1
  S  S33  1  0.07900974  0.50058393  0.00561814  1
  S  S34  1  0.68762181  0.51486648  0.91635956  1
  S  S35  1  0.33734888  0.51122090  0.09244951  1
  S  S36  1  0.58306765  0.99359026  0.63582542  1
  S  S37  1  0.40294682  0.99906200  0.33996827  1
  S  S38  1  0.24278226  0.52989679  0.28380335  1
  S  S39  1  0.76242682  0.47083843  0.67660110  1
  S  S40  1  0.67147223  0.07976247  0.43207262  1
  S  S41  1  0.32346498  0.99989401  0.54825232  1
