# generated using pymatgen
data_Pr2Mn3(SbS3)4
_symmetry_space_group_name_H-M   'P 1'
_cell_length_a   20.02960800
_cell_length_b   3.90410600
_cell_length_c   14.95364829
_cell_angle_alpha   90.00000000
_cell_angle_beta   126.33350609
_cell_angle_gamma   90.00000000
_symmetry_Int_Tables_number   1
_chemical_formula_structural   Pr2Mn3(SbS3)4
_chemical_formula_sum   'Pr4 Mn6 Sb8 S24'
_cell_volume   942.00006694
_cell_formula_units_Z   2
loop_
 _symmetry_equiv_pos_site_id
 _symmetry_equiv_pos_as_xyz
  1  'x, y, z'
loop_
 _atom_site_type_symbol
 _atom_site_label
 _atom_site_symmetry_multiplicity
 _atom_site_fract_x
 _atom_site_fract_y
 _atom_site_fract_z
 _atom_site_occupancy
  Pr  Pr0  1  0.26598814  0.44878425  0.86600534  1
  Pr  Pr1  1  0.74318233  0.51662408  0.15233218  1
  Pr  Pr2  1  0.77361277  0.97237205  0.87916120  1
  Pr  Pr3  1  0.23685830  0.02123941  0.13883728  1
  Mn  Mn4  1  0.27392468  0.56946132  0.58194642  1
  Mn  Mn5  1  0.71716400  0.50237253  0.39078015  1
  Mn  Mn6  1  0.00437464  0.96663214  0.00652536  1
  Mn  Mn7  1  0.79263822  0.92419944  0.61502476  1
  Mn  Mn8  1  0.18534907  0.95883516  0.41559405  1
  Mn  Mn9  1  0.53735246  0.48090864  0.03772404  1
  Sb  Sb10  1  0.90813925  0.03223688  0.47055948  1
  Sb  Sb11  1  0.11302174  0.92792527  0.55596485  1
  Sb  Sb12  1  0.02028393  0.49575535  0.80343210  1
  Sb  Sb13  1  0.97394174  0.52087129  0.19908714  1
  Sb  Sb14  1  0.38310913  0.52594624  0.44763828  1
  Sb  Sb15  1  0.61102662  0.48291040  0.54020998  1
  Sb  Sb16  1  0.53909313  0.95820239  0.81936215  1
  Sb  Sb17  1  0.45597400  0.05838559  0.17603757  1
  S  S18  1  0.93996069  0.99276687  0.81203047  1
  S  S19  1  0.06590322  0.96396423  0.20035085  1
  S  S20  1  0.42956670  0.02687927  0.99143084  1
  S  S21  1  0.60715889  0.97032889  0.04016178  1
  S  S22  1  0.17621120  0.03931952  0.91039622  1
  S  S23  1  0.83212095  0.02191915  0.11807293  1
  S  S24  1  0.10640583  0.50468538  0.66986553  1
  S  S25  1  0.91724493  0.51929430  0.36796448  1
  S  S26  1  0.75599149  0.94582107  0.32491366  1
  S  S27  1  0.25743561  0.99650861  0.68215445  1
  S  S28  1  0.13811762  0.46487338  0.43554654  1
  S  S29  1  0.83893261  0.43323375  0.56818867  1
  S  S30  1  0.46763310  0.48465794  0.84949173  1
  S  S31  1  0.58249061  0.55174120  0.21937383  1
  S  S32  1  0.92217525  0.44414748  0.99500868  1
  S  S33  1  0.07900237  0.50111158  0.00562272  1
  S  S34  1  0.68753079  0.51525755  0.91635449  1
  S  S35  1  0.33750310  0.51165096  0.09235813  1
  S  S36  1  0.58318172  0.99470270  0.63590616  1
  S  S37  1  0.40283638  0.99852035  0.33974140  1
  S  S38  1  0.24277285  0.53086511  0.28357551  1
  S  S39  1  0.76236704  0.47207635  0.67677112  1
  S  S40  1  0.67139448  0.07975396  0.43202742  1
  S  S41  1  0.32336053  0.00053739  0.54828560  1
