# generated using pymatgen
data_Pr2Mn3(SbS3)4
_symmetry_space_group_name_H-M   'P 1'
_cell_length_a   20.02960800
_cell_length_b   3.90410600
_cell_length_c   14.95364829
_cell_angle_alpha   90.00000000
_cell_angle_beta   126.33350609
_cell_angle_gamma   90.00000000
_symmetry_Int_Tables_number   1
_chemical_formula_structural   Pr2Mn3(SbS3)4
_chemical_formula_sum   'Pr4 Mn6 Sb8 S24'
_cell_volume   942.00006694
_cell_formula_units_Z   2
loop_
 _symmetry_equiv_pos_site_id
 _symmetry_equiv_pos_as_xyz
  1  'x, y, z'
loop_
 _atom_site_type_symbol
 _atom_site_label
 _atom_site_symmetry_multiplicity
 _atom_site_fract_x
 _atom_site_fract_y
 _atom_site_fract_z
 _atom_site_occupancy
  Pr  Pr0  1  0.26579458  0.44873279  0.86572303  1
  Pr  Pr1  1  0.74324975  0.51716732  0.15254296  1
  Pr  Pr2  1  0.77359608  0.97263352  0.87914281  1
  Pr  Pr3  1  0.23686452  0.02092547  0.13890963  1
  Mn  Mn4  1  0.27392166  0.57004945  0.58208374  1
  Mn  Mn5  1  0.71710208  0.50251263  0.39071740  1
  Mn  Mn6  1  0.00457437  0.96733328  0.00636808  1
  Mn  Mn7  1  0.79251875  0.92417105  0.61477837  1
  Mn  Mn8  1  0.18540006  0.95785660  0.41567601  1
  Mn  Mn9  1  0.53737554  0.48161495  0.03778078  1
  Sb  Sb10  1  0.90818067  0.03290021  0.47058201  1
  Sb  Sb11  1  0.11309818  0.92803690  0.55610621  1
  Sb  Sb12  1  0.02024540  0.49434627  0.80353607  1
  Sb  Sb13  1  0.97403314  0.52110576  0.19934351  1
  Sb  Sb14  1  0.38295035  0.52551841  0.44768866  1
  Sb  Sb15  1  0.61102291  0.48348003  0.54033505  1
  Sb  Sb16  1  0.53922916  0.95867039  0.81925585  1
  Sb  Sb17  1  0.45594423  0.05791895  0.17597714  1
  S  S18  1  0.94052034  0.99142615  0.81222935  1
  S  S19  1  0.06564135  0.96467530  0.20050718  1
  S  S20  1  0.42951747  0.02697175  0.99157303  1
  S  S21  1  0.60693319  0.97172172  0.04014522  1
  S  S22  1  0.17624844  0.03923407  0.91012007  1
  S  S23  1  0.83178883  0.02165266  0.11757675  1
  S  S24  1  0.10693254  0.50504887  0.67060596  1
  S  S25  1  0.91733126  0.51867035  0.36812685  1
  S  S26  1  0.75601739  0.94685626  0.32537783  1
  S  S27  1  0.25727809  0.99624336  0.68244203  1
  S  S28  1  0.13832078  0.46428738  0.43588771  1
  S  S29  1  0.83921783  0.43225932  0.56830387  1
  S  S30  1  0.46749703  0.48463008  0.84969218  1
  S  S31  1  0.58223591  0.55286397  0.21927992  1
  S  S32  1  0.92189794  0.44444177  0.99466750  1
  S  S33  1  0.07903771  0.50160651  0.00575832  1
  S  S34  1  0.68759252  0.51561004  0.91646132  1
  S  S35  1  0.33756147  0.51226317  0.09213953  1
  S  S36  1  0.58341701  0.99591732  0.63605355  1
  S  S37  1  0.40280205  0.99774203  0.33967356  1
  S  S38  1  0.24282517  0.53177826  0.28348174  1
  S  S39  1  0.76235974  0.47370215  0.67697851  1
  S  S40  1  0.67130383  0.07882775  0.43210073  1
  S  S41  1  0.32327673  0.00141713  0.54821836  1
