# generated using pymatgen
data_Pr2Mn3(SbS3)4
_symmetry_space_group_name_H-M   'P 1'
_cell_length_a   20.02960800
_cell_length_b   3.90410600
_cell_length_c   14.95364829
_cell_angle_alpha   90.00000000
_cell_angle_beta   126.33350609
_cell_angle_gamma   90.00000000
_symmetry_Int_Tables_number   1
_chemical_formula_structural   Pr2Mn3(SbS3)4
_chemical_formula_sum   'Pr4 Mn6 Sb8 S24'
_cell_volume   942.00006694
_cell_formula_units_Z   2
loop_
 _symmetry_equiv_pos_site_id
 _symmetry_equiv_pos_as_xyz
  1  'x, y, z'
loop_
 _atom_site_type_symbol
 _atom_site_label
 _atom_site_symmetry_multiplicity
 _atom_site_fract_x
 _atom_site_fract_y
 _atom_site_fract_z
 _atom_site_occupancy
  Pr  Pr0  1  0.26565877  0.44881646  0.86546021  1
  Pr  Pr1  1  0.74333866  0.51751225  0.15280741  1
  Pr  Pr2  1  0.77361120  0.97300439  0.87910692  1
  Pr  Pr3  1  0.23687448  0.02065352  0.13895867  1
  Mn  Mn4  1  0.27396005  0.57101417  0.58222302  1
  Mn  Mn5  1  0.71689474  0.50272068  0.39058485  1
  Mn  Mn6  1  0.00477925  0.96832850  0.00617915  1
  Mn  Mn7  1  0.79233327  0.92364166  0.61445405  1
  Mn  Mn8  1  0.18552148  0.95728352  0.41586929  1
  Mn  Mn9  1  0.53729109  0.48238395  0.03772922  1
  Sb  Sb10  1  0.90819269  0.03360809  0.47056535  1
  Sb  Sb11  1  0.11318127  0.92828021  0.55622958  1
  Sb  Sb12  1  0.02024517  0.49288679  0.80364760  1
  Sb  Sb13  1  0.97413353  0.52134592  0.19956803  1
  Sb  Sb14  1  0.38274634  0.52498934  0.44778562  1
  Sb  Sb15  1  0.61093885  0.48400717  0.54042236  1
  Sb  Sb16  1  0.53928211  0.95910644  0.81910596  1
  Sb  Sb17  1  0.45599326  0.05736405  0.17606165  1
  S  S18  1  0.94097861  0.98951610  0.81230208  1
  S  S19  1  0.06536518  0.96504983  0.20043541  1
  S  S20  1  0.42947485  0.02722654  0.99170242  1
  S  S21  1  0.60677562  0.97238308  0.04031988  1
  S  S22  1  0.17622374  0.03896383  0.90983956  1
  S  S23  1  0.83151934  0.02030477  0.11716813  1
  S  S24  1  0.10732984  0.50522029  0.67116098  1
  S  S25  1  0.91745560  0.51825611  0.36837262  1
  S  S26  1  0.75591549  0.94784042  0.32580341  1
  S  S27  1  0.25719477  0.99580451  0.68262949  1
  S  S28  1  0.13854330  0.46423503  0.43616914  1
  S  S29  1  0.83956472  0.43174195  0.56857059  1
  S  S30  1  0.46737598  0.48486681  0.84984554  1
  S  S31  1  0.58191588  0.55342136  0.21901408  1
  S  S32  1  0.92169980  0.44494212  0.99436129  1
  S  S33  1  0.07907523  0.50285202  0.00606924  1
  S  S34  1  0.68771774  0.51583237  0.91674498  1
  S  S35  1  0.33764577  0.51291614  0.09197240  1
  S  S36  1  0.58358891  0.99669690  0.63607908  1
  S  S37  1  0.40276540  0.99763768  0.33958688  1
  S  S38  1  0.24281490  0.53244532  0.28348868  1
  S  S39  1  0.76234741  0.47516589  0.67717078  1
  S  S40  1  0.67124933  0.07757617  0.43230162  1
  S  S41  1  0.32313069  0.00215829  0.54814599  1
