# generated using pymatgen
data_Pr2Mn3(SbS3)4
_symmetry_space_group_name_H-M   'P 1'
_cell_length_a   20.02960800
_cell_length_b   3.90410600
_cell_length_c   14.95364829
_cell_angle_alpha   90.00000000
_cell_angle_beta   126.33350609
_cell_angle_gamma   90.00000000
_symmetry_Int_Tables_number   1
_chemical_formula_structural   Pr2Mn3(SbS3)4
_chemical_formula_sum   'Pr4 Mn6 Sb8 S24'
_cell_volume   942.00006694
_cell_formula_units_Z   2
loop_
 _symmetry_equiv_pos_site_id
 _symmetry_equiv_pos_as_xyz
  1  'x, y, z'
loop_
 _atom_site_type_symbol
 _atom_site_label
 _atom_site_symmetry_multiplicity
 _atom_site_fract_x
 _atom_site_fract_y
 _atom_site_fract_z
 _atom_site_occupancy
  Pr  Pr0  1  0.26556689  0.44876601  0.86530095  1
  Pr  Pr1  1  0.74339766  0.51752021  0.15292775  1
  Pr  Pr2  1  0.77366640  0.97336404  0.87906292  1
  Pr  Pr3  1  0.23687823  0.02061411  0.13901102  1
  Mn  Mn4  1  0.27405241  0.57177916  0.58242706  1
  Mn  Mn5  1  0.71666232  0.50283372  0.39044178  1
  Mn  Mn6  1  0.00497855  0.96914239  0.00606921  1
  Mn  Mn7  1  0.79214420  0.92362497  0.61410991  1
  Mn  Mn8  1  0.18554991  0.95669978  0.41600745  1
  Mn  Mn9  1  0.53741062  0.48309476  0.03790788  1
  Sb  Sb10  1  0.90823301  0.03404676  0.47051240  1
  Sb  Sb11  1  0.11330386  0.92817811  0.55638991  1
  Sb  Sb12  1  0.02033640  0.49152992  0.80382825  1
  Sb  Sb13  1  0.97424923  0.52160499  0.19985034  1
  Sb  Sb14  1  0.38251068  0.52448102  0.44786345  1
  Sb  Sb15  1  0.61078513  0.48451955  0.54051350  1
  Sb  Sb16  1  0.53929654  0.95966637  0.81890998  1
  Sb  Sb17  1  0.45606746  0.05673108  0.17619713  1
  S  S18  1  0.94143056  0.98772092  0.81247496  1
  S  S19  1  0.06506685  0.96558959  0.20042745  1
  S  S20  1  0.42946545  0.02762580  0.99176780  1
  S  S21  1  0.60674087  0.97297069  0.04045394  1
  S  S22  1  0.17612472  0.03848144  0.90947476  1
  S  S23  1  0.83129785  0.01938753  0.11681559  1
  S  S24  1  0.10764579  0.50526418  0.67162913  1
  S  S25  1  0.91761945  0.51764975  0.36847986  1
  S  S26  1  0.75576222  0.94879700  0.32624866  1
  S  S27  1  0.25725198  0.99587633  0.68303167  1
  S  S28  1  0.13868806  0.46418784  0.43643919  1
  S  S29  1  0.83990004  0.43090922  0.56882717  1
  S  S30  1  0.46733880  0.48537108  0.84998149  1
  S  S31  1  0.58160011  0.55447040  0.21896306  1
  S  S32  1  0.92157823  0.44465259  0.99411315  1
  S  S33  1  0.07910611  0.50351789  0.00650703  1
  S  S34  1  0.68786439  0.51640885  0.91710936  1
  S  S35  1  0.33772075  0.51362698  0.09170067  1
  S  S36  1  0.58374922  0.99706373  0.63613752  1
  S  S37  1  0.40270288  0.99716779  0.33948375  1
  S  S38  1  0.24285863  0.53346957  0.28361227  1
  S  S39  1  0.76225925  0.47654670  0.67711981  1
  S  S40  1  0.67123200  0.07630864  0.43247359  1
  S  S41  1  0.32309208  0.00313711  0.54824297  1
