# generated using pymatgen
data_Pr2Mn3(SbS3)4
_symmetry_space_group_name_H-M   'P 1'
_cell_length_a   20.02960800
_cell_length_b   3.90410600
_cell_length_c   14.95364829
_cell_angle_alpha   90.00000000
_cell_angle_beta   126.33350609
_cell_angle_gamma   90.00000000
_symmetry_Int_Tables_number   1
_chemical_formula_structural   Pr2Mn3(SbS3)4
_chemical_formula_sum   'Pr4 Mn6 Sb8 S24'
_cell_volume   942.00006694
_cell_formula_units_Z   2
loop_
 _symmetry_equiv_pos_site_id
 _symmetry_equiv_pos_as_xyz
  1  'x, y, z'
loop_
 _atom_site_type_symbol
 _atom_site_label
 _atom_site_symmetry_multiplicity
 _atom_site_fract_x
 _atom_site_fract_y
 _atom_site_fract_z
 _atom_site_occupancy
  Pr  Pr0  1  0.26550952  0.44866643  0.86525371  1
  Pr  Pr1  1  0.74338781  0.51725713  0.15296129  1
  Pr  Pr2  1  0.77368932  0.97367358  0.87893365  1
  Pr  Pr3  1  0.23685908  0.02057900  0.13901601  1
  Mn  Mn4  1  0.27411087  0.57193514  0.58251434  1
  Mn  Mn5  1  0.71650844  0.50316937  0.39037459  1
  Mn  Mn6  1  0.00530904  0.96980315  0.00603895  1
  Mn  Mn7  1  0.79192766  0.92379292  0.61375882  1
  Mn  Mn8  1  0.18542627  0.95607672  0.41587643  1
  Mn  Mn9  1  0.53748984  0.48360847  0.03800268  1
  Sb  Sb10  1  0.90826936  0.03453815  0.47047701  1
  Sb  Sb11  1  0.11334125  0.92839108  0.55651370  1
  Sb  Sb12  1  0.02049855  0.49020987  0.80397163  1
  Sb  Sb13  1  0.97439414  0.52152165  0.20013442  1
  Sb  Sb14  1  0.38234586  0.52385535  0.44804124  1
  Sb  Sb15  1  0.61057383  0.48524970  0.54061208  1
  Sb  Sb16  1  0.53924393  0.96020405  0.81872421  1
  Sb  Sb17  1  0.45613843  0.05632002  0.17638451  1
  S  S18  1  0.94197146  0.98628113  0.81276678  1
  S  S19  1  0.06489611  0.96620199  0.20049670  1
  S  S20  1  0.42941450  0.02807104  0.99183153  1
  S  S21  1  0.60662508  0.97360310  0.04048475  1
  S  S22  1  0.17608839  0.03782634  0.90927026  1
  S  S23  1  0.83097955  0.01904800  0.11632896  1
  S  S24  1  0.10790303  0.50496117  0.67190255  1
  S  S25  1  0.91784073  0.51665410  0.36834024  1
  S  S26  1  0.75574298  0.95023281  0.32681143  1
  S  S27  1  0.25731638  0.99574054  0.68343610  1
  S  S28  1  0.13891059  0.46423721  0.43669594  1
  S  S29  1  0.84018790  0.43083005  0.56898024  1
  S  S30  1  0.46722841  0.48592482  0.84996398  1
  S  S31  1  0.58112133  0.55535259  0.21873037  1
  S  S32  1  0.92147789  0.44459882  0.99394267  1
  S  S33  1  0.07920278  0.50413331  0.00689626  1
  S  S34  1  0.68776684  0.51684000  0.91733600  1
  S  S35  1  0.33760902  0.51415909  0.09107819  1
  S  S36  1  0.58384274  0.99754550  0.63629898  1
  S  S37  1  0.40261746  0.99700536  0.33948317  1
  S  S38  1  0.24291630  0.53434690  0.28385312  1
  S  S39  1  0.76231352  0.47753924  0.67719342  1
  S  S40  1  0.67131007  0.07552686  0.43289905  1
  S  S41  1  0.32297364  0.00391373  0.54828014  1
