# generated using pymatgen
data_Pr2Mn3(SbS3)4
_symmetry_space_group_name_H-M   'P 1'
_cell_length_a   20.02960800
_cell_length_b   3.90410600
_cell_length_c   14.95364829
_cell_angle_alpha   90.00000000
_cell_angle_beta   126.33350609
_cell_angle_gamma   90.00000000
_symmetry_Int_Tables_number   1
_chemical_formula_structural   Pr2Mn3(SbS3)4
_chemical_formula_sum   'Pr4 Mn6 Sb8 S24'
_cell_volume   942.00006694
_cell_formula_units_Z   2
loop_
 _symmetry_equiv_pos_site_id
 _symmetry_equiv_pos_as_xyz
  1  'x, y, z'
loop_
 _atom_site_type_symbol
 _atom_site_label
 _atom_site_symmetry_multiplicity
 _atom_site_fract_x
 _atom_site_fract_y
 _atom_site_fract_z
 _atom_site_occupancy
  Pr  Pr0  1  0.26547181  0.44840125  0.86519853  1
  Pr  Pr1  1  0.74339643  0.51719519  0.15296364  1
  Pr  Pr2  1  0.77358919  0.97425662  0.87872147  1
  Pr  Pr3  1  0.23689729  0.02014290  0.13903859  1
  Mn  Mn4  1  0.27423187  0.57175807  0.58270470  1
  Mn  Mn5  1  0.71630070  0.50324084  0.39023642  1
  Mn  Mn6  1  0.00562596  0.97077823  0.00595258  1
  Mn  Mn7  1  0.79169890  0.92411078  0.61337050  1
  Mn  Mn8  1  0.18532750  0.95555571  0.41579660  1
  Mn  Mn9  1  0.53754406  0.48344894  0.03800984  1
  Sb  Sb10  1  0.90828064  0.03464563  0.47051169  1
  Sb  Sb11  1  0.11336472  0.92862234  0.55661780  1
  Sb  Sb12  1  0.02060697  0.48931567  0.80413185  1
  Sb  Sb13  1  0.97460653  0.52093610  0.20046223  1
  Sb  Sb14  1  0.38216241  0.52366914  0.44821791  1
  Sb  Sb15  1  0.61040924  0.48572423  0.54075233  1
  Sb  Sb16  1  0.53917732  0.96071490  0.81866801  1
  Sb  Sb17  1  0.45627191  0.05587712  0.17670762  1
  S  S18  1  0.94238760  0.98440626  0.81306848  1
  S  S19  1  0.06473030  0.96658792  0.20062790  1
  S  S20  1  0.42939893  0.02861337  0.99174245  1
  S  S21  1  0.60656384  0.97377137  0.04058701  1
  S  S22  1  0.17614512  0.03730402  0.90914380  1
  S  S23  1  0.83068083  0.01899937  0.11603164  1
  S  S24  1  0.10814219  0.50521903  0.67215171  1
  S  S25  1  0.91812800  0.51617389  0.36831780  1
  S  S26  1  0.75576220  0.95140993  0.32740241  1
  S  S27  1  0.25739797  0.99572450  0.68367730  1
  S  S28  1  0.13920470  0.46372453  0.43686880  1
  S  S29  1  0.84029527  0.43067823  0.56903177  1
  S  S30  1  0.46701150  0.48652004  0.84979979  1
  S  S31  1  0.58052215  0.55614602  0.21844506  1
  S  S32  1  0.92140814  0.44429861  0.99377395  1
  S  S33  1  0.07918751  0.50458091  0.00713078  1
  S  S34  1  0.68765449  0.51690718  0.91745046  1
  S  S35  1  0.33761309  0.51456276  0.09048183  1
  S  S36  1  0.58407466  0.99746275  0.63671700  1
  S  S37  1  0.40249394  0.99667172  0.33944904  1
  S  S38  1  0.24285009  0.53418017  0.28399467  1
  S  S39  1  0.76230088  0.47845503  0.67724903  1
  S  S40  1  0.67136007  0.07413685  0.43320924  1
  S  S41  1  0.32286416  0.00541581  0.54838642  1
