# generated using pymatgen
data_Pr2Mn3(SbS3)4
_symmetry_space_group_name_H-M   'P 1'
_cell_length_a   20.02960800
_cell_length_b   3.90410600
_cell_length_c   14.95364829
_cell_angle_alpha   90.00000000
_cell_angle_beta   126.33350609
_cell_angle_gamma   90.00000000
_symmetry_Int_Tables_number   1
_chemical_formula_structural   Pr2Mn3(SbS3)4
_chemical_formula_sum   'Pr4 Mn6 Sb8 S24'
_cell_volume   942.00006694
_cell_formula_units_Z   2
loop_
 _symmetry_equiv_pos_site_id
 _symmetry_equiv_pos_as_xyz
  1  'x, y, z'
loop_
 _atom_site_type_symbol
 _atom_site_label
 _atom_site_symmetry_multiplicity
 _atom_site_fract_x
 _atom_site_fract_y
 _atom_site_fract_z
 _atom_site_occupancy
  Pr  Pr0  1  0.26545571  0.44795949  0.86517685  1
  Pr  Pr1  1  0.74335755  0.51713109  0.15305256  1
  Pr  Pr2  1  0.77345786  0.97480329  0.87856229  1
  Pr  Pr3  1  0.23689472  0.01961746  0.13908417  1
  Mn  Mn4  1  0.27435482  0.57151707  0.58290021  1
  Mn  Mn5  1  0.71599926  0.50295852  0.39000411  1
  Mn  Mn6  1  0.00594207  0.97158015  0.00588545  1
  Mn  Mn7  1  0.79140520  0.92404555  0.61292164  1
  Mn  Mn8  1  0.18523511  0.95508731  0.41574980  1
  Mn  Mn9  1  0.53763709  0.48332297  0.03805475  1
  Sb  Sb10  1  0.90822984  0.03449165  0.47043848  1
  Sb  Sb11  1  0.11350612  0.92884664  0.55682165  1
  Sb  Sb12  1  0.02063014  0.48859667  0.80418267  1
  Sb  Sb13  1  0.97475882  0.52024830  0.20075797  1
  Sb  Sb14  1  0.38195443  0.52349971  0.44844953  1
  Sb  Sb15  1  0.61025486  0.48602910  0.54084247  1
  Sb  Sb16  1  0.53910510  0.96100437  0.81864495  1
  Sb  Sb17  1  0.45645163  0.05538822  0.17702506  1
  S  S18  1  0.94263962  0.98262599  0.81334551  1
  S  S19  1  0.06459736  0.96706596  0.20078060  1
  S  S20  1  0.42959433  0.02989687  0.99178726  1
  S  S21  1  0.60627254  0.97430474  0.04039904  1
  S  S22  1  0.17614885  0.03720223  0.90904662  1
  S  S23  1  0.83055938  0.01860248  0.11582816  1
  S  S24  1  0.10844609  0.50470574  0.67246857  1
  S  S25  1  0.91839088  0.51507307  0.36836858  1
  S  S26  1  0.75552194  0.95190062  0.32780532  1
  S  S27  1  0.25760728  0.99509287  0.68392536  1
  S  S28  1  0.13956885  0.46391205  0.43709658  1
  S  S29  1  0.84031995  0.43121379  0.56891956  1
  S  S30  1  0.46691749  0.48733764  0.84989709  1
  S  S31  1  0.57982414  0.55671790  0.21807243  1
  S  S32  1  0.92140229  0.44471460  0.99352340  1
  S  S33  1  0.07938386  0.50500082  0.00741756  1
  S  S34  1  0.68752306  0.51603756  0.91758138  1
  S  S35  1  0.33773932  0.51431129  0.09009876  1
  S  S36  1  0.58444302  0.99813512  0.63714707  1
  S  S37  1  0.40235687  0.99633589  0.33950898  1
  S  S38  1  0.24282348  0.53399819  0.28431251  1
  S  S39  1  0.76244737  0.47932787  0.67732894  1
  S  S40  1  0.67144509  0.07279567  0.43358290  1
  S  S41  1  0.32263559  0.00673484  0.54837317  1
