# generated using pymatgen
data_Pr2Mn3(SbS3)4
_symmetry_space_group_name_H-M   'P 1'
_cell_length_a   20.02960800
_cell_length_b   3.90410600
_cell_length_c   14.95364829
_cell_angle_alpha   90.00000000
_cell_angle_beta   126.33350609
_cell_angle_gamma   90.00000000
_symmetry_Int_Tables_number   1
_chemical_formula_structural   Pr2Mn3(SbS3)4
_chemical_formula_sum   'Pr4 Mn6 Sb8 S24'
_cell_volume   942.00006694
_cell_formula_units_Z   2
loop_
 _symmetry_equiv_pos_site_id
 _symmetry_equiv_pos_as_xyz
  1  'x, y, z'
loop_
 _atom_site_type_symbol
 _atom_site_label
 _atom_site_symmetry_multiplicity
 _atom_site_fract_x
 _atom_site_fract_y
 _atom_site_fract_z
 _atom_site_occupancy
  Pr  Pr0  1  0.26548989  0.44765585  0.86509178  1
  Pr  Pr1  1  0.74328329  0.51714476  0.15311762  1
  Pr  Pr2  1  0.77336174  0.97542752  0.87836981  1
  Pr  Pr3  1  0.23691039  0.01920714  0.13911292  1
  Mn  Mn4  1  0.27445366  0.57086283  0.58306507  1
  Mn  Mn5  1  0.71566174  0.50299460  0.38966569  1
  Mn  Mn6  1  0.00624692  0.97231711  0.00583083  1
  Mn  Mn7  1  0.79126179  0.92405177  0.61255938  1
  Mn  Mn8  1  0.18521976  0.95514219  0.41561594  1
  Mn  Mn9  1  0.53769734  0.48304411  0.03811938  1
  Sb  Sb10  1  0.90815368  0.03397901  0.47037576  1
  Sb  Sb11  1  0.11355423  0.92882131  0.55697707  1
  Sb  Sb12  1  0.02066936  0.48788925  0.80430525  1
  Sb  Sb13  1  0.97487677  0.51976922  0.20101806  1
  Sb  Sb14  1  0.38187277  0.52338388  0.44864516  1
  Sb  Sb15  1  0.61017062  0.48624060  0.54091041  1
  Sb  Sb16  1  0.53902690  0.96106188  0.81858840  1
  Sb  Sb17  1  0.45654680  0.05498336  0.17722129  1
  S  S18  1  0.94288944  0.98106092  0.81373696  1
  S  S19  1  0.06437297  0.96705936  0.20071552  1
  S  S20  1  0.42974390  0.03147291  0.99179202  1
  S  S21  1  0.60595730  0.97441406  0.04023033  1
  S  S22  1  0.17606884  0.03732451  0.90874131  1
  S  S23  1  0.83049629  0.01847034  0.11557784  1
  S  S24  1  0.10877891  0.50432044  0.67283546  1
  S  S25  1  0.91857774  0.51386145  0.36861138  1
  S  S26  1  0.75542756  0.95267248  0.32840855  1
  S  S27  1  0.25785687  0.99382147  0.68412515  1
  S  S28  1  0.13975252  0.46344797  0.43728447  1
  S  S29  1  0.84019677  0.43144443  0.56860420  1
  S  S30  1  0.46687245  0.48771840  0.85012308  1
  S  S31  1  0.57924404  0.55734481  0.21782169  1
  S  S32  1  0.92132590  0.44467385  0.99314892  1
  S  S33  1  0.07962138  0.50505915  0.00770338  1
  S  S34  1  0.68731588  0.51548728  0.91772301  1
  S  S35  1  0.33774423  0.51460963  0.08966244  1
  S  S36  1  0.58462051  0.99885729  0.63723223  1
  S  S37  1  0.40226421  0.99672224  0.33975514  1
  S  S38  1  0.24282510  0.53385989  0.28463547  1
  S  S39  1  0.76269914  0.48059870  0.67757917  1
  S  S40  1  0.67160689  0.07067933  0.43412225  1
  S  S41  1  0.32237790  0.00773417  0.54819025  1
