# generated using pymatgen
data_Pr2Mn3(SbS3)4
_symmetry_space_group_name_H-M   'P 1'
_cell_length_a   20.02960800
_cell_length_b   3.90410600
_cell_length_c   14.95364829
_cell_angle_alpha   90.00000000
_cell_angle_beta   126.33350609
_cell_angle_gamma   90.00000000
_symmetry_Int_Tables_number   1
_chemical_formula_structural   Pr2Mn3(SbS3)4
_chemical_formula_sum   'Pr4 Mn6 Sb8 S24'
_cell_volume   942.00006694
_cell_formula_units_Z   2
loop_
 _symmetry_equiv_pos_site_id
 _symmetry_equiv_pos_as_xyz
  1  'x, y, z'
loop_
 _atom_site_type_symbol
 _atom_site_label
 _atom_site_symmetry_multiplicity
 _atom_site_fract_x
 _atom_site_fract_y
 _atom_site_fract_z
 _atom_site_occupancy
  Pr  Pr0  1  0.26552372  0.44738847  0.86497147  1
  Pr  Pr1  1  0.74327046  0.51735627  0.15317159  1
  Pr  Pr2  1  0.77335316  0.97590115  0.87831784  1
  Pr  Pr3  1  0.23690316  0.01898463  0.13913170  1
  Mn  Mn4  1  0.27445179  0.57007496  0.58306240  1
  Mn  Mn5  1  0.71526517  0.50295202  0.38934390  1
  Mn  Mn6  1  0.00650924  0.97304120  0.00590494  1
  Mn  Mn7  1  0.79107792  0.92411726  0.61227243  1
  Mn  Mn8  1  0.18516538  0.95472167  0.41546985  1
  Mn  Mn9  1  0.53783917  0.48313096  0.03844139  1
  Sb  Sb10  1  0.90798432  0.03348288  0.47031146  1
  Sb  Sb11  1  0.11356480  0.92858970  0.55703966  1
  Sb  Sb12  1  0.02074688  0.48747831  0.80446201  1
  Sb  Sb13  1  0.97505779  0.51939165  0.20141065  1
  Sb  Sb14  1  0.38187101  0.52309079  0.44891498  1
  Sb  Sb15  1  0.61003247  0.48675048  0.54088853  1
  Sb  Sb16  1  0.53893339  0.96104711  0.81855841  1
  Sb  Sb17  1  0.45659904  0.05475759  0.17743149  1
  S  S18  1  0.94305190  0.97962956  0.81423028  1
  S  S19  1  0.06407552  0.96696942  0.20053322  1
  S  S20  1  0.43002861  0.03287202  0.99203106  1
  S  S21  1  0.60545700  0.97467388  0.04002471  1
  S  S22  1  0.17604754  0.03686702  0.90860770  1
  S  S23  1  0.83048299  0.01782382  0.11531612  1
  S  S24  1  0.10903056  0.50425545  0.67289175  1
  S  S25  1  0.91879940  0.51246084  0.36872250  1
  S  S26  1  0.75538694  0.95382691  0.32912452  1
  S  S27  1  0.25806928  0.99280138  0.68433563  1
  S  S28  1  0.13984543  0.46244764  0.43753055  1
  S  S29  1  0.84000062  0.43147007  0.56821431  1
  S  S30  1  0.46694970  0.48831938  0.85038051  1
  S  S31  1  0.57870090  0.55771173  0.21750938  1
  S  S32  1  0.92119133  0.44502047  0.99284031  1
  S  S33  1  0.07980313  0.50489959  0.00797186  1
  S  S34  1  0.68711355  0.51528301  0.91792240  1
  S  S35  1  0.33781969  0.51455328  0.08917871  1
  S  S36  1  0.58467565  0.99953607  0.63714210  1
  S  S37  1  0.40210378  0.99710557  0.33990327  1
  S  S38  1  0.24284824  0.53378484  0.28505916  1
  S  S39  1  0.76296614  0.48161854  0.67791864  1
  S  S40  1  0.67166759  0.06912503  0.43447269  1
  S  S41  1  0.32223244  0.00831394  0.54809391  1
