# generated using pymatgen
data_Pr2Mn3(SbS3)4
_symmetry_space_group_name_H-M   'P 1'
_cell_length_a   20.02960800
_cell_length_b   3.90410600
_cell_length_c   14.95364829
_cell_angle_alpha   90.00000000
_cell_angle_beta   126.33350609
_cell_angle_gamma   90.00000000
_symmetry_Int_Tables_number   1
_chemical_formula_structural   Pr2Mn3(SbS3)4
_chemical_formula_sum   'Pr4 Mn6 Sb8 S24'
_cell_volume   942.00006694
_cell_formula_units_Z   2
loop_
 _symmetry_equiv_pos_site_id
 _symmetry_equiv_pos_as_xyz
  1  'x, y, z'
loop_
 _atom_site_type_symbol
 _atom_site_label
 _atom_site_symmetry_multiplicity
 _atom_site_fract_x
 _atom_site_fract_y
 _atom_site_fract_z
 _atom_site_occupancy
  Pr  Pr0  1  0.26929612  0.50729207  0.87553039  1
  Pr  Pr1  1  0.73269939  0.52099982  0.13230352  1
  Pr  Pr2  1  0.76432797  0.03018893  0.87160537  1
  Pr  Pr3  1  0.22861242  0.95667442  0.12564995  1
  Mn  Mn4  1  0.29572658  0.45001060  0.60852762  1
  Mn  Mn5  1  0.68633792  0.45441232  0.36292588  1
  Mn  Mn6  1  0.99886676  0.97615680  0.00583595  1
  Mn  Mn7  1  0.78992079  0.01027639  0.61456784  1
  Mn  Mn8  1  0.20130432  0.02987365  0.37297171  1
  Mn  Mn9  1  0.48107763  0.47374619  0.97784750  1
  Sb  Sb10  1  0.89310664  0.96839629  0.45047434  1
  Sb  Sb11  1  0.11415936  0.97704789  0.54909193  1
  Sb  Sb12  1  0.03979829  0.51345735  0.82974574  1
  Sb  Sb13  1  0.96794889  0.48344694  0.19284629  1
  Sb  Sb14  1  0.39888839  0.49375475  0.45315552  1
  Sb  Sb15  1  0.61333256  0.48553293  0.54811630  1
  Sb  Sb16  1  0.53033446  0.97125722  0.80658631  1
  Sb  Sb17  1  0.46582153  0.03147403  0.18392535  1
  S  S18  1  0.93383096  0.98174719  0.79803169  1
  S  S19  1  0.06682831  0.98106997  0.20090279  1
  S  S20  1  0.42010567  0.98152351  0.97971734  1
  S  S21  1  0.58286525  0.01342270  0.00421985  1
  S  S22  1  0.16214999  0.02473463  0.89666944  1
  S  S23  1  0.83088538  0.98103374  0.10776347  1
  S  S24  1  0.09186385  0.49162407  0.63887484  1
  S  S25  1  0.91529206  0.50604857  0.35742144  1
  S  S26  1  0.73408129  0.99357268  0.29806462  1
  S  S27  1  0.26375073  0.01929507  0.70191100  1
  S  S28  1  0.17172772  0.51749810  0.44366324  1
  S  S29  1  0.80776130  0.54096942  0.53828342  1
  S  S30  1  0.43065313  0.47778790  0.79208615  1
  S  S31  1  0.55466935  0.48961663  0.17449359  1
  S  S32  1  0.91668988  0.52720651  0.98564198  1
  S  S33  1  0.08393063  0.48426946  0.02346351  1
  S  S34  1  0.66603286  0.55655492  0.88632595  1
  S  S35  1  0.32995845  0.45609622  0.10108670  1
  S  S36  1  0.58973512  0.97818142  0.64252032  1
  S  S37  1  0.39451056  0.99724117  0.33403686  1
  S  S38  1  0.24273871  0.47957993  0.31276273  1
  S  S39  1  0.76169123  0.48080124  0.69303401  1
  S  S40  1  0.65914973  0.99768967  0.43634002  1
  S  S41  1  0.32929558  0.96537500  0.55579537  1
