# generated using pymatgen
data_Pr2Mn3(SbS3)4
_symmetry_space_group_name_H-M   'P 1'
_cell_length_a   20.02960800
_cell_length_b   3.90410600
_cell_length_c   14.95364829
_cell_angle_alpha   90.00000000
_cell_angle_beta   126.33350609
_cell_angle_gamma   90.00000000
_symmetry_Int_Tables_number   1
_chemical_formula_structural   Pr2Mn3(SbS3)4
_chemical_formula_sum   'Pr4 Mn6 Sb8 S24'
_cell_volume   942.00006694
_cell_formula_units_Z   2
loop_
 _symmetry_equiv_pos_site_id
 _symmetry_equiv_pos_as_xyz
  1  'x, y, z'
loop_
 _atom_site_type_symbol
 _atom_site_label
 _atom_site_symmetry_multiplicity
 _atom_site_fract_x
 _atom_site_fract_y
 _atom_site_fract_z
 _atom_site_occupancy
  Pr  Pr0  1  0.26552274  0.44712149  0.86482378  1
  Pr  Pr1  1  0.74327304  0.51759161  0.15322644  1
  Pr  Pr2  1  0.77339595  0.97644965  0.87839010  1
  Pr  Pr3  1  0.23689944  0.01844236  0.13911973  1
  Mn  Mn4  1  0.27436189  0.57001810  0.58309056  1
  Mn  Mn5  1  0.71489778  0.50309176  0.38904967  1
  Mn  Mn6  1  0.00682938  0.97387349  0.00615603  1
  Mn  Mn7  1  0.79091260  0.92386848  0.61200387  1
  Mn  Mn8  1  0.18506389  0.95380095  0.41525091  1
  Mn  Mn9  1  0.53802944  0.48297205  0.03872559  1
  Sb  Sb10  1  0.90779494  0.03314120  0.47021830  1
  Sb  Sb11  1  0.11354752  0.92839743  0.55715465  1
  Sb  Sb12  1  0.02086449  0.48729027  0.80462612  1
  Sb  Sb13  1  0.97520556  0.51891356  0.20177656  1
  Sb  Sb14  1  0.38183467  0.52290116  0.44916114  1
  Sb  Sb15  1  0.60992034  0.48705408  0.54083416  1
  Sb  Sb16  1  0.53883457  0.96121223  0.81858794  1
  Sb  Sb17  1  0.45662565  0.05446639  0.17761213  1
  S  S18  1  0.94335024  0.97874995  0.81489952  1
  S  S19  1  0.06391951  0.96719254  0.20051364  1
  S  S20  1  0.43030878  0.03476457  0.99221748  1
  S  S21  1  0.60508139  0.97436551  0.04011019  1
  S  S22  1  0.17609333  0.03667630  0.90844761  1
  S  S23  1  0.83048222  0.01656336  0.11508939  1
  S  S24  1  0.10919600  0.50447269  0.67277983  1
  S  S25  1  0.91903033  0.51124197  0.36871513  1
  S  S26  1  0.75512705  0.95531183  0.32954793  1
  S  S27  1  0.25847434  0.99145039  0.68470352  1
  S  S28  1  0.13995381  0.46152323  0.43785277  1
  S  S29  1  0.83973755  0.43097469  0.56781823  1
  S  S30  1  0.46700375  0.48831996  0.85066558  1
  S  S31  1  0.57823709  0.55834660  0.21747291  1
  S  S32  1  0.92120940  0.44532021  0.99262339  1
  S  S33  1  0.08010162  0.50551864  0.00825099  1
  S  S34  1  0.68699311  0.51493443  0.91814097  1
  S  S35  1  0.33807463  0.51463042  0.08890146  1
  S  S36  1  0.58471274  0.99990079  0.63705294  1
  S  S37  1  0.40208069  0.99805970  0.34019127  1
  S  S38  1  0.24269571  0.53351273  0.28532277  1
  S  S39  1  0.76309081  0.48259628  0.67817009  1
  S  S40  1  0.67161612  0.06762641  0.43458806  1
  S  S41  1  0.32201947  0.00918112  0.54785673  1
