# generated using pymatgen
data_Pr2Mn3(SbS3)4
_symmetry_space_group_name_H-M   'P 1'
_cell_length_a   20.02960800
_cell_length_b   3.90410600
_cell_length_c   14.95364829
_cell_angle_alpha   90.00000000
_cell_angle_beta   126.33350609
_cell_angle_gamma   90.00000000
_symmetry_Int_Tables_number   1
_chemical_formula_structural   Pr2Mn3(SbS3)4
_chemical_formula_sum   'Pr4 Mn6 Sb8 S24'
_cell_volume   942.00006694
_cell_formula_units_Z   2
loop_
 _symmetry_equiv_pos_site_id
 _symmetry_equiv_pos_as_xyz
  1  'x, y, z'
loop_
 _atom_site_type_symbol
 _atom_site_label
 _atom_site_symmetry_multiplicity
 _atom_site_fract_x
 _atom_site_fract_y
 _atom_site_fract_z
 _atom_site_occupancy
  Pr  Pr0  1  0.26561934  0.44718100  0.86481835  1
  Pr  Pr1  1  0.74322816  0.51779664  0.15328005  1
  Pr  Pr2  1  0.77334367  0.97707513  0.87836147  1
  Pr  Pr3  1  0.23686446  0.01799807  0.13905991  1
  Mn  Mn4  1  0.27421449  0.56966054  0.58316633  1
  Mn  Mn5  1  0.71443062  0.50348952  0.38877123  1
  Mn  Mn6  1  0.00698596  0.97461569  0.00634129  1
  Mn  Mn7  1  0.79084023  0.92344585  0.61186825  1
  Mn  Mn8  1  0.18484650  0.95322624  0.41504567  1
  Mn  Mn9  1  0.53822456  0.48267210  0.03902939  1
  Sb  Sb10  1  0.90760769  0.03293785  0.47004617  1
  Sb  Sb11  1  0.11353957  0.92828605  0.55723880  1
  Sb  Sb12  1  0.02102743  0.48711723  0.80486246  1
  Sb  Sb13  1  0.97537029  0.51841863  0.20217371  1
  Sb  Sb14  1  0.38169216  0.52282353  0.44926995  1
  Sb  Sb15  1  0.60987486  0.48733117  0.54093616  1
  Sb  Sb16  1  0.53881817  0.96126729  0.81873175  1
  Sb  Sb17  1  0.45670472  0.05429508  0.17776189  1
  S  S18  1  0.94356439  0.97792824  0.81553551  1
  S  S19  1  0.06383045  0.96788384  0.20054788  1
  S  S20  1  0.43047486  0.03695066  0.99215745  1
  S  S21  1  0.60470424  0.97444187  0.03999133  1
  S  S22  1  0.17622662  0.03681188  0.90836911  1
  S  S23  1  0.83045101  0.01582428  0.11494401  1
  S  S24  1  0.10941326  0.50434144  0.67276928  1
  S  S25  1  0.91924694  0.50957705  0.36877593  1
  S  S26  1  0.75490270  0.95668900  0.32985959  1
  S  S27  1  0.25893463  0.99008313  0.68506444  1
  S  S28  1  0.14019421  0.46029662  0.43824361  1
  S  S29  1  0.83954361  0.43026991  0.56745261  1
  S  S30  1  0.46707399  0.48872437  0.85088081  1
  S  S31  1  0.57779611  0.55827573  0.21723337  1
  S  S32  1  0.92136531  0.44566626  0.99248233  1
  S  S33  1  0.08037906  0.50589331  0.00854169  1
  S  S34  1  0.68699409  0.51447142  0.91849464  1
  S  S35  1  0.33842617  0.51427255  0.08886417  1
  S  S36  1  0.58474418  0.00000608  0.63679350  1
  S  S37  1  0.40194749  0.99902750  0.34045724  1
  S  S38  1  0.24260479  0.53273919  0.28554803  1
  S  S39  1  0.76323353  0.48333581  0.67842432  1
  S  S40  1  0.67150060  0.06613470  0.43477665  1
  S  S41  1  0.32175644  0.00920671  0.54752876  1
