# generated using pymatgen
data_Pr2Mn3(SbS3)4
_symmetry_space_group_name_H-M   'P 1'
_cell_length_a   20.02960800
_cell_length_b   3.90410600
_cell_length_c   14.95364829
_cell_angle_alpha   90.00000000
_cell_angle_beta   126.33350609
_cell_angle_gamma   90.00000000
_symmetry_Int_Tables_number   1
_chemical_formula_structural   Pr2Mn3(SbS3)4
_chemical_formula_sum   'Pr4 Mn6 Sb8 S24'
_cell_volume   942.00006694
_cell_formula_units_Z   2
loop_
 _symmetry_equiv_pos_site_id
 _symmetry_equiv_pos_as_xyz
  1  'x, y, z'
loop_
 _atom_site_type_symbol
 _atom_site_label
 _atom_site_symmetry_multiplicity
 _atom_site_fract_x
 _atom_site_fract_y
 _atom_site_fract_z
 _atom_site_occupancy
  Pr  Pr0  1  0.26577805  0.44738998  0.86485944  1
  Pr  Pr1  1  0.74325555  0.51767647  0.15343553  1
  Pr  Pr2  1  0.77329098  0.97748234  0.87831398  1
  Pr  Pr3  1  0.23683494  0.01742944  0.13905264  1
  Mn  Mn4  1  0.27406145  0.56877582  0.58306627  1
  Mn  Mn5  1  0.71391427  0.50373778  0.38838913  1
  Mn  Mn6  1  0.00712343  0.97563619  0.00656058  1
  Mn  Mn7  1  0.79081764  0.92298497  0.61175622  1
  Mn  Mn8  1  0.18453395  0.95236070  0.41478965  1
  Mn  Mn9  1  0.53850885  0.48277946  0.03954958  1
  Sb  Sb10  1  0.90751768  0.03340077  0.46997143  1
  Sb  Sb11  1  0.11357856  0.92797003  0.55736791  1
  Sb  Sb12  1  0.02111936  0.48680045  0.80506360  1
  Sb  Sb13  1  0.97546211  0.51784561  0.20248107  1
  Sb  Sb14  1  0.38154193  0.52273730  0.44939209  1
  Sb  Sb15  1  0.60975456  0.48768927  0.54093721  1
  Sb  Sb16  1  0.53872577  0.96093117  0.81882645  1
  Sb  Sb17  1  0.45672834  0.05427661  0.17777454  1
  S  S18  1  0.94375637  0.97728208  0.81617506  1
  S  S19  1  0.06380249  0.96765206  0.20061477  1
  S  S20  1  0.43060960  0.03911052  0.99209096  1
  S  S21  1  0.60436378  0.97442094  0.03975742  1
  S  S22  1  0.17636012  0.03684233  0.90821823  1
  S  S23  1  0.83042558  0.01508861  0.11472559  1
  S  S24  1  0.10965637  0.50406312  0.67272980  1
  S  S25  1  0.91940577  0.50827914  0.36874777  1
  S  S26  1  0.75461818  0.95772419  0.33013381  1
  S  S27  1  0.25945077  0.98904433  0.68526368  1
  S  S28  1  0.14059263  0.45969424  0.43887286  1
  S  S29  1  0.83951915  0.42991486  0.56736153  1
  S  S30  1  0.46721571  0.48828429  0.85107339  1
  S  S31  1  0.57732409  0.55843002  0.21674550  1
  S  S32  1  0.92137719  0.44591402  0.99220884  1
  S  S33  1  0.08059384  0.50570223  0.00904385  1
  S  S34  1  0.68708342  0.51402168  0.91885819  1
  S  S35  1  0.33876875  0.51383975  0.08884787  1
  S  S36  1  0.58477338  0.99989347  0.63649678  1
  S  S37  1  0.40170451  0.00016825  0.34071097  1
  S  S38  1  0.24248675  0.53175616  0.28581240  1
  S  S39  1  0.76342148  0.48433103  0.67884767  1
  S  S40  1  0.67133163  0.06419094  0.43511825  1
  S  S41  1  0.32152628  0.00922886  0.54722426  1
