# generated using pymatgen
data_Pr2Mn3(SbS3)4
_symmetry_space_group_name_H-M   'P 1'
_cell_length_a   20.02960800
_cell_length_b   3.90410600
_cell_length_c   14.95364829
_cell_angle_alpha   90.00000000
_cell_angle_beta   126.33350609
_cell_angle_gamma   90.00000000
_symmetry_Int_Tables_number   1
_chemical_formula_structural   Pr2Mn3(SbS3)4
_chemical_formula_sum   'Pr4 Mn6 Sb8 S24'
_cell_volume   942.00006694
_cell_formula_units_Z   2
loop_
 _symmetry_equiv_pos_site_id
 _symmetry_equiv_pos_as_xyz
  1  'x, y, z'
loop_
 _atom_site_type_symbol
 _atom_site_label
 _atom_site_symmetry_multiplicity
 _atom_site_fract_x
 _atom_site_fract_y
 _atom_site_fract_z
 _atom_site_occupancy
  Pr  Pr0  1  0.26587828  0.44748770  0.86488913  1
  Pr  Pr1  1  0.74326697  0.51714541  0.15362550  1
  Pr  Pr2  1  0.77328467  0.97807734  0.87826394  1
  Pr  Pr3  1  0.23686349  0.01692709  0.13904968  1
  Mn  Mn4  1  0.27401348  0.56772486  0.58301811  1
  Mn  Mn5  1  0.71350556  0.50429819  0.38802027  1
  Mn  Mn6  1  0.00739372  0.97601682  0.00680795  1
  Mn  Mn7  1  0.79078991  0.92271240  0.61149748  1
  Mn  Mn8  1  0.18411960  0.95192084  0.41454298  1
  Mn  Mn9  1  0.53860000  0.48323185  0.03979968  1
  Sb  Sb10  1  0.90748134  0.03355474  0.46995343  1
  Sb  Sb11  1  0.11363331  0.92784262  0.55754242  1
  Sb  Sb12  1  0.02119395  0.48647479  0.80533961  1
  Sb  Sb13  1  0.97554264  0.51705345  0.20274564  1
  Sb  Sb14  1  0.38143507  0.52275522  0.44948805  1
  Sb  Sb15  1  0.60957203  0.48805399  0.54090765  1
  Sb  Sb16  1  0.53861182  0.96045585  0.81883120  1
  Sb  Sb17  1  0.45666919  0.05447983  0.17768564  1
  S  S18  1  0.94394254  0.97705886  0.81681883  1
  S  S19  1  0.06375166  0.96698083  0.20071263  1
  S  S20  1  0.43077066  0.04095054  0.99203771  1
  S  S21  1  0.60411755  0.97379319  0.03961897  1
  S  S22  1  0.17614311  0.03647911  0.90800577  1
  S  S23  1  0.83046775  0.01411183  0.11447674  1
  S  S24  1  0.10994156  0.50438642  0.67278730  1
  S  S25  1  0.91942313  0.50744658  0.36860167  1
  S  S26  1  0.75427993  0.95904008  0.33015218  1
  S  S27  1  0.25990689  0.98854619  0.68559537  1
  S  S28  1  0.14108402  0.45859930  0.43952545  1
  S  S29  1  0.83953042  0.42923157  0.56735642  1
  S  S30  1  0.46731400  0.48794363  0.85117302  1
  S  S31  1  0.57696023  0.55889117  0.21619022  1
  S  S32  1  0.92148576  0.44600158  0.99198695  1
  S  S33  1  0.08086787  0.50531740  0.00966850  1
  S  S34  1  0.68716386  0.51333449  0.91913010  1
  S  S35  1  0.33916332  0.51322924  0.08899733  1
  S  S36  1  0.58484696  0.99989676  0.63610199  1
  S  S37  1  0.40145926  0.00109172  0.34090996  1
  S  S38  1  0.24237441  0.53023125  0.28607072  1
  S  S39  1  0.76340563  0.48541999  0.67905669  1
  S  S40  1  0.67127277  0.06214342  0.43554606  1
  S  S41  1  0.32135741  0.00929483  0.54691329  1
