# generated using pymatgen
data_Pr2Mn3(SbS3)4
_symmetry_space_group_name_H-M   'P 1'
_cell_length_a   20.02960800
_cell_length_b   3.90410600
_cell_length_c   14.95364829
_cell_angle_alpha   90.00000000
_cell_angle_beta   126.33350609
_cell_angle_gamma   90.00000000
_symmetry_Int_Tables_number   1
_chemical_formula_structural   Pr2Mn3(SbS3)4
_chemical_formula_sum   'Pr4 Mn6 Sb8 S24'
_cell_volume   942.00006694
_cell_formula_units_Z   2
loop_
 _symmetry_equiv_pos_site_id
 _symmetry_equiv_pos_as_xyz
  1  'x, y, z'
loop_
 _atom_site_type_symbol
 _atom_site_label
 _atom_site_symmetry_multiplicity
 _atom_site_fract_x
 _atom_site_fract_y
 _atom_site_fract_z
 _atom_site_occupancy
  Pr  Pr0  1  0.26596222  0.44745094  0.86488412  1
  Pr  Pr1  1  0.74324407  0.51659306  0.15381090  1
  Pr  Pr2  1  0.77330110  0.97856128  0.87823997  1
  Pr  Pr3  1  0.23694443  0.01646196  0.13913407  1
  Mn  Mn4  1  0.27403885  0.56662286  0.58300597  1
  Mn  Mn5  1  0.71329629  0.50491621  0.38801514  1
  Mn  Mn6  1  0.00767227  0.97700343  0.00702397  1
  Mn  Mn7  1  0.79079545  0.92304450  0.61125203  1
  Mn  Mn8  1  0.18377690  0.95121323  0.41434251  1
  Mn  Mn9  1  0.53862008  0.48332486  0.04003980  1
  Sb  Sb10  1  0.90739095  0.03383809  0.46992603  1
  Sb  Sb11  1  0.11367571  0.92811365  0.55762872  1
  Sb  Sb12  1  0.02120164  0.48628709  0.80546513  1
  Sb  Sb13  1  0.97568892  0.51621081  0.20305134  1
  Sb  Sb14  1  0.38136807  0.52248497  0.44959596  1
  Sb  Sb15  1  0.60939530  0.48848440  0.54085408  1
  Sb  Sb16  1  0.53849208  0.96005798  0.81874369  1
  Sb  Sb17  1  0.45658827  0.05472199  0.17750807  1
  S  S18  1  0.94422376  0.97725997  0.81752072  1
  S  S19  1  0.06370660  0.96668904  0.20097002  1
  S  S20  1  0.43091753  0.04230604  0.99206863  1
  S  S21  1  0.60388421  0.97381043  0.03958627  1
  S  S22  1  0.17588218  0.03616967  0.90775998  1
  S  S23  1  0.83053015  0.01294390  0.11412895  1
  S  S24  1  0.11025906  0.50508470  0.67277128  1
  S  S25  1  0.91945160  0.50594777  0.36857297  1
  S  S26  1  0.75379970  0.96059859  0.32995228  1
  S  S27  1  0.26033334  0.98839672  0.68591174  1
  S  S28  1  0.14149833  0.45713538  0.43988859  1
  S  S29  1  0.83976639  0.42826728  0.56748446  1
  S  S30  1  0.46748744  0.48731812  0.85115671  1
  S  S31  1  0.57663895  0.55863931  0.21574404  1
  S  S32  1  0.92158598  0.44608941  0.99183299  1
  S  S33  1  0.08111526  0.50515462  0.01014846  1
  S  S34  1  0.68711218  0.51256610  0.91921182  1
  S  S35  1  0.33952711  0.51228773  0.08915285  1
  S  S36  1  0.58486714  0.00013842  0.63571888  1
  S  S37  1  0.40129788  0.00170823  0.34109122  1
  S  S38  1  0.24212338  0.52867693  0.28619918  1
  S  S39  1  0.76352601  0.48562553  0.67932521  1
  S  S40  1  0.67127873  0.06075611  0.43586484  1
  S  S41  1  0.32117854  0.00952142  0.54665267  1
