# generated using pymatgen
data_Pr2Mn3(SbS3)4
_symmetry_space_group_name_H-M   'P 1'
_cell_length_a   20.02960800
_cell_length_b   3.90410600
_cell_length_c   14.95364829
_cell_angle_alpha   90.00000000
_cell_angle_beta   126.33350609
_cell_angle_gamma   90.00000000
_symmetry_Int_Tables_number   1
_chemical_formula_structural   Pr2Mn3(SbS3)4
_chemical_formula_sum   'Pr4 Mn6 Sb8 S24'
_cell_volume   942.00006694
_cell_formula_units_Z   2
loop_
 _symmetry_equiv_pos_site_id
 _symmetry_equiv_pos_as_xyz
  1  'x, y, z'
loop_
 _atom_site_type_symbol
 _atom_site_label
 _atom_site_symmetry_multiplicity
 _atom_site_fract_x
 _atom_site_fract_y
 _atom_site_fract_z
 _atom_site_occupancy
  Pr  Pr0  1  0.26599990  0.44711616  0.86485034  1
  Pr  Pr1  1  0.74324250  0.51623038  0.15412427  1
  Pr  Pr2  1  0.77329463  0.97898809  0.87817943  1
  Pr  Pr3  1  0.23701171  0.01564146  0.13921441  1
  Mn  Mn4  1  0.27412432  0.56532644  0.58302566  1
  Mn  Mn5  1  0.71330260  0.50551883  0.38823724  1
  Mn  Mn6  1  0.00794399  0.97804711  0.00724916  1
  Mn  Mn7  1  0.79067563  0.92372371  0.61089602  1
  Mn  Mn8  1  0.18348591  0.95101040  0.41410959  1
  Mn  Mn9  1  0.53854737  0.48329323  0.04025498  1
  Sb  Sb10  1  0.90724479  0.03417497  0.46989116  1
  Sb  Sb11  1  0.11370787  0.92836329  0.55765076  1
  Sb  Sb12  1  0.02114980  0.48619488  0.80557888  1
  Sb  Sb13  1  0.97579501  0.51544656  0.20338737  1
  Sb  Sb14  1  0.38125092  0.52210623  0.44962703  1
  Sb  Sb15  1  0.60918760  0.48921798  0.54075276  1
  Sb  Sb16  1  0.53835910  0.95973984  0.81871266  1
  Sb  Sb17  1  0.45651464  0.05506568  0.17729382  1
  S  S18  1  0.94437748  0.97667591  0.81821572  1
  S  S19  1  0.06362219  0.96674798  0.20105075  1
  S  S20  1  0.43118857  0.04350112  0.99224045  1
  S  S21  1  0.60375212  0.97360131  0.03944138  1
  S  S22  1  0.17571344  0.03616608  0.90757670  1
  S  S23  1  0.83071645  0.01142120  0.11416870  1
  S  S24  1  0.11057231  0.50552385  0.67267701  1
  S  S25  1  0.91945620  0.50472383  0.36848344  1
  S  S26  1  0.75327920  0.96239350  0.32952460  1
  S  S27  1  0.26074692  0.98815867  0.68613951  1
  S  S28  1  0.14189517  0.45592655  0.44043104  1
  S  S29  1  0.83986696  0.42744697  0.56753709  1
  S  S30  1  0.46763063  0.48652461  0.85119838  1
  S  S31  1  0.57633055  0.55806877  0.21532036  1
  S  S32  1  0.92170805  0.44586100  0.99169764  1
  S  S33  1  0.08144558  0.50528369  0.01050565  1
  S  S34  1  0.68715474  0.51199931  0.91953123  1
  S  S35  1  0.33983770  0.51179078  0.08939870  1
  S  S36  1  0.58493319  0.00062342  0.63537585  1
  S  S37  1  0.40109024  0.00250253  0.34124047  1
  S  S38  1  0.24203438  0.52721199  0.28644765  1
  S  S39  1  0.76355401  0.48501833  0.67944442  1
  S  S40  1  0.67117465  0.05930856  0.43622399  1
  S  S41  1  0.32097053  0.00938456  0.54651092  1
