# generated using pymatgen
data_Pr2Mn3(SbS3)4
_symmetry_space_group_name_H-M   'P 1'
_cell_length_a   20.02960800
_cell_length_b   3.90410600
_cell_length_c   14.95364829
_cell_angle_alpha   90.00000000
_cell_angle_beta   126.33350609
_cell_angle_gamma   90.00000000
_symmetry_Int_Tables_number   1
_chemical_formula_structural   Pr2Mn3(SbS3)4
_chemical_formula_sum   'Pr4 Mn6 Sb8 S24'
_cell_volume   942.00006694
_cell_formula_units_Z   2
loop_
 _symmetry_equiv_pos_site_id
 _symmetry_equiv_pos_as_xyz
  1  'x, y, z'
loop_
 _atom_site_type_symbol
 _atom_site_label
 _atom_site_symmetry_multiplicity
 _atom_site_fract_x
 _atom_site_fract_y
 _atom_site_fract_z
 _atom_site_occupancy
  Pr  Pr0  1  0.26601465  0.44678337  0.86484365  1
  Pr  Pr1  1  0.74320746  0.51584768  0.15445299  1
  Pr  Pr2  1  0.77332153  0.97962218  0.87811026  1
  Pr  Pr3  1  0.23709681  0.01500959  0.13933413  1
  Mn  Mn4  1  0.27417725  0.56383846  0.58305758  1
  Mn  Mn5  1  0.71321630  0.50582559  0.38835979  1
  Mn  Mn6  1  0.00815857  0.97922967  0.00759055  1
  Mn  Mn7  1  0.79056256  0.92457427  0.61054208  1
  Mn  Mn8  1  0.18322976  0.95089581  0.41384271  1
  Mn  Mn9  1  0.53848159  0.48381186  0.04040254  1
  Sb  Sb10  1  0.90713219  0.03451210  0.46991201  1
  Sb  Sb11  1  0.11369105  0.92824815  0.55763803  1
  Sb  Sb12  1  0.02114716  0.48639678  0.80568964  1
  Sb  Sb13  1  0.97600507  0.51477774  0.20379300  1
  Sb  Sb14  1  0.38116087  0.52164905  0.44969305  1
  Sb  Sb15  1  0.60907455  0.48991766  0.54072122  1
  Sb  Sb16  1  0.53818408  0.95966477  0.81864658  1
  Sb  Sb17  1  0.45644029  0.05547577  0.17712725  1
  S  S18  1  0.94455683  0.97576786  0.81878881  1
  S  S19  1  0.06372403  0.96725964  0.20133267  1
  S  S20  1  0.43139254  0.04492419  0.99229304  1
  S  S21  1  0.60350528  0.97398472  0.03921243  1
  S  S22  1  0.17556773  0.03582305  0.90741637  1
  S  S23  1  0.83084899  0.00999071  0.11429960  1
  S  S24  1  0.11102572  0.50545666  0.67271240  1
  S  S25  1  0.91937280  0.50333358  0.36829421  1
  S  S26  1  0.75275995  0.96428746  0.32912997  1
  S  S27  1  0.26116924  0.98857102  0.68632818  1
  S  S28  1  0.14235368  0.45500979  0.44107967  1
  S  S29  1  0.83989092  0.42678254  0.56756530  1
  S  S30  1  0.46770212  0.48561286  0.85111079  1
  S  S31  1  0.57612450  0.55778636  0.21510836  1
  S  S32  1  0.92173799  0.44651927  0.99153694  1
  S  S33  1  0.08168412  0.50608426  0.01094512  1
  S  S34  1  0.68715955  0.51164986  0.91978197  1
  S  S35  1  0.34017025  0.51113498  0.08966527  1
  S  S36  1  0.58509053  0.00137538  0.63526029  1
  S  S37  1  0.40079482  0.00288651  0.34132257  1
  S  S38  1  0.24183928  0.52724373  0.28663459  1
  S  S39  1  0.76358103  0.48439531  0.67968590  1
  S  S40  1  0.67113792  0.05809283  0.43667782  1
  S  S41  1  0.32081290  0.00980642  0.54623165  1
