# generated using pymatgen
data_Pr2Mn3(SbS3)4
_symmetry_space_group_name_H-M   'P 1'
_cell_length_a   20.02960800
_cell_length_b   3.90410600
_cell_length_c   14.95364829
_cell_angle_alpha   90.00000000
_cell_angle_beta   126.33350609
_cell_angle_gamma   90.00000000
_symmetry_Int_Tables_number   1
_chemical_formula_structural   Pr2Mn3(SbS3)4
_chemical_formula_sum   'Pr4 Mn6 Sb8 S24'
_cell_volume   942.00006694
_cell_formula_units_Z   2
loop_
 _symmetry_equiv_pos_site_id
 _symmetry_equiv_pos_as_xyz
  1  'x, y, z'
loop_
 _atom_site_type_symbol
 _atom_site_label
 _atom_site_symmetry_multiplicity
 _atom_site_fract_x
 _atom_site_fract_y
 _atom_site_fract_z
 _atom_site_occupancy
  Pr  Pr0  1  0.26599443  0.44620221  0.86475152  1
  Pr  Pr1  1  0.74312934  0.51538060  0.15476609  1
  Pr  Pr2  1  0.77331119  0.98023787  0.87805344  1
  Pr  Pr3  1  0.23718745  0.01463786  0.13940361  1
  Mn  Mn4  1  0.27417512  0.56238673  0.58311481  1
  Mn  Mn5  1  0.71315861  0.50617862  0.38845742  1
  Mn  Mn6  1  0.00830203  0.98029770  0.00798106  1
  Mn  Mn7  1  0.79042048  0.92491825  0.61025095  1
  Mn  Mn8  1  0.18302309  0.95151309  0.41355234  1
  Mn  Mn9  1  0.53835574  0.48429403  0.04051968  1
  Sb  Sb10  1  0.90705619  0.03460806  0.46998917  1
  Sb  Sb11  1  0.11373206  0.92849726  0.55774688  1
  Sb  Sb12  1  0.02111456  0.48611112  0.80578672  1
  Sb  Sb13  1  0.97618097  0.51409323  0.20419870  1
  Sb  Sb14  1  0.38108984  0.52115304  0.44975734  1
  Sb  Sb15  1  0.60892169  0.49058261  0.54059041  1
  Sb  Sb16  1  0.53806293  0.95964114  0.81867701  1
  Sb  Sb17  1  0.45629262  0.05600824  0.17690412  1
  S  S18  1  0.94474806  0.97595418  0.81942578  1
  S  S19  1  0.06385303  0.96721167  0.20147563  1
  S  S20  1  0.43165135  0.04641942  0.99242800  1
  S  S21  1  0.60331284  0.97427197  0.03894374  1
  S  S22  1  0.17538199  0.03532875  0.90730155  1
  S  S23  1  0.83102978  0.00871886  0.11424304  1
  S  S24  1  0.11143772  0.50581344  0.67269497  1
  S  S25  1  0.91926307  0.50236822  0.36814106  1
  S  S26  1  0.75235207  0.96524099  0.32894546  1
  S  S27  1  0.26163886  0.98879513  0.68659616  1
  S  S28  1  0.14281094  0.45463003  0.44165654  1
  S  S29  1  0.83996004  0.42596018  0.56747174  1
  S  S30  1  0.46772962  0.48386647  0.85099911  1
  S  S31  1  0.57588593  0.55833827  0.21481057  1
  S  S32  1  0.92184228  0.44697386  0.99136506  1
  S  S33  1  0.08198555  0.50664874  0.01130320  1
  S  S34  1  0.68722042  0.51193265  0.91997545  1
  S  S35  1  0.34046761  0.51061402  0.08989314  1
  S  S36  1  0.58524478  0.00148695  0.63540649  1
  S  S37  1  0.40048854  0.00385956  0.34133342  1
  S  S38  1  0.24183197  0.52686175  0.28702051  1
  S  S39  1  0.76344981  0.48309333  0.67978673  1
  S  S40  1  0.67130313  0.05759425  0.43727004  1
  S  S41  1  0.32063376  0.01030610  0.54584233  1
