# generated using pymatgen
data_Pr2Mn3(SbS3)4
_symmetry_space_group_name_H-M   'P 1'
_cell_length_a   20.02960800
_cell_length_b   3.90410600
_cell_length_c   14.95364829
_cell_angle_alpha   90.00000000
_cell_angle_beta   126.33350609
_cell_angle_gamma   90.00000000
_symmetry_Int_Tables_number   1
_chemical_formula_structural   Pr2Mn3(SbS3)4
_chemical_formula_sum   'Pr4 Mn6 Sb8 S24'
_cell_volume   942.00006694
_cell_formula_units_Z   2
loop_
 _symmetry_equiv_pos_site_id
 _symmetry_equiv_pos_as_xyz
  1  'x, y, z'
loop_
 _atom_site_type_symbol
 _atom_site_label
 _atom_site_symmetry_multiplicity
 _atom_site_fract_x
 _atom_site_fract_y
 _atom_site_fract_z
 _atom_site_occupancy
  Pr  Pr0  1  0.26604442  0.44574741  0.86471617  1
  Pr  Pr1  1  0.74304631  0.51465781  0.15500455  1
  Pr  Pr2  1  0.77334278  0.98089725  0.87804458  1
  Pr  Pr3  1  0.23726707  0.01403196  0.13948794  1
  Mn  Mn4  1  0.27418042  0.56073174  0.58322128  1
  Mn  Mn5  1  0.71303963  0.50664068  0.38839043  1
  Mn  Mn6  1  0.00839570  0.98139028  0.00828852  1
  Mn  Mn7  1  0.79022823  0.92493909  0.60994063  1
  Mn  Mn8  1  0.18287086  0.95155510  0.41330668  1
  Mn  Mn9  1  0.53823146  0.48489865  0.04053275  1
  Sb  Sb10  1  0.90691832  0.03462470  0.46999731  1
  Sb  Sb11  1  0.11373830  0.92873583  0.55780440  1
  Sb  Sb12  1  0.02105903  0.48632377  0.80586072  1
  Sb  Sb13  1  0.97629824  0.51366144  0.20444663  1
  Sb  Sb14  1  0.38089066  0.52058774  0.44973684  1
  Sb  Sb15  1  0.60877997  0.49120247  0.54046893  1
  Sb  Sb16  1  0.53797828  0.95940898  0.81869842  1
  Sb  Sb17  1  0.45624536  0.05627097  0.17675792  1
  S  S18  1  0.94493518  0.97554638  0.81997261  1
  S  S19  1  0.06393903  0.96697855  0.20155378  1
  S  S20  1  0.43193021  0.04779158  0.99256599  1
  S  S21  1  0.60301662  0.97494501  0.03864820  1
  S  S22  1  0.17525691  0.03501562  0.90731523  1
  S  S23  1  0.83135512  0.00737246  0.11435511  1
  S  S24  1  0.11186218  0.50612841  0.67278387  1
  S  S25  1  0.91901649  0.50220002  0.36767360  1
  S  S26  1  0.75199507  0.96621636  0.32895137  1
  S  S27  1  0.26218866  0.98845258  0.68680598  1
  S  S28  1  0.14321953  0.45421272  0.44219554  1
  S  S29  1  0.84002325  0.42508431  0.56741418  1
  S  S30  1  0.46781168  0.48210602  0.85084099  1
  S  S31  1  0.57572073  0.55854088  0.21446839  1
  S  S32  1  0.92188364  0.44694681  0.99105580  1
  S  S33  1  0.08219125  0.50763443  0.01150445  1
  S  S34  1  0.68713456  0.51238197  0.92000641  1
  S  S35  1  0.34050338  0.50941297  0.08992838  1
  S  S36  1  0.58540428  0.00228220  0.63552078  1
  S  S37  1  0.40028682  0.00438253  0.34141374  1
  S  S38  1  0.24178553  0.52603345  0.28731997  1
  S  S39  1  0.76325819  0.48171590  0.67972614  1
  S  S40  1  0.67148392  0.05717109  0.43800433  1
  S  S41  1  0.32039009  0.01090012  0.54537028  1
