# generated using pymatgen
data_Pr2Mn3(SbS3)4
_symmetry_space_group_name_H-M   'P 1'
_cell_length_a   20.02960800
_cell_length_b   3.90410600
_cell_length_c   14.95364829
_cell_angle_alpha   90.00000000
_cell_angle_beta   126.33350609
_cell_angle_gamma   90.00000000
_symmetry_Int_Tables_number   1
_chemical_formula_structural   Pr2Mn3(SbS3)4
_chemical_formula_sum   'Pr4 Mn6 Sb8 S24'
_cell_volume   942.00006694
_cell_formula_units_Z   2
loop_
 _symmetry_equiv_pos_site_id
 _symmetry_equiv_pos_as_xyz
  1  'x, y, z'
loop_
 _atom_site_type_symbol
 _atom_site_label
 _atom_site_symmetry_multiplicity
 _atom_site_fract_x
 _atom_site_fract_y
 _atom_site_fract_z
 _atom_site_occupancy
  Pr  Pr0  1  0.26607696  0.44512797  0.86459596  1
  Pr  Pr1  1  0.74299222  0.51384018  0.15526084  1
  Pr  Pr2  1  0.77341211  0.98176231  0.87805138  1
  Pr  Pr3  1  0.23735568  0.01348508  0.13953421  1
  Mn  Mn4  1  0.27416675  0.55922296  0.58340438  1
  Mn  Mn5  1  0.71285316  0.50699150  0.38829652  1
  Mn  Mn6  1  0.00848060  0.98261712  0.00862059  1
  Mn  Mn7  1  0.79012701  0.92482334  0.60973797  1
  Mn  Mn8  1  0.18266894  0.95223807  0.41302542  1
  Mn  Mn9  1  0.53816611  0.48546339  0.04049264  1
  Sb  Sb10  1  0.90673209  0.03453235  0.46997454  1
  Sb  Sb11  1  0.11373543  0.92890951  0.55787805  1
  Sb  Sb12  1  0.02099656  0.48665158  0.80596317  1
  Sb  Sb13  1  0.97637061  0.51312504  0.20462723  1
  Sb  Sb14  1  0.38072742  0.52007975  0.44969533  1
  Sb  Sb15  1  0.60858070  0.49227402  0.54030996  1
  Sb  Sb16  1  0.53796925  0.95916518  0.81886258  1
  Sb  Sb17  1  0.45621239  0.05642073  0.17659114  1
  S  S18  1  0.94511117  0.97487913  0.82051887  1
  S  S19  1  0.06402102  0.96657878  0.20170149  1
  S  S20  1  0.43194113  0.04921275  0.99236804  1
  S  S21  1  0.60274571  0.97526313  0.03830267  1
  S  S22  1  0.17513760  0.03427923  0.90706758  1
  S  S23  1  0.83171717  0.00554115  0.11456258  1
  S  S24  1  0.11224830  0.50570995  0.67277859  1
  S  S25  1  0.91894191  0.50164260  0.36752255  1
  S  S26  1  0.75168891  0.96762756  0.32886212  1
  S  S27  1  0.26259393  0.98725569  0.68707906  1
  S  S28  1  0.14349585  0.45425894  0.44236794  1
  S  S29  1  0.84010475  0.42445763  0.56734636  1
  S  S30  1  0.46771218  0.48125644  0.85070125  1
  S  S31  1  0.57563161  0.55797977  0.21395123  1
  S  S32  1  0.92211202  0.44681599  0.99102687  1
  S  S33  1  0.08244842  0.50836686  0.01169450  1
  S  S34  1  0.68691485  0.51294422  0.91997236  1
  S  S35  1  0.34053082  0.50868487  0.08996327  1
  S  S36  1  0.58568859  0.00270080  0.63580879  1
  S  S37  1  0.40023561  0.00454219  0.34157936  1
  S  S38  1  0.24175383  0.52527885  0.28768326  1
  S  S39  1  0.76304882  0.48065043  0.67983394  1
  S  S40  1  0.67159845  0.05663268  0.43877800  1
  S  S41  1  0.32009196  0.01083066  0.54466785  1
