# generated using pymatgen
data_Pr2Mn3(SbS3)4
_symmetry_space_group_name_H-M   'P 1'
_cell_length_a   20.02960800
_cell_length_b   3.90410600
_cell_length_c   14.95364829
_cell_angle_alpha   90.00000000
_cell_angle_beta   126.33350609
_cell_angle_gamma   90.00000000
_symmetry_Int_Tables_number   1
_chemical_formula_structural   Pr2Mn3(SbS3)4
_chemical_formula_sum   'Pr4 Mn6 Sb8 S24'
_cell_volume   942.00006694
_cell_formula_units_Z   2
loop_
 _symmetry_equiv_pos_site_id
 _symmetry_equiv_pos_as_xyz
  1  'x, y, z'
loop_
 _atom_site_type_symbol
 _atom_site_label
 _atom_site_symmetry_multiplicity
 _atom_site_fract_x
 _atom_site_fract_y
 _atom_site_fract_z
 _atom_site_occupancy
  Pr  Pr0  1  0.26929066  0.50723676  0.87561323  1
  Pr  Pr1  1  0.73255726  0.52064531  0.13219721  1
  Pr  Pr2  1  0.76436724  0.02991704  0.87164502  1
  Pr  Pr3  1  0.22859850  0.95668488  0.12556188  1
  Mn  Mn4  1  0.29562292  0.45002955  0.60850193  1
  Mn  Mn5  1  0.68639921  0.45365101  0.36277852  1
  Mn  Mn6  1  0.99887568  0.97594091  0.00580201  1
  Mn  Mn7  1  0.79000401  0.00909429  0.61486154  1
  Mn  Mn8  1  0.20141758  0.02921854  0.37297242  1
  Mn  Mn9  1  0.48128402  0.47352052  0.97804338  1
  Sb  Sb10  1  0.89320859  0.96786222  0.45062113  1
  Sb  Sb11  1  0.11421130  0.97753144  0.54924182  1
  Sb  Sb12  1  0.03989782  0.51285845  0.82998623  1
  Sb  Sb13  1  0.96791759  0.48357700  0.19271082  1
  Sb  Sb14  1  0.39891384  0.49360862  0.45301783  1
  Sb  Sb15  1  0.61336779  0.48561910  0.54808858  1
  Sb  Sb16  1  0.53040247  0.97177152  0.80653038  1
  Sb  Sb17  1  0.46591211  0.03154616  0.18397354  1
  S  S18  1  0.93342368  0.98008829  0.79757778  1
  S  S19  1  0.06690409  0.98155101  0.20068105  1
  S  S20  1  0.42009660  0.98245306  0.98005649  1
  S  S21  1  0.58263101  0.01303211  0.00360306  1
  S  S22  1  0.16231962  0.02451467  0.89685652  1
  S  S23  1  0.83096560  0.98139611  0.10827143  1
  S  S24  1  0.09193477  0.49076727  0.63888817  1
  S  S25  1  0.91523361  0.50703489  0.35737822  1
  S  S26  1  0.73385624  0.99434311  0.29803541  1
  S  S27  1  0.26354266  0.01933758  0.70156993  1
  S  S28  1  0.17170436  0.51698162  0.44356210  1
  S  S29  1  0.80791186  0.54216551  0.53812296  1
  S  S30  1  0.43044041  0.47779738  0.79201347  1
  S  S31  1  0.55482256  0.48985360  0.17454040  1
  S  S32  1  0.91628091  0.52744645  0.98527296  1
  S  S33  1  0.08404684  0.48280402  0.02345525  1
  S  S34  1  0.66577150  0.55694137  0.88601128  1
  S  S35  1  0.33000500  0.45573184  0.10116844  1
  S  S36  1  0.58987492  0.97757282  0.64271922  1
  S  S37  1  0.39464858  0.99682340  0.33449448  1
  S  S38  1  0.24263361  0.47986004  0.31262059  1
  S  S39  1  0.76157022  0.48144143  0.69277589  1
  S  S40  1  0.65931784  0.99840755  0.43652345  1
  S  S41  1  0.32915435  0.96464660  0.55585487  1
