# generated using pymatgen
data_Pr2Mn3(SbS3)4
_symmetry_space_group_name_H-M   'P 1'
_cell_length_a   20.02960800
_cell_length_b   3.90410600
_cell_length_c   14.95364829
_cell_angle_alpha   90.00000000
_cell_angle_beta   126.33350609
_cell_angle_gamma   90.00000000
_symmetry_Int_Tables_number   1
_chemical_formula_structural   Pr2Mn3(SbS3)4
_chemical_formula_sum   'Pr4 Mn6 Sb8 S24'
_cell_volume   942.00006694
_cell_formula_units_Z   2
loop_
 _symmetry_equiv_pos_site_id
 _symmetry_equiv_pos_as_xyz
  1  'x, y, z'
loop_
 _atom_site_type_symbol
 _atom_site_label
 _atom_site_symmetry_multiplicity
 _atom_site_fract_x
 _atom_site_fract_y
 _atom_site_fract_z
 _atom_site_occupancy
  Pr  Pr0  1  0.26605728  0.44459647  0.86442189  1
  Pr  Pr1  1  0.74293811  0.51316905  0.15541648  1
  Pr  Pr2  1  0.77350201  0.98239417  0.87812521  1
  Pr  Pr3  1  0.23734138  0.01324766  0.13947863  1
  Mn  Mn4  1  0.27409123  0.55787670  0.58355107  1
  Mn  Mn5  1  0.71265344  0.50708590  0.38816825  1
  Mn  Mn6  1  0.00861373  0.98338476  0.00895153  1
  Mn  Mn7  1  0.79002984  0.92526943  0.60942153  1
  Mn  Mn8  1  0.18267520  0.95272948  0.41273947  1
  Mn  Mn9  1  0.53819195  0.48563358  0.04050836  1
  Sb  Sb10  1  0.90654934  0.03466263  0.46994272  1
  Sb  Sb11  1  0.11377337  0.92926316  0.55792415  1
  Sb  Sb12  1  0.02092363  0.48678100  0.80604720  1
  Sb  Sb13  1  0.97644450  0.51260695  0.20475591  1
  Sb  Sb14  1  0.38054500  0.51946583  0.44955884  1
  Sb  Sb15  1  0.60834454  0.49307879  0.54013612  1
  Sb  Sb16  1  0.53798508  0.95858678  0.81900939  1
  Sb  Sb17  1  0.45617208  0.05689523  0.17646379  1
  S  S18  1  0.94538301  0.97468403  0.82114830  1
  S  S19  1  0.06413476  0.96584042  0.20171793  1
  S  S20  1  0.43187067  0.05049704  0.99224937  1
  S  S21  1  0.60242712  0.97575437  0.03796425  1
  S  S22  1  0.17498008  0.03332040  0.90682643  1
  S  S23  1  0.83184235  0.00406415  0.11453068  1
  S  S24  1  0.11255738  0.50497360  0.67260534  1
  S  S25  1  0.91887050  0.50118951  0.36745989  1
  S  S26  1  0.75134572  0.96909970  0.32883127  1
  S  S27  1  0.26298813  0.98603816  0.68738983  1
  S  S28  1  0.14375109  0.45448011  0.44268785  1
  S  S29  1  0.84002165  0.42408848  0.56731992  1
  S  S30  1  0.46766444  0.48089528  0.85073900  1
  S  S31  1  0.57563187  0.55700629  0.21345261  1
  S  S32  1  0.92229695  0.44622730  0.99098290  1
  S  S33  1  0.08266604  0.50914920  0.01183589  1
  S  S34  1  0.68673006  0.51280729  0.92002010  1
  S  S35  1  0.34036204  0.50767211  0.08988785  1
  S  S36  1  0.58609333  0.00228846  0.63613706  1
  S  S37  1  0.40031172  0.00420099  0.34188254  1
  S  S38  1  0.24163657  0.52544532  0.28804375  1
  S  S39  1  0.76289872  0.47926877  0.67990727  1
  S  S40  1  0.67176035  0.05641341  0.43956418  1
  S  S41  1  0.31966008  0.01069128  0.54383876  1
