# generated using pymatgen
data_Pr2Mn3(SbS3)4
_symmetry_space_group_name_H-M   'P 1'
_cell_length_a   20.02960800
_cell_length_b   3.90410600
_cell_length_c   14.95364829
_cell_angle_alpha   90.00000000
_cell_angle_beta   126.33350609
_cell_angle_gamma   90.00000000
_symmetry_Int_Tables_number   1
_chemical_formula_structural   Pr2Mn3(SbS3)4
_chemical_formula_sum   'Pr4 Mn6 Sb8 S24'
_cell_volume   942.00006694
_cell_formula_units_Z   2
loop_
 _symmetry_equiv_pos_site_id
 _symmetry_equiv_pos_as_xyz
  1  'x, y, z'
loop_
 _atom_site_type_symbol
 _atom_site_label
 _atom_site_symmetry_multiplicity
 _atom_site_fract_x
 _atom_site_fract_y
 _atom_site_fract_z
 _atom_site_occupancy
  Pr  Pr0  1  0.26598755  0.44458256  0.86426533  1
  Pr  Pr1  1  0.74291719  0.51239577  0.15564480  1
  Pr  Pr2  1  0.77365938  0.98303264  0.87823241  1
  Pr  Pr3  1  0.23731229  0.01265144  0.13940242  1
  Mn  Mn4  1  0.27395370  0.55639214  0.58356359  1
  Mn  Mn5  1  0.71254700  0.50699433  0.38800057  1
  Mn  Mn6  1  0.00874491  0.98395587  0.00919673  1
  Mn  Mn7  1  0.78988689  0.92564450  0.60919540  1
  Mn  Mn8  1  0.18264619  0.95323327  0.41255323  1
  Mn  Mn9  1  0.53816111  0.48570039  0.04051127  1
  Sb  Sb10  1  0.90641910  0.03475497  0.46996592  1
  Sb  Sb11  1  0.11377263  0.92980880  0.55798300  1
  Sb  Sb12  1  0.02083489  0.48679420  0.80615433  1
  Sb  Sb13  1  0.97654408  0.51266741  0.20497469  1
  Sb  Sb14  1  0.38046872  0.51900187  0.44957245  1
  Sb  Sb15  1  0.60810994  0.49350127  0.53994400  1
  Sb  Sb16  1  0.53804893  0.95824809  0.81927530  1
  Sb  Sb17  1  0.45610620  0.05772534  0.17628466  1
  S  S18  1  0.94577857  0.97464372  0.82198995  1
  S  S19  1  0.06436842  0.96497386  0.20185742  1
  S  S20  1  0.43195270  0.05225222  0.99240628  1
  S  S21  1  0.60221683  0.97659422  0.03743931  1
  S  S22  1  0.17481900  0.03213191  0.90664458  1
  S  S23  1  0.83201988  0.00312409  0.11457874  1
  S  S24  1  0.11290139  0.50448857  0.67240986  1
  S  S25  1  0.91870401  0.50071425  0.36745543  1
  S  S26  1  0.75095558  0.97047546  0.32863724  1
  S  S27  1  0.26333929  0.98504748  0.68770105  1
  S  S28  1  0.14401002  0.45460098  0.44293082  1
  S  S29  1  0.83977013  0.42384591  0.56706508  1
  S  S30  1  0.46755906  0.48049772  0.85061418  1
  S  S31  1  0.57554821  0.55645621  0.21291861  1
  S  S32  1  0.92245479  0.44532368  0.99076224  1
  S  S33  1  0.08289824  0.51021716  0.01182829  1
  S  S34  1  0.68657481  0.51251405  0.92012962  1
  S  S35  1  0.34004928  0.50670494  0.08985176  1
  S  S36  1  0.58627712  0.00130875  0.63629959  1
  S  S37  1  0.40048652  0.00484300  0.34219072  1
  S  S38  1  0.24153434  0.52559210  0.28847902  1
  S  S39  1  0.76276175  0.47793414  0.68016734  1
  S  S40  1  0.67200101  0.05584272  0.44034858  1
  S  S41  1  0.31925327  0.01082451  0.54307661  1
