# generated using pymatgen
data_Pr2Mn3(SbS3)4
_symmetry_space_group_name_H-M   'P 1'
_cell_length_a   20.02960800
_cell_length_b   3.90410600
_cell_length_c   14.95364829
_cell_angle_alpha   90.00000000
_cell_angle_beta   126.33350609
_cell_angle_gamma   90.00000000
_symmetry_Int_Tables_number   1
_chemical_formula_structural   Pr2Mn3(SbS3)4
_chemical_formula_sum   'Pr4 Mn6 Sb8 S24'
_cell_volume   942.00006694
_cell_formula_units_Z   2
loop_
 _symmetry_equiv_pos_site_id
 _symmetry_equiv_pos_as_xyz
  1  'x, y, z'
loop_
 _atom_site_type_symbol
 _atom_site_label
 _atom_site_symmetry_multiplicity
 _atom_site_fract_x
 _atom_site_fract_y
 _atom_site_fract_z
 _atom_site_occupancy
  Pr  Pr0  1  0.26590436  0.44503742  0.86413724  1
  Pr  Pr1  1  0.74285837  0.51152020  0.15582114  1
  Pr  Pr2  1  0.77369830  0.98336109  0.87821023  1
  Pr  Pr3  1  0.23724694  0.01166898  0.13930244  1
  Mn  Mn4  1  0.27383678  0.55538615  0.58348070  1
  Mn  Mn5  1  0.71244635  0.50679974  0.38773799  1
  Mn  Mn6  1  0.00896422  0.98460183  0.00945597  1
  Mn  Mn7  1  0.78993290  0.92616404  0.60916117  1
  Mn  Mn8  1  0.18270112  0.95396913  0.41236196  1
  Mn  Mn9  1  0.53820079  0.48541598  0.04056447  1
  Sb  Sb10  1  0.90635862  0.03465530  0.47006018  1
  Sb  Sb11  1  0.11375525  0.93026897  0.55798659  1
  Sb  Sb12  1  0.02073069  0.48661389  0.80623456  1
  Sb  Sb13  1  0.97665429  0.51267949  0.20519909  1
  Sb  Sb14  1  0.38047339  0.51842512  0.44966293  1
  Sb  Sb15  1  0.60793520  0.49383986  0.53982784  1
  Sb  Sb16  1  0.53807886  0.95804318  0.81952554  1
  Sb  Sb17  1  0.45612439  0.05851225  0.17613709  1
  S  S18  1  0.94601721  0.97519653  0.82268957  1
  S  S19  1  0.06442502  0.96403415  0.20182974  1
  S  S20  1  0.43193362  0.05373587  0.99237027  1
  S  S21  1  0.60202232  0.97681453  0.03694291  1
  S  S22  1  0.17470054  0.03071984  0.90654376  1
  S  S23  1  0.83222280  0.00197952  0.11448642  1
  S  S24  1  0.11329993  0.50359167  0.67240948  1
  S  S25  1  0.91862870  0.50015067  0.36756174  1
  S  S26  1  0.75045724  0.97178047  0.32833141  1
  S  S27  1  0.26379269  0.98414166  0.68812184  1
  S  S28  1  0.14437976  0.45463001  0.44314167  1
  S  S29  1  0.83957850  0.42380999  0.56700673  1
  S  S30  1  0.46732004  0.47989857  0.85046728  1
  S  S31  1  0.57536106  0.55547107  0.21243919  1
  S  S32  1  0.92255867  0.44503029  0.99044312  1
  S  S33  1  0.08311585  0.51188832  0.01198026  1
  S  S34  1  0.68641299  0.51215470  0.92020616  1
  S  S35  1  0.33989840  0.50542628  0.08993375  1
  S  S36  1  0.58643804  0.00093645  0.63643320  1
  S  S37  1  0.40064236  0.00563622  0.34244230  1
  S  S38  1  0.24129322  0.52630873  0.28881859  1
  S  S39  1  0.76265546  0.47697700  0.68032486  1
  S  S40  1  0.67235254  0.05555996  0.44122498  1
  S  S41  1  0.31913996  0.01091490  0.54243611  1
