# generated using pymatgen
data_Pr2Mn3(SbS3)4
_symmetry_space_group_name_H-M   'P 1'
_cell_length_a   20.02960800
_cell_length_b   3.90410600
_cell_length_c   14.95364829
_cell_angle_alpha   90.00000000
_cell_angle_beta   126.33350609
_cell_angle_gamma   90.00000000
_symmetry_Int_Tables_number   1
_chemical_formula_structural   Pr2Mn3(SbS3)4
_chemical_formula_sum   'Pr4 Mn6 Sb8 S24'
_cell_volume   942.00006694
_cell_formula_units_Z   2
loop_
 _symmetry_equiv_pos_site_id
 _symmetry_equiv_pos_as_xyz
  1  'x, y, z'
loop_
 _atom_site_type_symbol
 _atom_site_label
 _atom_site_symmetry_multiplicity
 _atom_site_fract_x
 _atom_site_fract_y
 _atom_site_fract_z
 _atom_site_occupancy
  Pr  Pr0  1  0.26579173  0.44538975  0.86396044  1
  Pr  Pr1  1  0.74281451  0.51050825  0.15587110  1
  Pr  Pr2  1  0.77381867  0.98371980  0.87821585  1
  Pr  Pr3  1  0.23713556  0.01064795  0.13919333  1
  Mn  Mn4  1  0.27375726  0.55415025  0.58350785  1
  Mn  Mn5  1  0.71241297  0.50670182  0.38760883  1
  Mn  Mn6  1  0.00918010  0.98539810  0.00963460  1
  Mn  Mn7  1  0.79009824  0.92664795  0.60935852  1
  Mn  Mn8  1  0.18271082  0.95449260  0.41208389  1
  Mn  Mn9  1  0.53835831  0.48520647  0.04075154  1
  Sb  Sb10  1  0.90631828  0.03427556  0.47012104  1
  Sb  Sb11  1  0.11379984  0.93092525  0.55801545  1
  Sb  Sb12  1  0.02062002  0.48636144  0.80634603  1
  Sb  Sb13  1  0.97678929  0.51267781  0.20542597  1
  Sb  Sb14  1  0.38039715  0.51779586  0.44964335  1
  Sb  Sb15  1  0.60777594  0.49443802  0.53974550  1
  Sb  Sb16  1  0.53807314  0.95781820  0.81974094  1
  Sb  Sb17  1  0.45619688  0.05908708  0.17608302  1
  S  S18  1  0.94610746  0.97623954  0.82308529  1
  S  S19  1  0.06458427  0.96354993  0.20184697  1
  S  S20  1  0.43190213  0.05481765  0.99214459  1
  S  S21  1  0.60194773  0.97725211  0.03655625  1
  S  S22  1  0.17453361  0.02989785  0.90635760  1
  S  S23  1  0.83240526  0.00157752  0.11428953  1
  S  S24  1  0.11356666  0.50290899  0.67245959  1
  S  S25  1  0.91846948  0.49940893  0.36750292  1
  S  S26  1  0.74998257  0.97373480  0.32806651  1
  S  S27  1  0.26414490  0.98293327  0.68855057  1
  S  S28  1  0.14462154  0.45431624  0.44315637  1
  S  S29  1  0.83939706  0.42343301  0.56695894  1
  S  S30  1  0.46701995  0.47936465  0.85029771  1
  S  S31  1  0.57530300  0.55442300  0.21212978  1
  S  S32  1  0.92275604  0.44536037  0.99018532  1
  S  S33  1  0.08338221  0.51340651  0.01215731  1
  S  S34  1  0.68645413  0.51220223  0.92045481  1
  S  S35  1  0.33970127  0.50488759  0.08988361  1
  S  S36  1  0.58654907  0.00089428  0.63669423  1
  S  S37  1  0.40094864  0.00675382  0.34291838  1
  S  S38  1  0.24110765  0.52694390  0.28911973  1
  S  S39  1  0.76257791  0.47633452  0.68030972  1
  S  S40  1  0.67275892  0.05538745  0.44212424  1
  S  S41  1  0.31891748  0.01130443  0.54176464  1
