# generated using pymatgen
data_Pr2Mn3(SbS3)4
_symmetry_space_group_name_H-M   'P 1'
_cell_length_a   20.02960800
_cell_length_b   3.90410600
_cell_length_c   14.95364829
_cell_angle_alpha   90.00000000
_cell_angle_beta   126.33350609
_cell_angle_gamma   90.00000000
_symmetry_Int_Tables_number   1
_chemical_formula_structural   Pr2Mn3(SbS3)4
_chemical_formula_sum   'Pr4 Mn6 Sb8 S24'
_cell_volume   942.00006694
_cell_formula_units_Z   2
loop_
 _symmetry_equiv_pos_site_id
 _symmetry_equiv_pos_as_xyz
  1  'x, y, z'
loop_
 _atom_site_type_symbol
 _atom_site_label
 _atom_site_symmetry_multiplicity
 _atom_site_fract_x
 _atom_site_fract_y
 _atom_site_fract_z
 _atom_site_occupancy
  Pr  Pr0  1  0.26568954  0.44579904  0.86375645  1
  Pr  Pr1  1  0.74275924  0.50970982  0.15589841  1
  Pr  Pr2  1  0.77396262  0.98418147  0.87824848  1
  Pr  Pr3  1  0.23699785  0.00959060  0.13914640  1
  Mn  Mn4  1  0.27352557  0.55269403  0.58324537  1
  Mn  Mn5  1  0.71244364  0.50682099  0.38758639  1
  Mn  Mn6  1  0.00943747  0.98616301  0.00990660  1
  Mn  Mn7  1  0.79017217  0.92734649  0.60951969  1
  Mn  Mn8  1  0.18272524  0.95449212  0.41182417  1
  Mn  Mn9  1  0.53858691  0.48491016  0.04099431  1
  Sb  Sb10  1  0.90626668  0.03403499  0.47012208  1
  Sb  Sb11  1  0.11388865  0.93161505  0.55801500  1
  Sb  Sb12  1  0.02053660  0.48621752  0.80653817  1
  Sb  Sb13  1  0.97693482  0.51270998  0.20570623  1
  Sb  Sb14  1  0.38037565  0.51717369  0.44965222  1
  Sb  Sb15  1  0.60765867  0.49501387  0.53966242  1
  Sb  Sb16  1  0.53819565  0.95781847  0.82004990  1
  Sb  Sb17  1  0.45623325  0.05965674  0.17601152  1
  S  S18  1  0.94619125  0.97756622  0.82353724  1
  S  S19  1  0.06467393  0.96304981  0.20186173  1
  S  S20  1  0.43188467  0.05617838  0.99183675  1
  S  S21  1  0.60175547  0.97709909  0.03600265  1
  S  S22  1  0.17437306  0.02920303  0.90606605  1
  S  S23  1  0.83243227  0.00128505  0.11407543  1
  S  S24  1  0.11388100  0.50258191  0.67261139  1
  S  S25  1  0.91841447  0.49904871  0.36766557  1
  S  S26  1  0.74940187  0.97530958  0.32751292  1
  S  S27  1  0.26457959  0.98195534  0.68910439  1
  S  S28  1  0.14489611  0.45469571  0.44313522  1
  S  S29  1  0.83919716  0.42296502  0.56710300  1
  S  S30  1  0.46661875  0.47879887  0.85010257  1
  S  S31  1  0.57536459  0.55307287  0.21202971  1
  S  S32  1  0.92298719  0.44478698  0.98983316  1
  S  S33  1  0.08376091  0.51532944  0.01242742  1
  S  S34  1  0.68633702  0.51178957  0.92057249  1
  S  S35  1  0.33951752  0.50403778  0.08983696  1
  S  S36  1  0.58662181  0.00053062  0.63689034  1
  S  S37  1  0.40120483  0.00791754  0.34327246  1
  S  S38  1  0.24105250  0.52807769  0.28942591  1
  S  S39  1  0.76263065  0.47563016  0.68044900  1
  S  S40  1  0.67303728  0.05614850  0.44279044  1
  S  S41  1  0.31883437  0.01183537  0.54126672  1
