# generated using pymatgen
data_Pr2Mn3(SbS3)4
_symmetry_space_group_name_H-M   'P 1'
_cell_length_a   20.02960800
_cell_length_b   3.90410600
_cell_length_c   14.95364829
_cell_angle_alpha   90.00000000
_cell_angle_beta   126.33350609
_cell_angle_gamma   90.00000000
_symmetry_Int_Tables_number   1
_chemical_formula_structural   Pr2Mn3(SbS3)4
_chemical_formula_sum   'Pr4 Mn6 Sb8 S24'
_cell_volume   942.00006694
_cell_formula_units_Z   2
loop_
 _symmetry_equiv_pos_site_id
 _symmetry_equiv_pos_as_xyz
  1  'x, y, z'
loop_
 _atom_site_type_symbol
 _atom_site_label
 _atom_site_symmetry_multiplicity
 _atom_site_fract_x
 _atom_site_fract_y
 _atom_site_fract_z
 _atom_site_occupancy
  Pr  Pr0  1  0.26548297  0.44614306  0.86345252  1
  Pr  Pr1  1  0.74256834  0.50886908  0.15588769  1
  Pr  Pr2  1  0.77413570  0.98442792  0.87824574  1
  Pr  Pr3  1  0.23691405  0.00913828  0.13912131  1
  Mn  Mn4  1  0.27328377  0.55077058  0.58314861  1
  Mn  Mn5  1  0.71261647  0.50707166  0.38788330  1
  Mn  Mn6  1  0.00971035  0.98665876  0.01029388  1
  Mn  Mn7  1  0.79016978  0.92806229  0.60959607  1
  Mn  Mn8  1  0.18270277  0.95399803  0.41145504  1
  Mn  Mn9  1  0.53886335  0.48522005  0.04122838  1
  Sb  Sb10  1  0.90615524  0.03391961  0.47009701  1
  Sb  Sb11  1  0.11398368  0.93226423  0.55788705  1
  Sb  Sb12  1  0.02051013  0.48618073  0.80669888  1
  Sb  Sb13  1  0.97716222  0.51277577  0.20606228  1
  Sb  Sb14  1  0.38042177  0.51674432  0.44963343  1
  Sb  Sb15  1  0.60760949  0.49563963  0.53960470  1
  Sb  Sb16  1  0.53829767  0.95807761  0.82023742  1
  Sb  Sb17  1  0.45624130  0.05992186  0.17597271  1
  S  S18  1  0.94634200  0.97838433  0.82400369  1
  S  S19  1  0.06480212  0.96287879  0.20189980  1
  S  S20  1  0.43197640  0.05722288  0.99164447  1
  S  S21  1  0.60160574  0.97648622  0.03532525  1
  S  S22  1  0.17414119  0.02851503  0.90580249  1
  S  S23  1  0.83257762  0.00120591  0.11391399  1
  S  S24  1  0.11411131  0.50250621  0.67286493  1
  S  S25  1  0.91848133  0.49843491  0.36780537  1
  S  S26  1  0.74880834  0.97649533  0.32695676  1
  S  S27  1  0.26499532  0.98081362  0.68972596  1
  S  S28  1  0.14507134  0.45404457  0.44320603  1
  S  S29  1  0.83904155  0.42277359  0.56724415  1
  S  S30  1  0.46620010  0.47892275  0.85009419  1
  S  S31  1  0.57545691  0.55161263  0.21181644  1
  S  S32  1  0.92329640  0.44421128  0.98966967  1
  S  S33  1  0.08422045  0.51820503  0.01277596  1
  S  S34  1  0.68628922  0.51137927  0.92069259  1
  S  S35  1  0.33944229  0.50312416  0.08978081  1
  S  S36  1  0.58668926  0.00101414  0.63693920  1
  S  S37  1  0.40161777  0.00842603  0.34365958  1
  S  S38  1  0.24086419  0.52893586  0.28968645  1
  S  S39  1  0.76256710  0.47539221  0.68053733  1
  S  S40  1  0.67316651  0.05716537  0.44310555  1
  S  S41  1  0.31883470  0.01173300  0.54083933  1
