# generated using pymatgen
data_Pr2Mn3(SbS3)4
_symmetry_space_group_name_H-M   'P 1'
_cell_length_a   20.02960800
_cell_length_b   3.90410600
_cell_length_c   14.95364829
_cell_angle_alpha   90.00000000
_cell_angle_beta   126.33350609
_cell_angle_gamma   90.00000000
_symmetry_Int_Tables_number   1
_chemical_formula_structural   Pr2Mn3(SbS3)4
_chemical_formula_sum   'Pr4 Mn6 Sb8 S24'
_cell_volume   942.00006694
_cell_formula_units_Z   2
loop_
 _symmetry_equiv_pos_site_id
 _symmetry_equiv_pos_as_xyz
  1  'x, y, z'
loop_
 _atom_site_type_symbol
 _atom_site_label
 _atom_site_symmetry_multiplicity
 _atom_site_fract_x
 _atom_site_fract_y
 _atom_site_fract_z
 _atom_site_occupancy
  Pr  Pr0  1  0.26524541  0.44643972  0.86317496  1
  Pr  Pr1  1  0.74242938  0.50782634  0.15582655  1
  Pr  Pr2  1  0.77429304  0.98490855  0.87817461  1
  Pr  Pr3  1  0.23684245  0.00898990  0.13915449  1
  Mn  Mn4  1  0.27315640  0.54896531  0.58307623  1
  Mn  Mn5  1  0.71275276  0.50694318  0.38809299  1
  Mn  Mn6  1  0.01005329  0.98669524  0.01069309  1
  Mn  Mn7  1  0.79031998  0.92907250  0.60984139  1
  Mn  Mn8  1  0.18266264  0.95380454  0.41108924  1
  Mn  Mn9  1  0.53914316  0.48484745  0.04142692  1
  Sb  Sb10  1  0.90605268  0.03422446  0.47012205  1
  Sb  Sb11  1  0.11405773  0.93315348  0.55772372  1
  Sb  Sb12  1  0.02044879  0.48633529  0.80682460  1
  Sb  Sb13  1  0.97741411  0.51274984  0.20638580  1
  Sb  Sb14  1  0.38049078  0.51656650  0.44957575  1
  Sb  Sb15  1  0.60752605  0.49618112  0.53957101  1
  Sb  Sb16  1  0.53835284  0.95823238  0.82037625  1
  Sb  Sb17  1  0.45636800  0.06033199  0.17602355  1
  S  S18  1  0.94645415  0.97941893  0.82430102  1
  S  S19  1  0.06488089  0.96292001  0.20187342  1
  S  S20  1  0.43199306  0.05826669  0.99130086  1
  S  S21  1  0.60147834  0.97603640  0.03471498  1
  S  S22  1  0.17391850  0.02809133  0.90541547  1
  S  S23  1  0.83284244  0.00127353  0.11383245  1
  S  S24  1  0.11433231  0.50295674  0.67295974  1
  S  S25  1  0.91848739  0.49743949  0.36789379  1
  S  S26  1  0.74844646  0.97715341  0.32660949  1
  S  S27  1  0.26544569  0.98058573  0.69023305  1
  S  S28  1  0.14509184  0.45328134  0.44309752  1
  S  S29  1  0.83895525  0.42248044  0.56742641  1
  S  S30  1  0.46598003  0.47896147  0.85004326  1
  S  S31  1  0.57566450  0.55077636  0.21171605  1
  S  S32  1  0.92364595  0.44419115  0.98952689  1
  S  S33  1  0.08455504  0.52045612  0.01303911  1
  S  S34  1  0.68598540  0.51139509  0.92062867  1
  S  S35  1  0.33924513  0.50251273  0.08950993  1
  S  S36  1  0.58674598  0.00128307  0.63722997  1
  S  S37  1  0.40191833  0.00890988  0.34411166  1
  S  S38  1  0.24059473  0.52890245  0.28974795  1
  S  S39  1  0.76262869  0.47570204  0.68063122  1
  S  S40  1  0.67321439  0.05825803  0.44352202  1
  S  S41  1  0.31880055  0.01196925  0.54040082  1
