# generated using pymatgen
data_Pr2Mn3(SbS3)4
_symmetry_space_group_name_H-M   'P 1'
_cell_length_a   20.02960800
_cell_length_b   3.90410600
_cell_length_c   14.95364829
_cell_angle_alpha   90.00000000
_cell_angle_beta   126.33350609
_cell_angle_gamma   90.00000000
_symmetry_Int_Tables_number   1
_chemical_formula_structural   Pr2Mn3(SbS3)4
_chemical_formula_sum   'Pr4 Mn6 Sb8 S24'
_cell_volume   942.00006694
_cell_formula_units_Z   2
loop_
 _symmetry_equiv_pos_site_id
 _symmetry_equiv_pos_as_xyz
  1  'x, y, z'
loop_
 _atom_site_type_symbol
 _atom_site_label
 _atom_site_symmetry_multiplicity
 _atom_site_fract_x
 _atom_site_fract_y
 _atom_site_fract_z
 _atom_site_occupancy
  Pr  Pr0  1  0.26501528  0.44645889  0.86295878  1
  Pr  Pr1  1  0.74231894  0.50699003  0.15572774  1
  Pr  Pr2  1  0.77446845  0.98537656  0.87809471  1
  Pr  Pr3  1  0.23681894  0.00906160  0.13925802  1
  Mn  Mn4  1  0.27312769  0.54755221  0.58306554  1
  Mn  Mn5  1  0.71300140  0.50674955  0.38841453  1
  Mn  Mn6  1  0.01039645  0.98688207  0.01111891  1
  Mn  Mn7  1  0.79056103  0.92942227  0.61014996  1
  Mn  Mn8  1  0.18269513  0.95405741  0.41090488  1
  Mn  Mn9  1  0.53930110  0.48424894  0.04158059  1
  Sb  Sb10  1  0.90603758  0.03474660  0.47025275  1
  Sb  Sb11  1  0.11411152  0.93401070  0.55761405  1
  Sb  Sb12  1  0.02049179  0.48634825  0.80710611  1
  Sb  Sb13  1  0.97766331  0.51255240  0.20670220  1
  Sb  Sb14  1  0.38055283  0.51661758  0.44947376  1
  Sb  Sb15  1  0.60746440  0.49663876  0.53957653  1
  Sb  Sb16  1  0.53845137  0.95874134  0.82054935  1
  Sb  Sb17  1  0.45651544  0.06063315  0.17607984  1
  S  S18  1  0.94657656  0.97975540  0.82447085  1
  S  S19  1  0.06503209  0.96358869  0.20180653  1
  S  S20  1  0.43207879  0.05970603  0.99113799  1
  S  S21  1  0.60144942  0.97614336  0.03435873  1
  S  S22  1  0.17374750  0.02781278  0.90511559  1
  S  S23  1  0.83317810  0.00158764  0.11373438  1
  S  S24  1  0.11438081  0.50328969  0.67294542  1
  S  S25  1  0.91858285  0.49601090  0.36807252  1
  S  S26  1  0.74827312  0.97842512  0.32646552  1
  S  S27  1  0.26599904  0.98058856  0.69071470  1
  S  S28  1  0.14512904  0.45171652  0.44307581  1
  S  S29  1  0.83891038  0.42187843  0.56749623  1
  S  S30  1  0.46598647  0.47927836  0.85008158  1
  S  S31  1  0.57580712  0.54939643  0.21171978  1
  S  S32  1  0.92398881  0.44388915  0.98957973  1
  S  S33  1  0.08493131  0.52260835  0.01326078  1
  S  S34  1  0.68576046  0.51178927  0.92065297  1
  S  S35  1  0.33904119  0.50182727  0.08926851  1
  S  S36  1  0.58681794  0.00148866  0.63744484  1
  S  S37  1  0.40229027  0.00885622  0.34462391  1
  S  S38  1  0.24030493  0.52855013  0.28972056  1
  S  S39  1  0.76269622  0.47616227  0.68056044  1
  S  S40  1  0.67327718  0.05882147  0.44391201  1
  S  S41  1  0.31871732  0.01225135  0.54019917  1
