# generated using pymatgen
data_Pr2Mn3(SbS3)4
_symmetry_space_group_name_H-M   'P 1'
_cell_length_a   20.02960800
_cell_length_b   3.90410600
_cell_length_c   14.95364829
_cell_angle_alpha   90.00000000
_cell_angle_beta   126.33350609
_cell_angle_gamma   90.00000000
_symmetry_Int_Tables_number   1
_chemical_formula_structural   Pr2Mn3(SbS3)4
_chemical_formula_sum   'Pr4 Mn6 Sb8 S24'
_cell_volume   942.00006694
_cell_formula_units_Z   2
loop_
 _symmetry_equiv_pos_site_id
 _symmetry_equiv_pos_as_xyz
  1  'x, y, z'
loop_
 _atom_site_type_symbol
 _atom_site_label
 _atom_site_symmetry_multiplicity
 _atom_site_fract_x
 _atom_site_fract_y
 _atom_site_fract_z
 _atom_site_occupancy
  Pr  Pr0  1  0.26484649  0.44632489  0.86271549  1
  Pr  Pr1  1  0.74216980  0.50624331  0.15562215  1
  Pr  Pr2  1  0.77461860  0.98584353  0.87810936  1
  Pr  Pr3  1  0.23679185  0.00919395  0.13932680  1
  Mn  Mn4  1  0.27294554  0.54607995  0.58287101  1
  Mn  Mn5  1  0.71320762  0.50654475  0.38889234  1
  Mn  Mn6  1  0.01067258  0.98710592  0.01144347  1
  Mn  Mn7  1  0.79073667  0.93016474  0.61021919  1
  Mn  Mn8  1  0.18274456  0.95436592  0.41077125  1
  Mn  Mn9  1  0.53943995  0.48371774  0.04180094  1
  Sb  Sb10  1  0.90612066  0.03539682  0.47046269  1
  Sb  Sb11  1  0.11418969  0.93461422  0.55754696  1
  Sb  Sb12  1  0.02047754  0.48628608  0.80726258  1
  Sb  Sb13  1  0.97787761  0.51245895  0.20696749  1
  Sb  Sb14  1  0.38064458  0.51663132  0.44931225  1
  Sb  Sb15  1  0.60738788  0.49718386  0.53956979  1
  Sb  Sb16  1  0.53855129  0.95908866  0.82069575  1
  Sb  Sb17  1  0.45662324  0.06080569  0.17603329  1
  S  S18  1  0.94680207  0.98005137  0.82472136  1
  S  S19  1  0.06520759  0.96444555  0.20172345  1
  S  S20  1  0.43220965  0.06082962  0.99095794  1
  S  S21  1  0.60144686  0.97594310  0.03418050  1
  S  S22  1  0.17344816  0.02708741  0.90474026  1
  S  S23  1  0.83348584  0.00225697  0.11353796  1
  S  S24  1  0.11449312  0.50314094  0.67293608  1
  S  S25  1  0.91882411  0.49452164  0.36843324  1
  S  S26  1  0.74794864  0.98001755  0.32621089  1
  S  S27  1  0.26654688  0.98018770  0.69113972  1
  S  S28  1  0.14511343  0.45018118  0.44300517  1
  S  S29  1  0.83896496  0.42149598  0.56753572  1
  S  S30  1  0.46602137  0.47929106  0.85015001  1
  S  S31  1  0.57602258  0.54815956  0.21191269  1
  S  S32  1  0.92434209  0.44361522  0.99002571  1
  S  S33  1  0.08530191  0.52362810  0.01342592  1
  S  S34  1  0.68561704  0.51218614  0.92068245  1
  S  S35  1  0.33892858  0.50159602  0.08915856  1
  S  S36  1  0.58694095  0.00086384  0.63760854  1
  S  S37  1  0.40260556  0.00834318  0.34503727  1
  S  S38  1  0.24001184  0.52854517  0.28957942  1
  S  S39  1  0.76282520  0.47593643  0.68074640  1
  S  S40  1  0.67338593  0.05955272  0.44422952  1
  S  S41  1  0.31863597  0.01295214  0.53996778  1
