# generated using pymatgen
data_Pr2Mn3(SbS3)4
_symmetry_space_group_name_H-M   'P 1'
_cell_length_a   20.02960800
_cell_length_b   3.90410600
_cell_length_c   14.95364829
_cell_angle_alpha   90.00000000
_cell_angle_beta   126.33350609
_cell_angle_gamma   90.00000000
_symmetry_Int_Tables_number   1
_chemical_formula_structural   Pr2Mn3(SbS3)4
_chemical_formula_sum   'Pr4 Mn6 Sb8 S24'
_cell_volume   942.00006694
_cell_formula_units_Z   2
loop_
 _symmetry_equiv_pos_site_id
 _symmetry_equiv_pos_as_xyz
  1  'x, y, z'
loop_
 _atom_site_type_symbol
 _atom_site_label
 _atom_site_symmetry_multiplicity
 _atom_site_fract_x
 _atom_site_fract_y
 _atom_site_fract_z
 _atom_site_occupancy
  Pr  Pr0  1  0.26468532  0.44600489  0.86252433  1
  Pr  Pr1  1  0.74202840  0.50564531  0.15552539  1
  Pr  Pr2  1  0.77478582  0.98652272  0.87820752  1
  Pr  Pr3  1  0.23670578  0.00931396  0.13930490  1
  Mn  Mn4  1  0.27273250  0.54513325  0.58265424  1
  Mn  Mn5  1  0.71341599  0.50593738  0.38949549  1
  Mn  Mn6  1  0.01091491  0.98732704  0.01184461  1
  Mn  Mn7  1  0.79092213  0.93090978  0.61030965  1
  Mn  Mn8  1  0.18276982  0.95473334  0.41070314  1
  Mn  Mn9  1  0.53954930  0.48287270  0.04194736  1
  Sb  Sb10  1  0.90617292  0.03616715  0.47073997  1
  Sb  Sb11  1  0.11423177  0.93527229  0.55745026  1
  Sb  Sb12  1  0.02049955  0.48635972  0.80743478  1
  Sb  Sb13  1  0.97806169  0.51237067  0.20718506  1
  Sb  Sb14  1  0.38072891  0.51708776  0.44920412  1
  Sb  Sb15  1  0.60730565  0.49767781  0.53955261  1
  Sb  Sb16  1  0.53864474  0.95908839  0.82093077  1
  Sb  Sb17  1  0.45670729  0.06105032  0.17603670  1
  S  S18  1  0.94684141  0.98044799  0.82504386  1
  S  S19  1  0.06542331  0.96583471  0.20175162  1
  S  S20  1  0.43233512  0.06225348  0.99081874  1
  S  S21  1  0.60149582  0.97603643  0.03413495  1
  S  S22  1  0.17320193  0.02685307  0.90450779  1
  S  S23  1  0.83377761  0.00295622  0.11350103  1
  S  S24  1  0.11451413  0.50234775  0.67278866  1
  S  S25  1  0.91896266  0.49333903  0.36878144  1
  S  S26  1  0.74774055  0.98196154  0.32618927  1
  S  S27  1  0.26715019  0.97961865  0.69162542  1
  S  S28  1  0.14515753  0.44850589  0.44307589  1
  S  S29  1  0.83881633  0.42123913  0.56757594  1
  S  S30  1  0.46600929  0.47885980  0.85022649  1
  S  S31  1  0.57621297  0.54753207  0.21195294  1
  S  S32  1  0.92446928  0.44256147  0.99040692  1
  S  S33  1  0.08562673  0.52462612  0.01364685  1
  S  S34  1  0.68535373  0.51262716  0.92060592  1
  S  S35  1  0.33867062  0.50173872  0.08877500  1
  S  S36  1  0.58684723  0.99975002  0.63744806  1
  S  S37  1  0.40286330  0.00823331  0.34539300  1
  S  S38  1  0.23982196  0.52825425  0.28930913  1
  S  S39  1  0.76281254  0.47536328  0.68079810  1
  S  S40  1  0.67354457  0.05968936  0.44448112  1
  S  S41  1  0.31859547  0.01360344  0.53970117  1
