# generated using pymatgen
data_Pr2Mn3(SbS3)4
_symmetry_space_group_name_H-M   'P 1'
_cell_length_a   20.02960800
_cell_length_b   3.90410600
_cell_length_c   14.95364829
_cell_angle_alpha   90.00000000
_cell_angle_beta   126.33350609
_cell_angle_gamma   90.00000000
_symmetry_Int_Tables_number   1
_chemical_formula_structural   Pr2Mn3(SbS3)4
_chemical_formula_sum   'Pr4 Mn6 Sb8 S24'
_cell_volume   942.00006694
_cell_formula_units_Z   2
loop_
 _symmetry_equiv_pos_site_id
 _symmetry_equiv_pos_as_xyz
  1  'x, y, z'
loop_
 _atom_site_type_symbol
 _atom_site_label
 _atom_site_symmetry_multiplicity
 _atom_site_fract_x
 _atom_site_fract_y
 _atom_site_fract_z
 _atom_site_occupancy
  Pr  Pr0  1  0.26932861  0.50707264  0.87571256  1
  Pr  Pr1  1  0.73239647  0.52030192  0.13206665  1
  Pr  Pr2  1  0.76441420  0.02952742  0.87166727  1
  Pr  Pr3  1  0.22861886  0.95663142  0.12551304  1
  Mn  Mn4  1  0.29556496  0.44968446  0.60858216  1
  Mn  Mn5  1  0.68647364  0.45306043  0.36259161  1
  Mn  Mn6  1  0.99889295  0.97560003  0.00574289  1
  Mn  Mn7  1  0.79008036  0.00797105  0.61510644  1
  Mn  Mn8  1  0.20154988  0.02898666  0.37303408  1
  Mn  Mn9  1  0.48149828  0.47337219  0.97829114  1
  Sb  Sb10  1  0.89339165  0.96725218  0.45081785  1
  Sb  Sb11  1  0.11427861  0.97795502  0.54932020  1
  Sb  Sb12  1  0.04000152  0.51258598  0.83024748  1
  Sb  Sb13  1  0.96783104  0.48358272  0.19260568  1
  Sb  Sb14  1  0.39891898  0.49354245  0.45281019  1
  Sb  Sb15  1  0.61336946  0.48569966  0.54807854  1
  Sb  Sb16  1  0.53047363  0.97189075  0.80640698  1
  Sb  Sb17  1  0.46596422  0.03169950  0.18389505  1
  S  S18  1  0.93303598  0.97861698  0.79720111  1
  S  S19  1  0.06697385  0.98195000  0.20048113  1
  S  S20  1  0.42013733  0.98334387  0.98039607  1
  S  S21  1  0.58248066  0.01218359  0.00299322  1
  S  S22  1  0.16248118  0.02368362  0.89712634  1
  S  S23  1  0.83104089  0.98116584  0.10860157  1
  S  S24  1  0.09189949  0.49045462  0.63896956  1
  S  S25  1  0.91508433  0.50801896  0.35738893  1
  S  S26  1  0.73360889  0.99458513  0.29791450  1
  S  S27  1  0.26336873  0.01968964  0.70117594  1
  S  S28  1  0.17170959  0.51626705  0.44332403  1
  S  S29  1  0.80812382  0.54327052  0.53788431  1
  S  S30  1  0.43028531  0.47798964  0.79183474  1
  S  S31  1  0.55501431  0.49019737  0.17474394  1
  S  S32  1  0.91582649  0.52734514  0.98502200  1
  S  S33  1  0.08416321  0.48176813  0.02336323  1
  S  S34  1  0.66550778  0.55737778  0.88573744  1
  S  S35  1  0.33002904  0.45576625  0.10124431  1
  S  S36  1  0.58998086  0.97786670  0.64280916  1
  S  S37  1  0.39482725  0.99646702  0.33492204  1
  S  S38  1  0.24244281  0.47978544  0.31223023  1
  S  S39  1  0.76141272  0.48221089  0.69247560  1
  S  S40  1  0.65943530  0.99918650  0.43669056  1
  S  S41  1  0.32896790  0.96430364  0.55574587  1
