# generated using pymatgen
data_Pr2Mn3(SbS3)4
_symmetry_space_group_name_H-M   'P 1'
_cell_length_a   20.02960800
_cell_length_b   3.90410600
_cell_length_c   14.95364829
_cell_angle_alpha   90.00000000
_cell_angle_beta   126.33350609
_cell_angle_gamma   90.00000000
_symmetry_Int_Tables_number   1
_chemical_formula_structural   Pr2Mn3(SbS3)4
_chemical_formula_sum   'Pr4 Mn6 Sb8 S24'
_cell_volume   942.00006694
_cell_formula_units_Z   2
loop_
 _symmetry_equiv_pos_site_id
 _symmetry_equiv_pos_as_xyz
  1  'x, y, z'
loop_
 _atom_site_type_symbol
 _atom_site_label
 _atom_site_symmetry_multiplicity
 _atom_site_fract_x
 _atom_site_fract_y
 _atom_site_fract_z
 _atom_site_occupancy
  Pr  Pr0  1  0.26447367  0.44599633  0.86219557  1
  Pr  Pr1  1  0.74190787  0.50521084  0.15543366  1
  Pr  Pr2  1  0.77496885  0.98713032  0.87836785  1
  Pr  Pr3  1  0.23664090  0.00930122  0.13925824  1
  Mn  Mn4  1  0.27251093  0.54414758  0.58249121  1
  Mn  Mn5  1  0.71359639  0.50530838  0.38998370  1
  Mn  Mn6  1  0.01118529  0.98715807  0.01229959  1
  Mn  Mn7  1  0.79102249  0.93208191  0.61044957  1
  Mn  Mn8  1  0.18283655  0.95522135  0.41079284  1
  Mn  Mn9  1  0.53952483  0.48164178  0.04200232  1
  Sb  Sb10  1  0.90623564  0.03702349  0.47104574  1
  Sb  Sb11  1  0.11430945  0.93600234  0.55738278  1
  Sb  Sb12  1  0.02055118  0.48674731  0.80765876  1
  Sb  Sb13  1  0.97821289  0.51255411  0.20745125  1
  Sb  Sb14  1  0.38087679  0.51744429  0.44920271  1
  Sb  Sb15  1  0.60722775  0.49792950  0.53948181  1
  Sb  Sb16  1  0.53867499  0.95920785  0.82105497  1
  Sb  Sb17  1  0.45682342  0.06151450  0.17613588  1
  S  S18  1  0.94689690  0.98060008  0.82536569  1
  S  S19  1  0.06559914  0.96730070  0.20180731  1
  S  S20  1  0.43251647  0.06437776  0.99084951  1
  S  S21  1  0.60154946  0.97585670  0.03422011  1
  S  S22  1  0.17300491  0.02654073  0.90418273  1
  S  S23  1  0.83400504  0.00393234  0.11336856  1
  S  S24  1  0.11434662  0.50192736  0.67252224  1
  S  S25  1  0.91904676  0.49228600  0.36920252  1
  S  S26  1  0.74765641  0.98377285  0.32622065  1
  S  S27  1  0.26784838  0.97866755  0.69213815  1
  S  S28  1  0.14521542  0.44755499  0.44302072  1
  S  S29  1  0.83865450  0.42097628  0.56754251  1
  S  S30  1  0.46616295  0.47771009  0.85056034  1
  S  S31  1  0.57632342  0.54650780  0.21196029  1
  S  S32  1  0.92471337  0.44142818  0.99086894  1
  S  S33  1  0.08591512  0.52603214  0.01412451  1
  S  S34  1  0.68508625  0.51294086  0.92030120  1
  S  S35  1  0.33839869  0.50223453  0.08836978  1
  S  S36  1  0.58673392  0.99819107  0.63740996  1
  S  S37  1  0.40300106  0.00860647  0.34571959  1
  S  S38  1  0.23947733  0.52793435  0.28897773  1
  S  S39  1  0.76289486  0.47490511  0.68091191  1
  S  S40  1  0.67362970  0.05964858  0.44471513  1
  S  S41  1  0.31855389  0.01350976  0.53936313  1
