# generated using pymatgen
data_Pr2Mn3(SbS3)4
_symmetry_space_group_name_H-M   'P 1'
_cell_length_a   20.02960800
_cell_length_b   3.90410600
_cell_length_c   14.95364829
_cell_angle_alpha   90.00000000
_cell_angle_beta   126.33350609
_cell_angle_gamma   90.00000000
_symmetry_Int_Tables_number   1
_chemical_formula_structural   Pr2Mn3(SbS3)4
_chemical_formula_sum   'Pr4 Mn6 Sb8 S24'
_cell_volume   942.00006694
_cell_formula_units_Z   2
loop_
 _symmetry_equiv_pos_site_id
 _symmetry_equiv_pos_as_xyz
  1  'x, y, z'
loop_
 _atom_site_type_symbol
 _atom_site_label
 _atom_site_symmetry_multiplicity
 _atom_site_fract_x
 _atom_site_fract_y
 _atom_site_fract_z
 _atom_site_occupancy
  Pr  Pr0  1  0.26426894  0.44619279  0.86188647  1
  Pr  Pr1  1  0.74178743  0.50460494  0.15534584  1
  Pr  Pr2  1  0.77511756  0.98777315  0.87854404  1
  Pr  Pr3  1  0.23659917  0.00912312  0.13918279  1
  Mn  Mn4  1  0.27235360  0.54316602  0.58234557  1
  Mn  Mn5  1  0.71371874  0.50494205  0.39046971  1
  Mn  Mn6  1  0.01143758  0.98740427  0.01259452  1
  Mn  Mn7  1  0.79123293  0.93286640  0.61071325  1
  Mn  Mn8  1  0.18298040  0.95545702  0.41104779  1
  Mn  Mn9  1  0.53956468  0.48073205  0.04224970  1
  Sb  Sb10  1  0.90624640  0.03776165  0.47131423  1
  Sb  Sb11  1  0.11434723  0.93688089  0.55728691  1
  Sb  Sb12  1  0.02066749  0.48696529  0.80786055  1
  Sb  Sb13  1  0.97828675  0.51285103  0.20758936  1
  Sb  Sb14  1  0.38107981  0.51782850  0.44917244  1
  Sb  Sb15  1  0.60721517  0.49845863  0.53950422  1
  Sb  Sb16  1  0.53868642  0.95960149  0.82123748  1
  Sb  Sb17  1  0.45697882  0.06169488  0.17624171  1
  S  S18  1  0.94678491  0.98141760  0.82558628  1
  S  S19  1  0.06576912  0.96855327  0.20202488  1
  S  S20  1  0.43261618  0.06637144  0.99075962  1
  S  S21  1  0.60160297  0.97528321  0.03445238  1
  S  S22  1  0.17292498  0.02574920  0.90404625  1
  S  S23  1  0.83415126  0.00579781  0.11326754  1
  S  S24  1  0.11424065  0.50117105  0.67228456  1
  S  S25  1  0.91879775  0.49085001  0.36944271  1
  S  S26  1  0.74756652  0.98544446  0.32618552  1
  S  S27  1  0.26846190  0.97810376  0.69283839  1
  S  S28  1  0.14537863  0.44653929  0.44312447  1
  S  S29  1  0.83853810  0.42082563  0.56744910  1
  S  S30  1  0.46633901  0.47624535  0.85095006  1
  S  S31  1  0.57644153  0.54484072  0.21205701  1
  S  S32  1  0.92492341  0.44099055  0.99127227  1
  S  S33  1  0.08606403  0.52703357  0.01453979  1
  S  S34  1  0.68460198  0.51327286  0.91974874  1
  S  S35  1  0.33811979  0.50303923  0.08809520  1
  S  S36  1  0.58650461  0.99728447  0.63709863  1
  S  S37  1  0.40293407  0.00875899  0.34602822  1
  S  S38  1  0.23924917  0.52770991  0.28871247  1
  S  S39  1  0.76293873  0.47437636  0.68099590  1
  S  S40  1  0.67368222  0.05939817  0.44481815  1
  S  S41  1  0.31837743  0.01307597  0.53913430  1
