# generated using pymatgen
data_Pr2Mn3(SbS3)4
_symmetry_space_group_name_H-M   'P 1'
_cell_length_a   20.02960800
_cell_length_b   3.90410600
_cell_length_c   14.95364829
_cell_angle_alpha   90.00000000
_cell_angle_beta   126.33350609
_cell_angle_gamma   90.00000000
_symmetry_Int_Tables_number   1
_chemical_formula_structural   Pr2Mn3(SbS3)4
_chemical_formula_sum   'Pr4 Mn6 Sb8 S24'
_cell_volume   942.00006694
_cell_formula_units_Z   2
loop_
 _symmetry_equiv_pos_site_id
 _symmetry_equiv_pos_as_xyz
  1  'x, y, z'
loop_
 _atom_site_type_symbol
 _atom_site_label
 _atom_site_symmetry_multiplicity
 _atom_site_fract_x
 _atom_site_fract_y
 _atom_site_fract_z
 _atom_site_occupancy
  Pr  Pr0  1  0.26405464  0.44623270  0.86156377  1
  Pr  Pr1  1  0.74160145  0.50412767  0.15518681  1
  Pr  Pr2  1  0.77530011  0.98852523  0.87867501  1
  Pr  Pr3  1  0.23663622  0.00879566  0.13910273  1
  Mn  Mn4  1  0.27215620  0.54237484  0.58202275  1
  Mn  Mn5  1  0.71382359  0.50465063  0.39090766  1
  Mn  Mn6  1  0.01170575  0.98693834  0.01295324  1
  Mn  Mn7  1  0.79128696  0.93351940  0.61096297  1
  Mn  Mn8  1  0.18306340  0.95577893  0.41140834  1
  Mn  Mn9  1  0.53940576  0.47969146  0.04220243  1
  Sb  Sb10  1  0.90617058  0.03824103  0.47149963  1
  Sb  Sb11  1  0.11440784  0.93771447  0.55718511  1
  Sb  Sb12  1  0.02072463  0.48654952  0.80794766  1
  Sb  Sb13  1  0.97827170  0.51301522  0.20764776  1
  Sb  Sb14  1  0.38123509  0.51838564  0.44909972  1
  Sb  Sb15  1  0.60713533  0.49894024  0.53947211  1
  Sb  Sb16  1  0.53865885  0.95985747  0.82139175  1
  Sb  Sb17  1  0.45712747  0.06138997  0.17644388  1
  S  S18  1  0.94662417  0.98236920  0.82576283  1
  S  S19  1  0.06592978  0.96956325  0.20212656  1
  S  S20  1  0.43267662  0.06755387  0.99068544  1
  S  S21  1  0.60177232  0.97496159  0.03469308  1
  S  S22  1  0.17293006  0.02526660  0.90397160  1
  S  S23  1  0.83429597  0.00720211  0.11325413  1
  S  S24  1  0.11412743  0.50015315  0.67214865  1
  S  S25  1  0.91858483  0.48927125  0.36953154  1
  S  S26  1  0.74754371  0.98718906  0.32615782  1
  S  S27  1  0.26900178  0.97759513  0.69343361  1
  S  S28  1  0.14556538  0.44538172  0.44326883  1
  S  S29  1  0.83846722  0.41948792  0.56756268  1
  S  S30  1  0.46670877  0.47480855  0.85153200  1
  S  S31  1  0.57651455  0.54370370  0.21182135  1
  S  S32  1  0.92502550  0.44067809  0.99183678  1
  S  S33  1  0.08612131  0.52799791  0.01490306  1
  S  S34  1  0.68427195  0.51373171  0.91926243  1
  S  S35  1  0.33781015  0.50369258  0.08780050  1
  S  S36  1  0.58608282  0.99674109  0.63677985  1
  S  S37  1  0.40289496  0.00890521  0.34626832  1
  S  S38  1  0.23897090  0.52750661  0.28861506  1
  S  S39  1  0.76297766  0.47380763  0.68125707  1
  S  S40  1  0.67381022  0.05896691  0.44492842  1
  S  S41  1  0.31830338  0.01361558  0.53888177  1
