# generated using pymatgen
data_Pr2Mn3(SbS3)4
_symmetry_space_group_name_H-M   'P 1'
_cell_length_a   20.02960800
_cell_length_b   3.90410600
_cell_length_c   14.95364829
_cell_angle_alpha   90.00000000
_cell_angle_beta   126.33350609
_cell_angle_gamma   90.00000000
_symmetry_Int_Tables_number   1
_chemical_formula_structural   Pr2Mn3(SbS3)4
_chemical_formula_sum   'Pr4 Mn6 Sb8 S24'
_cell_volume   942.00006694
_cell_formula_units_Z   2
loop_
 _symmetry_equiv_pos_site_id
 _symmetry_equiv_pos_as_xyz
  1  'x, y, z'
loop_
 _atom_site_type_symbol
 _atom_site_label
 _atom_site_symmetry_multiplicity
 _atom_site_fract_x
 _atom_site_fract_y
 _atom_site_fract_z
 _atom_site_occupancy
  Pr  Pr0  1  0.26382031  0.44647161  0.86132329  1
  Pr  Pr1  1  0.74145418  0.50382589  0.15510532  1
  Pr  Pr2  1  0.77540266  0.98927485  0.87874579  1
  Pr  Pr3  1  0.23661390  0.00863961  0.13901526  1
  Mn  Mn4  1  0.27183928  0.54161201  0.58165853  1
  Mn  Mn5  1  0.71385314  0.50424230  0.39120963  1
  Mn  Mn6  1  0.01180908  0.98674257  0.01317621  1
  Mn  Mn7  1  0.79138553  0.93434458  0.61129725  1
  Mn  Mn8  1  0.18325123  0.95652727  0.41171329  1
  Mn  Mn9  1  0.53916713  0.47878363  0.04188853  1
  Sb  Sb10  1  0.90611990  0.03875660  0.47168066  1
  Sb  Sb11  1  0.11447421  0.93871038  0.55711039  1
  Sb  Sb12  1  0.02087044  0.48621442  0.80810550  1
  Sb  Sb13  1  0.97829611  0.51332838  0.20779702  1
  Sb  Sb14  1  0.38143123  0.51850879  0.44903422  1
  Sb  Sb15  1  0.60710977  0.49962362  0.53942912  1
  Sb  Sb16  1  0.53856734  0.96030620  0.82143697  1
  Sb  Sb17  1  0.45723019  0.06118143  0.17658933  1
  S  S18  1  0.94635033  0.98304116  0.82590471  1
  S  S19  1  0.06612120  0.97095753  0.20218732  1
  S  S20  1  0.43264087  0.06879455  0.99058786  1
  S  S21  1  0.60203102  0.97487644  0.03507953  1
  S  S22  1  0.17291117  0.02468226  0.90383793  1
  S  S23  1  0.83426167  0.00780060  0.11324489  1
  S  S24  1  0.11397707  0.50001946  0.67194666  1
  S  S25  1  0.91847370  0.48747700  0.36975578  1
  S  S26  1  0.74760860  0.98832112  0.32623051  1
  S  S27  1  0.26947670  0.97756374  0.69392053  1
  S  S28  1  0.14563842  0.44434251  0.44344179  1
  S  S29  1  0.83844884  0.41819115  0.56764565  1
  S  S30  1  0.46706745  0.47366140  0.85196062  1
  S  S31  1  0.57663923  0.54266816  0.21148781  1
  S  S32  1  0.92498521  0.43965523  0.99237352  1
  S  S33  1  0.08608320  0.52899717  0.01501827  1
  S  S34  1  0.68385453  0.51428380  0.91855802  1
  S  S35  1  0.33747133  0.50452128  0.08744955  1
  S  S36  1  0.58578462  0.99588225  0.63646652  1
  S  S37  1  0.40281582  0.00876403  0.34651494  1
  S  S38  1  0.23846862  0.52763235  0.28822546  1
  S  S39  1  0.76293712  0.47289258  0.68144240  1
  S  S40  1  0.67394265  0.05842700  0.44500195  1
  S  S41  1  0.31809913  0.01470879  0.53859396  1
