# generated using pymatgen
data_Pr2Mn3(SbS3)4
_symmetry_space_group_name_H-M   'P 1'
_cell_length_a   20.02960800
_cell_length_b   3.90410600
_cell_length_c   14.95364829
_cell_angle_alpha   90.00000000
_cell_angle_beta   126.33350609
_cell_angle_gamma   90.00000000
_symmetry_Int_Tables_number   1
_chemical_formula_structural   Pr2Mn3(SbS3)4
_chemical_formula_sum   'Pr4 Mn6 Sb8 S24'
_cell_volume   942.00006694
_cell_formula_units_Z   2
loop_
 _symmetry_equiv_pos_site_id
 _symmetry_equiv_pos_as_xyz
  1  'x, y, z'
loop_
 _atom_site_type_symbol
 _atom_site_label
 _atom_site_symmetry_multiplicity
 _atom_site_fract_x
 _atom_site_fract_y
 _atom_site_fract_z
 _atom_site_occupancy
  Pr  Pr0  1  0.26353765  0.44668046  0.86102818  1
  Pr  Pr1  1  0.74130295  0.50370065  0.15505427  1
  Pr  Pr2  1  0.77551253  0.98997611  0.87879297  1
  Pr  Pr3  1  0.23665209  0.00862730  0.13900620  1
  Mn  Mn4  1  0.27151737  0.54059420  0.58126409  1
  Mn  Mn5  1  0.71385749  0.50398314  0.39154555  1
  Mn  Mn6  1  0.01209341  0.98661040  0.01354818  1
  Mn  Mn7  1  0.79156090  0.93508280  0.61185920  1
  Mn  Mn8  1  0.18348613  0.95749704  0.41215625  1
  Mn  Mn9  1  0.53886294  0.47828888  0.04135316  1
  Sb  Sb10  1  0.90611071  0.03891472  0.47181935  1
  Sb  Sb11  1  0.11448093  0.93946519  0.55696803  1
  Sb  Sb12  1  0.02107806  0.48607396  0.80823947  1
  Sb  Sb13  1  0.97835344  0.51352209  0.20790649  1
  Sb  Sb14  1  0.38160398  0.51859057  0.44894912  1
  Sb  Sb15  1  0.60712384  0.50025410  0.53944534  1
  Sb  Sb16  1  0.53853138  0.96067922  0.82157240  1
  Sb  Sb17  1  0.45726072  0.06113414  0.17669614  1
  S  S18  1  0.94613800  0.98395168  0.82615773  1
  S  S19  1  0.06625037  0.97251747  0.20225447  1
  S  S20  1  0.43264095  0.06996529  0.99051746  1
  S  S21  1  0.60223265  0.97538517  0.03547435  1
  S  S22  1  0.17292289  0.02356655  0.90370429  1
  S  S23  1  0.83423498  0.00789076  0.11319512  1
  S  S24  1  0.11383071  0.49939323  0.67183617  1
  S  S25  1  0.91845051  0.48541090  0.36986539  1
  S  S26  1  0.74775862  0.98974460  0.32620081  1
  S  S27  1  0.26984455  0.97746633  0.69434394  1
  S  S28  1  0.14567829  0.44315176  0.44348835  1
  S  S29  1  0.83845974  0.41721031  0.56771529  1
  S  S30  1  0.46734230  0.47273331  0.85203551  1
  S  S31  1  0.57676064  0.54196302  0.21111954  1
  S  S32  1  0.92500880  0.43840335  0.99303594  1
  S  S33  1  0.08610999  0.53016752  0.01514152  1
  S  S34  1  0.68342809  0.51426692  0.91793348  1
  S  S35  1  0.33712259  0.50604213  0.08693650  1
  S  S36  1  0.58562491  0.99415624  0.63623561  1
  S  S37  1  0.40264566  0.00871501  0.34668122  1
  S  S38  1  0.23804902  0.52803868  0.28799684  1
  S  S39  1  0.76304744  0.47218652  0.68173204  1
  S  S40  1  0.67410409  0.05684617  0.44512362  1
  S  S41  1  0.31785329  0.01504486  0.53818754  1
