# generated using pymatgen
data_Pr2Mn3(SbS3)4
_symmetry_space_group_name_H-M   'P 1'
_cell_length_a   20.02960800
_cell_length_b   3.90410600
_cell_length_c   14.95364829
_cell_angle_alpha   90.00000000
_cell_angle_beta   126.33350609
_cell_angle_gamma   90.00000000
_symmetry_Int_Tables_number   1
_chemical_formula_structural   Pr2Mn3(SbS3)4
_chemical_formula_sum   'Pr4 Mn6 Sb8 S24'
_cell_volume   942.00006694
_cell_formula_units_Z   2
loop_
 _symmetry_equiv_pos_site_id
 _symmetry_equiv_pos_as_xyz
  1  'x, y, z'
loop_
 _atom_site_type_symbol
 _atom_site_label
 _atom_site_symmetry_multiplicity
 _atom_site_fract_x
 _atom_site_fract_y
 _atom_site_fract_z
 _atom_site_occupancy
  Pr  Pr0  1  0.26327077  0.44735530  0.86068644  1
  Pr  Pr1  1  0.74110878  0.50367183  0.15498535  1
  Pr  Pr2  1  0.77563372  0.99062806  0.87890890  1
  Pr  Pr3  1  0.23675084  0.00833326  0.13900039  1
  Mn  Mn4  1  0.27126469  0.53952163  0.58083108  1
  Mn  Mn5  1  0.71383098  0.50368633  0.39177602  1
  Mn  Mn6  1  0.01221265  0.98714854  0.01383338  1
  Mn  Mn7  1  0.79170289  0.93609357  0.61236127  1
  Mn  Mn8  1  0.18353229  0.95864888  0.41239729  1
  Mn  Mn9  1  0.53852438  0.47836646  0.04092764  1
  Sb  Sb10  1  0.90609444  0.03931226  0.47196063  1
  Sb  Sb11  1  0.11447612  0.94015772  0.55678133  1
  Sb  Sb12  1  0.02127517  0.48576312  0.80842561  1
  Sb  Sb13  1  0.97834933  0.51338923  0.20795984  1
  Sb  Sb14  1  0.38181723  0.51903256  0.44889949  1
  Sb  Sb15  1  0.60713630  0.50066765  0.53947892  1
  Sb  Sb16  1  0.53846805  0.96133041  0.82169080  1
  Sb  Sb17  1  0.45732364  0.06105810  0.17690314  1
  S  S18  1  0.94597872  0.98509429  0.82620247  1
  S  S19  1  0.06631912  0.97354038  0.20240833  1
  S  S20  1  0.43266094  0.07112900  0.99061931  1
  S  S21  1  0.60254946  0.97501325  0.03605321  1
  S  S22  1  0.17307912  0.02283773  0.90342378  1
  S  S23  1  0.83418214  0.00777014  0.11314749  1
  S  S24  1  0.11365990  0.49922511  0.67170326  1
  S  S25  1  0.91847878  0.48415833  0.37008313  1
  S  S26  1  0.74782280  0.99126471  0.32626651  1
  S  S27  1  0.27030278  0.97746007  0.69468601  1
  S  S28  1  0.14576714  0.44320223  0.44365547  1
  S  S29  1  0.83839516  0.41662520  0.56795957  1
  S  S30  1  0.46766090  0.47168057  0.85189988  1
  S  S31  1  0.57682881  0.54202833  0.21080147  1
  S  S32  1  0.92511004  0.43794230  0.99354282  1
  S  S33  1  0.08616402  0.53168726  0.01527750  1
  S  S34  1  0.68310804  0.51439244  0.91728410  1
  S  S35  1  0.33670018  0.50735643  0.08633713  1
  S  S36  1  0.58556883  0.99284301  0.63603812  1
  S  S37  1  0.40233490  0.00892235  0.34654301  1
  S  S38  1  0.23760533  0.52855130  0.28774114  1
  S  S39  1  0.76308667  0.47168054  0.68207814  1
  S  S40  1  0.67425716  0.05543731  0.44515210  1
  S  S41  1  0.31755946  0.01531958  0.53775018  1
