# generated using pymatgen
data_Pr2Mn3(SbS3)4
_symmetry_space_group_name_H-M   'P 1'
_cell_length_a   20.02960800
_cell_length_b   3.90410600
_cell_length_c   14.95364829
_cell_angle_alpha   90.00000000
_cell_angle_beta   126.33350609
_cell_angle_gamma   90.00000000
_symmetry_Int_Tables_number   1
_chemical_formula_structural   Pr2Mn3(SbS3)4
_chemical_formula_sum   'Pr4 Mn6 Sb8 S24'
_cell_volume   942.00006694
_cell_formula_units_Z   2
loop_
 _symmetry_equiv_pos_site_id
 _symmetry_equiv_pos_as_xyz
  1  'x, y, z'
loop_
 _atom_site_type_symbol
 _atom_site_label
 _atom_site_symmetry_multiplicity
 _atom_site_fract_x
 _atom_site_fract_y
 _atom_site_fract_z
 _atom_site_occupancy
  Pr  Pr0  1  0.26297606  0.44824223  0.86032204  1
  Pr  Pr1  1  0.74094541  0.50325436  0.15494267  1
  Pr  Pr2  1  0.77574871  0.99142064  0.87906600  1
  Pr  Pr3  1  0.23675771  0.00835558  0.13901966  1
  Mn  Mn4  1  0.27088083  0.53870207  0.58030704  1
  Mn  Mn5  1  0.71369246  0.50404246  0.39203469  1
  Mn  Mn6  1  0.01228320  0.98748685  0.01397166  1
  Mn  Mn7  1  0.79171051  0.93690942  0.61264069  1
  Mn  Mn8  1  0.18360688  0.95977550  0.41267938  1
  Mn  Mn9  1  0.53810947  0.47891650  0.04042486  1
  Sb  Sb10  1  0.90600461  0.03953566  0.47203351  1
  Sb  Sb11  1  0.11447529  0.94039714  0.55649401  1
  Sb  Sb12  1  0.02153682  0.48543379  0.80862205  1
  Sb  Sb13  1  0.97834138  0.51308495  0.20802911  1
  Sb  Sb14  1  0.38200220  0.51926505  0.44880709  1
  Sb  Sb15  1  0.60717729  0.50135232  0.53946467  1
  Sb  Sb16  1  0.53841825  0.96197806  0.82179711  1
  Sb  Sb17  1  0.45745439  0.06080741  0.17709277  1
  S  S18  1  0.94583299  0.98607285  0.82638111  1
  S  S19  1  0.06622060  0.97416092  0.20246187  1
  S  S20  1  0.43275417  0.07241873  0.99080323  1
  S  S21  1  0.60267163  0.97476526  0.03653032  1
  S  S22  1  0.17332836  0.02209314  0.90344207  1
  S  S23  1  0.83403119  0.00808891  0.11295666  1
  S  S24  1  0.11364754  0.49923779  0.67164333  1
  S  S25  1  0.91843875  0.48271612  0.37017342  1
  S  S26  1  0.74791186  0.99241594  0.32643502  1
  S  S27  1  0.27077033  0.97777479  0.69499705  1
  S  S28  1  0.14586371  0.44232681  0.44369333  1
  S  S29  1  0.83825198  0.41625867  0.56797614  1
  S  S30  1  0.46795312  0.47112707  0.85186767  1
  S  S31  1  0.57692113  0.54134782  0.21083577  1
  S  S32  1  0.92518629  0.43696196  0.99412174  1
  S  S33  1  0.08616915  0.53343989  0.01529597  1
  S  S34  1  0.68276898  0.51464956  0.91653754  1
  S  S35  1  0.33633689  0.50826397  0.08569461  1
  S  S36  1  0.58558288  0.99118808  0.63599611  1
  S  S37  1  0.40200203  0.00860305  0.34648919  1
  S  S38  1  0.23723125  0.52896112  0.28758541  1
  S  S39  1  0.76312632  0.47056887  0.68234156  1
  S  S40  1  0.67424774  0.05422766  0.44512848  1
  S  S41  1  0.31723551  0.01575640  0.53744164  1
