# generated using pymatgen
data_Pr2Mn3(SbS3)4
_symmetry_space_group_name_H-M   'P 1'
_cell_length_a   20.02960800
_cell_length_b   3.90410600
_cell_length_c   14.95364829
_cell_angle_alpha   90.00000000
_cell_angle_beta   126.33350609
_cell_angle_gamma   90.00000000
_symmetry_Int_Tables_number   1
_chemical_formula_structural   Pr2Mn3(SbS3)4
_chemical_formula_sum   'Pr4 Mn6 Sb8 S24'
_cell_volume   942.00006694
_cell_formula_units_Z   2
loop_
 _symmetry_equiv_pos_site_id
 _symmetry_equiv_pos_as_xyz
  1  'x, y, z'
loop_
 _atom_site_type_symbol
 _atom_site_label
 _atom_site_symmetry_multiplicity
 _atom_site_fract_x
 _atom_site_fract_y
 _atom_site_fract_z
 _atom_site_occupancy
  Pr  Pr0  1  0.26265999  0.44883863  0.85998567  1
  Pr  Pr1  1  0.74080478  0.50276436  0.15483312  1
  Pr  Pr2  1  0.77588669  0.99212117  0.87929397  1
  Pr  Pr3  1  0.23677677  0.00854483  0.13903343  1
  Mn  Mn4  1  0.27049485  0.53762688  0.57961908  1
  Mn  Mn5  1  0.71350778  0.50457973  0.39219474  1
  Mn  Mn6  1  0.01231710  0.98791991  0.01420063  1
  Mn  Mn7  1  0.79167035  0.93794206  0.61282008  1
  Mn  Mn8  1  0.18376266  0.96091796  0.41303021  1
  Mn  Mn9  1  0.53780183  0.47964785  0.03996451  1
  Sb  Sb10  1  0.90598773  0.03929708  0.47223450  1
  Sb  Sb11  1  0.11444035  0.94045648  0.55616692  1
  Sb  Sb12  1  0.02186233  0.48509751  0.80885591  1
  Sb  Sb13  1  0.97827564  0.51265156  0.20802058  1
  Sb  Sb14  1  0.38207187  0.51946778  0.44867188  1
  Sb  Sb15  1  0.60724594  0.50176764  0.53952192  1
  Sb  Sb16  1  0.53835235  0.96248039  0.82184773  1
  Sb  Sb17  1  0.45763820  0.06067325  0.17724203  1
  S  S18  1  0.94586989  0.98733491  0.82670161  1
  S  S19  1  0.06606631  0.97420855  0.20236951  1
  S  S20  1  0.43304763  0.07386593  0.99119554  1
  S  S21  1  0.60270048  0.97456368  0.03688980  1
  S  S22  1  0.17363092  0.01990821  0.90358983  1
  S  S23  1  0.83380430  0.00827930  0.11272102  1
  S  S24  1  0.11358664  0.49926787  0.67163180  1
  S  S25  1  0.91840686  0.48133017  0.37044280  1
  S  S26  1  0.74823963  0.99322662  0.32691906  1
  S  S27  1  0.27133456  0.97839727  0.69559990  1
  S  S28  1  0.14606531  0.44150401  0.44370707  1
  S  S29  1  0.83799272  0.41602628  0.56791192  1
  S  S30  1  0.46822556  0.47079421  0.85178234  1
  S  S31  1  0.57706713  0.54070500  0.21080262  1
  S  S32  1  0.92539195  0.43598101  0.99473565  1
  S  S33  1  0.08620203  0.53440567  0.01567700  1
  S  S34  1  0.68232727  0.51508775  0.91577532  1
  S  S35  1  0.33609806  0.50872167  0.08522677  1
  S  S36  1  0.58559924  0.98985091  0.63598516  1
  S  S37  1  0.40180161  0.00820539  0.34669084  1
  S  S38  1  0.23695129  0.52919340  0.28739280  1
  S  S39  1  0.76321536  0.46997303  0.68257767  1
  S  S40  1  0.67420326  0.05351955  0.44492345  1
  S  S41  1  0.31688460  0.01645344  0.53708902  1
