# generated using pymatgen
data_Pr2Mn3(SbS3)4
_symmetry_space_group_name_H-M   'P 1'
_cell_length_a   20.02960800
_cell_length_b   3.90410600
_cell_length_c   14.95364829
_cell_angle_alpha   90.00000000
_cell_angle_beta   126.33350609
_cell_angle_gamma   90.00000000
_symmetry_Int_Tables_number   1
_chemical_formula_structural   Pr2Mn3(SbS3)4
_chemical_formula_sum   'Pr4 Mn6 Sb8 S24'
_cell_volume   942.00006694
_cell_formula_units_Z   2
loop_
 _symmetry_equiv_pos_site_id
 _symmetry_equiv_pos_as_xyz
  1  'x, y, z'
loop_
 _atom_site_type_symbol
 _atom_site_label
 _atom_site_symmetry_multiplicity
 _atom_site_fract_x
 _atom_site_fract_y
 _atom_site_fract_z
 _atom_site_occupancy
  Pr  Pr0  1  0.26240761  0.44973475  0.85964464  1
  Pr  Pr1  1  0.74065436  0.50246894  0.15472013  1
  Pr  Pr2  1  0.77594843  0.99298029  0.87941810  1
  Pr  Pr3  1  0.23683023  0.00841998  0.13916074  1
  Mn  Mn4  1  0.27026492  0.53654317  0.57909824  1
  Mn  Mn5  1  0.71343033  0.50468575  0.39246876  1
  Mn  Mn6  1  0.01236955  0.98776687  0.01442340  1
  Mn  Mn7  1  0.79169146  0.93881049  0.61302231  1
  Mn  Mn8  1  0.18390754  0.96216646  0.41336440  1
  Mn  Mn9  1  0.53749703  0.48036127  0.03952513  1
  Sb  Sb10  1  0.90596143  0.03893864  0.47246789  1
  Sb  Sb11  1  0.11439300  0.94078200  0.55582495  1
  Sb  Sb12  1  0.02220868  0.48502294  0.80908915  1
  Sb  Sb13  1  0.97816381  0.51215246  0.20785854  1
  Sb  Sb14  1  0.38219816  0.51924181  0.44849898  1
  Sb  Sb15  1  0.60726128  0.50240581  0.53959594  1
  Sb  Sb16  1  0.53827551  0.96319472  0.82183713  1
  Sb  Sb17  1  0.45784681  0.06040469  0.17738987  1
  S  S18  1  0.94580430  0.98805351  0.82707286  1
  S  S19  1  0.06595395  0.97391485  0.20236800  1
  S  S20  1  0.43325468  0.07465274  0.99153439  1
  S  S21  1  0.60272097  0.97423010  0.03729817  1
  S  S22  1  0.17375596  0.01767483  0.90350103  1
  S  S23  1  0.83365148  0.00867270  0.11257712  1
  S  S24  1  0.11339334  0.49919861  0.67182231  1
  S  S25  1  0.91848204  0.47966644  0.37078498  1
  S  S26  1  0.74840983  0.99422375  0.32731304  1
  S  S27  1  0.27188747  0.97874465  0.69620601  1
  S  S28  1  0.14615980  0.44066966  0.44353828  1
  S  S29  1  0.83770994  0.41637548  0.56791353  1
  S  S30  1  0.46844237  0.47089293  0.85174021  1
  S  S31  1  0.57729896  0.53997695  0.21078092  1
  S  S32  1  0.92557247  0.43516426  0.99530276  1
  S  S33  1  0.08624276  0.53465182  0.01599744  1
  S  S34  1  0.68207852  0.51586190  0.91528570  1
  S  S35  1  0.33586859  0.50921152  0.08471325  1
  S  S36  1  0.58553743  0.98886450  0.63600024  1
  S  S37  1  0.40160864  0.00772378  0.34695888  1
  S  S38  1  0.23649879  0.53000127  0.28712407  1
  S  S39  1  0.76331523  0.46926760  0.68282233  1
  S  S40  1  0.67420289  0.05294033  0.44471684  1
  S  S41  1  0.31671782  0.01685483  0.53704787  1
