# generated using pymatgen
data_Pr2Mn3(SbS3)4
_symmetry_space_group_name_H-M   'P 1'
_cell_length_a   20.02960800
_cell_length_b   3.90410600
_cell_length_c   14.95364829
_cell_angle_alpha   90.00000000
_cell_angle_beta   126.33350609
_cell_angle_gamma   90.00000000
_symmetry_Int_Tables_number   1
_chemical_formula_structural   Pr2Mn3(SbS3)4
_chemical_formula_sum   'Pr4 Mn6 Sb8 S24'
_cell_volume   942.00006694
_cell_formula_units_Z   2
loop_
 _symmetry_equiv_pos_site_id
 _symmetry_equiv_pos_as_xyz
  1  'x, y, z'
loop_
 _atom_site_type_symbol
 _atom_site_label
 _atom_site_symmetry_multiplicity
 _atom_site_fract_x
 _atom_site_fract_y
 _atom_site_fract_z
 _atom_site_occupancy
  Pr  Pr0  1  0.26215423  0.45067642  0.85929932  1
  Pr  Pr1  1  0.74051864  0.50228753  0.15462125  1
  Pr  Pr2  1  0.77602077  0.99370178  0.87956791  1
  Pr  Pr3  1  0.23694798  0.00876413  0.13931296  1
  Mn  Mn4  1  0.27022274  0.53541554  0.57876783  1
  Mn  Mn5  1  0.71335004  0.50558663  0.39269567  1
  Mn  Mn6  1  0.01232748  0.98800889  0.01453233  1
  Mn  Mn7  1  0.79196256  0.94007570  0.61347943  1
  Mn  Mn8  1  0.18390103  0.96352613  0.41355524  1
  Mn  Mn9  1  0.53720746  0.48089142  0.03907345  1
  Sb  Sb10  1  0.90592605  0.03852489  0.47267316  1
  Sb  Sb11  1  0.11443052  0.94103114  0.55558305  1
  Sb  Sb12  1  0.02248955  0.48515872  0.80929697  1
  Sb  Sb13  1  0.97806342  0.51180455  0.20774464  1
  Sb  Sb14  1  0.38227212  0.51908030  0.44823063  1
  Sb  Sb15  1  0.60718159  0.50284595  0.53951713  1
  Sb  Sb16  1  0.53818807  0.96364949  0.82185444  1
  Sb  Sb17  1  0.45803811  0.06010290  0.17755851  1
  S  S18  1  0.94574452  0.98854295  0.82746489  1
  S  S19  1  0.06586162  0.97372102  0.20233203  1
  S  S20  1  0.43341055  0.07546486  0.99172238  1
  S  S21  1  0.60279074  0.97422364  0.03764977  1
  S  S22  1  0.17384810  0.01465826  0.90360443  1
  S  S23  1  0.83357023  0.00881918  0.11237373  1
  S  S24  1  0.11337033  0.49891887  0.67215272  1
  S  S25  1  0.91859608  0.47826378  0.37117221  1
  S  S26  1  0.74848732  0.99557156  0.32748116  1
  S  S27  1  0.27227885  0.97870550  0.69674786  1
  S  S28  1  0.14630293  0.43976570  0.44338264  1
  S  S29  1  0.83749929  0.41697793  0.56779537  1
  S  S30  1  0.46858348  0.47194510  0.85162908  1
  S  S31  1  0.57767875  0.53931171  0.21094216  1
  S  S32  1  0.92558090  0.43389348  0.99575880  1
  S  S33  1  0.08621690  0.53484175  0.01624282  1
  S  S34  1  0.68185800  0.51717934  0.91484171  1
  S  S35  1  0.33545172  0.51003874  0.08407702  1
  S  S36  1  0.58544247  0.98814117  0.63601686  1
  S  S37  1  0.40145297  0.00754359  0.34717508  1
  S  S38  1  0.23602925  0.53064270  0.28685219  1
  S  S39  1  0.76346733  0.46931400  0.68306869  1
  S  S40  1  0.67428364  0.05277499  0.44462174  1
  S  S41  1  0.31662498  0.01785845  0.53705256  1
