# generated using pymatgen
data_Pr2Mn3(SbS3)4
_symmetry_space_group_name_H-M   'P 1'
_cell_length_a   20.02960800
_cell_length_b   3.90410600
_cell_length_c   14.95364829
_cell_angle_alpha   90.00000000
_cell_angle_beta   126.33350609
_cell_angle_gamma   90.00000000
_symmetry_Int_Tables_number   1
_chemical_formula_structural   Pr2Mn3(SbS3)4
_chemical_formula_sum   'Pr4 Mn6 Sb8 S24'
_cell_volume   942.00006694
_cell_formula_units_Z   2
loop_
 _symmetry_equiv_pos_site_id
 _symmetry_equiv_pos_as_xyz
  1  'x, y, z'
loop_
 _atom_site_type_symbol
 _atom_site_label
 _atom_site_symmetry_multiplicity
 _atom_site_fract_x
 _atom_site_fract_y
 _atom_site_fract_z
 _atom_site_occupancy
  Pr  Pr0  1  0.26943564  0.50666590  0.87577550  1
  Pr  Pr1  1  0.73227985  0.51980780  0.13198040  1
  Pr  Pr2  1  0.76447888  0.02902268  0.87169847  1
  Pr  Pr3  1  0.22867615  0.95649307  0.12551158  1
  Mn  Mn4  1  0.29559100  0.44975066  0.60879319  1
  Mn  Mn5  1  0.68658382  0.45257708  0.36245999  1
  Mn  Mn6  1  0.99890978  0.97490531  0.00559202  1
  Mn  Mn7  1  0.79018433  0.00718213  0.61537116  1
  Mn  Mn8  1  0.20178619  0.02848041  0.37316092  1
  Mn  Mn9  1  0.48174178  0.47318543  0.97855665  1
  Sb  Sb10  1  0.89354955  0.96694503  0.45093182  1
  Sb  Sb11  1  0.11438524  0.97831668  0.54939024  1
  Sb  Sb12  1  0.04015982  0.51248097  0.83051825  1
  Sb  Sb13  1  0.96775007  0.48344288  0.19248488  1
  Sb  Sb14  1  0.39892136  0.49349816  0.45262215  1
  Sb  Sb15  1  0.61344455  0.48559352  0.54815854  1
  Sb  Sb16  1  0.53052614  0.97185321  0.80628050  1
  Sb  Sb17  1  0.46600120  0.03189864  0.18385557  1
  S  S18  1  0.93270918  0.97742036  0.79693582  1
  S  S19  1  0.06696799  0.98235635  0.20023290  1
  S  S20  1  0.42011672  0.98395390  0.98072452  1
  S  S21  1  0.58249942  0.01187876  0.00261545  1
  S  S22  1  0.16262417  0.02304752  0.89737278  1
  S  S23  1  0.83100797  0.98051754  0.10881438  1
  S  S24  1  0.09175362  0.49037804  0.63902997  1
  S  S25  1  0.91487974  0.50838569  0.35723920  1
  S  S26  1  0.73338135  0.99526400  0.29789468  1
  S  S27  1  0.26322937  0.02004811  0.70082788  1
  S  S28  1  0.17178241  0.51599456  0.44311843  1
  S  S29  1  0.80848749  0.54447229  0.53784913  1
  S  S30  1  0.43013090  0.47810527  0.79180617  1
  S  S31  1  0.55511393  0.49025413  0.17494697  1
  S  S32  1  0.91532811  0.52735913  0.98479545  1
  S  S33  1  0.08417868  0.48066054  0.02331832  1
  S  S34  1  0.66526708  0.55776434  0.88542409  1
  S  S35  1  0.33006319  0.45602605  0.10143851  1
  S  S36  1  0.59002861  0.97803979  0.64278033  1
  S  S37  1  0.39495846  0.99560289  0.33540896  1
  S  S38  1  0.24221200  0.47969246  0.31179049  1
  S  S39  1  0.76131065  0.48251036  0.69208640  1
  S  S40  1  0.65954882  0.99975996  0.43669420  1
  S  S41  1  0.32891008  0.96425445  0.55570898  1
