# generated using pymatgen
data_Pr2Mn3(SbS3)4
_symmetry_space_group_name_H-M   'P 1'
_cell_length_a   20.02960800
_cell_length_b   3.90410600
_cell_length_c   14.95364829
_cell_angle_alpha   90.00000000
_cell_angle_beta   126.33350609
_cell_angle_gamma   90.00000000
_symmetry_Int_Tables_number   1
_chemical_formula_structural   Pr2Mn3(SbS3)4
_chemical_formula_sum   'Pr4 Mn6 Sb8 S24'
_cell_volume   942.00006694
_cell_formula_units_Z   2
loop_
 _symmetry_equiv_pos_site_id
 _symmetry_equiv_pos_as_xyz
  1  'x, y, z'
loop_
 _atom_site_type_symbol
 _atom_site_label
 _atom_site_symmetry_multiplicity
 _atom_site_fract_x
 _atom_site_fract_y
 _atom_site_fract_z
 _atom_site_occupancy
  Pr  Pr0  1  0.26188207  0.45157294  0.85902666  1
  Pr  Pr1  1  0.74038402  0.50208952  0.15451045  1
  Pr  Pr2  1  0.77609153  0.99430012  0.87979680  1
  Pr  Pr3  1  0.23711242  0.00918340  0.13953541  1
  Mn  Mn4  1  0.27022144  0.53392769  0.57852680  1
  Mn  Mn5  1  0.71329505  0.50640745  0.39284605  1
  Mn  Mn6  1  0.01216920  0.98827225  0.01457522  1
  Mn  Mn7  1  0.79215441  0.94143380  0.61388920  1
  Mn  Mn8  1  0.18379982  0.96506284  0.41378806  1
  Mn  Mn9  1  0.53684201  0.48086820  0.03849944  1
  Sb  Sb10  1  0.90588466  0.03807115  0.47282184  1
  Sb  Sb11  1  0.11456404  0.94114897  0.55534445  1
  Sb  Sb12  1  0.02273121  0.48540850  0.80946323  1
  Sb  Sb13  1  0.97800849  0.51122477  0.20763880  1
  Sb  Sb14  1  0.38233380  0.51894085  0.44801588  1
  Sb  Sb15  1  0.60699114  0.50344812  0.53926947  1
  Sb  Sb16  1  0.53812377  0.96412031  0.82198534  1
  Sb  Sb17  1  0.45827754  0.05995261  0.17778739  1
  S  S18  1  0.94581424  0.98931047  0.82788361  1
  S  S19  1  0.06586379  0.97359002  0.20234425  1
  S  S20  1  0.43363662  0.07625080  0.99199020  1
  S  S21  1  0.60286332  0.97477121  0.03798456  1
  S  S22  1  0.17397286  0.01219951  0.90378910  1
  S  S23  1  0.83353382  0.00933876  0.11231235  1
  S  S24  1  0.11336543  0.49816765  0.67245901  1
  S  S25  1  0.91864687  0.47710715  0.37151473  1
  S  S26  1  0.74857205  0.99693313  0.32762999  1
  S  S27  1  0.27239957  0.97792407  0.69724022  1
  S  S28  1  0.14635591  0.43934049  0.44328566  1
  S  S29  1  0.83727206  0.41747590  0.56756850  1
  S  S30  1  0.46865597  0.47358364  0.85152257  1
  S  S31  1  0.57806519  0.53840715  0.21136918  1
  S  S32  1  0.92558873  0.43373227  0.99633945  1
  S  S33  1  0.08632050  0.53499285  0.01645049  1
  S  S34  1  0.68163570  0.51840620  0.91440949  1
  S  S35  1  0.33507494  0.51152726  0.08352468  1
  S  S36  1  0.58555025  0.98703542  0.63615910  1
  S  S37  1  0.40138550  0.00729703  0.34721414  1
  S  S38  1  0.23571737  0.53169024  0.28679915  1
  S  S39  1  0.76356267  0.46920762  0.68337424  1
  S  S40  1  0.67430376  0.05227402  0.44436356  1
  S  S41  1  0.31644754  0.01902248  0.53708768  1
