# generated using pymatgen
data_Pr2Mn3(SbS3)4
_symmetry_space_group_name_H-M   'P 1'
_cell_length_a   20.02960800
_cell_length_b   3.90410600
_cell_length_c   14.95364829
_cell_angle_alpha   90.00000000
_cell_angle_beta   126.33350609
_cell_angle_gamma   90.00000000
_symmetry_Int_Tables_number   1
_chemical_formula_structural   Pr2Mn3(SbS3)4
_chemical_formula_sum   'Pr4 Mn6 Sb8 S24'
_cell_volume   942.00006694
_cell_formula_units_Z   2
loop_
 _symmetry_equiv_pos_site_id
 _symmetry_equiv_pos_as_xyz
  1  'x, y, z'
loop_
 _atom_site_type_symbol
 _atom_site_label
 _atom_site_symmetry_multiplicity
 _atom_site_fract_x
 _atom_site_fract_y
 _atom_site_fract_z
 _atom_site_occupancy
  Pr  Pr0  1  0.26164975  0.45232639  0.85879799  1
  Pr  Pr1  1  0.74029811  0.50196692  0.15441991  1
  Pr  Pr2  1  0.77614368  0.99468827  0.88003672  1
  Pr  Pr3  1  0.23722605  0.00992794  0.13969160  1
  Mn  Mn4  1  0.27010451  0.53216283  0.57818579  1
  Mn  Mn5  1  0.71322970  0.50739400  0.39303935  1
  Mn  Mn6  1  0.01200722  0.98871870  0.01454793  1
  Mn  Mn7  1  0.79235520  0.94297177  0.61424418  1
  Mn  Mn8  1  0.18354182  0.96614873  0.41388665  1
  Mn  Mn9  1  0.53653136  0.48193648  0.03804101  1
  Sb  Sb10  1  0.90584969  0.03773797  0.47293892  1
  Sb  Sb11  1  0.11467374  0.94163869  0.55508832  1
  Sb  Sb12  1  0.02294388  0.48548509  0.80954392  1
  Sb  Sb13  1  0.97798405  0.51029645  0.20759242  1
  Sb  Sb14  1  0.38238820  0.51834818  0.44775658  1
  Sb  Sb15  1  0.60673540  0.50418388  0.53899235  1
  Sb  Sb16  1  0.53807626  0.96465583  0.82210652  1
  Sb  Sb17  1  0.45852392  0.05991762  0.17802118  1
  S  S18  1  0.94565560  0.98974027  0.82799326  1
  S  S19  1  0.06578326  0.97348584  0.20226470  1
  S  S20  1  0.43379657  0.07634626  0.99208440  1
  S  S21  1  0.60285613  0.97583976  0.03821488  1
  S  S22  1  0.17411409  0.00987208  0.90393385  1
  S  S23  1  0.83358843  0.01023346  0.11229568  1
  S  S24  1  0.11331567  0.49753435  0.67262973  1
  S  S25  1  0.91865113  0.47616730  0.37188688  1
  S  S26  1  0.74868514  0.99797393  0.32779246  1
  S  S27  1  0.27253516  0.97740398  0.69775404  1
  S  S28  1  0.14642137  0.43886395  0.44335280  1
  S  S29  1  0.83732700  0.41757451  0.56744546  1
  S  S30  1  0.46856449  0.47514147  0.85151360  1
  S  S31  1  0.57837498  0.53763650  0.21177542  1
  S  S32  1  0.92548165  0.43350933  0.99683524  1
  S  S33  1  0.08632860  0.53480270  0.01655346  1
  S  S34  1  0.68155872  0.51953162  0.91398628  1
  S  S35  1  0.33487441  0.51248409  0.08325870  1
  S  S36  1  0.58559122  0.98583642  0.63633453  1
  S  S37  1  0.40129445  0.00820594  0.34722741  1
  S  S38  1  0.23531476  0.53288044  0.28676176  1
  S  S39  1  0.76345603  0.47023386  0.68365517  1
  S  S40  1  0.67447105  0.05218781  0.44415083  1
  S  S41  1  0.31631255  0.02080851  0.53718620  1
