# generated using pymatgen
data_Pr2Mn3(SbS3)4
_symmetry_space_group_name_H-M   'P 1'
_cell_length_a   20.02960800
_cell_length_b   3.90410600
_cell_length_c   14.95364829
_cell_angle_alpha   90.00000000
_cell_angle_beta   126.33350609
_cell_angle_gamma   90.00000000
_symmetry_Int_Tables_number   1
_chemical_formula_structural   Pr2Mn3(SbS3)4
_chemical_formula_sum   'Pr4 Mn6 Sb8 S24'
_cell_volume   942.00006694
_cell_formula_units_Z   2
loop_
 _symmetry_equiv_pos_site_id
 _symmetry_equiv_pos_as_xyz
  1  'x, y, z'
loop_
 _atom_site_type_symbol
 _atom_site_label
 _atom_site_symmetry_multiplicity
 _atom_site_fract_x
 _atom_site_fract_y
 _atom_site_fract_z
 _atom_site_occupancy
  Pr  Pr0  1  0.26138099  0.45295548  0.85866113  1
  Pr  Pr1  1  0.74019305  0.50176274  0.15436618  1
  Pr  Pr2  1  0.77620007  0.99485313  0.88031316  1
  Pr  Pr3  1  0.23733791  0.01097606  0.13977755  1
  Mn  Mn4  1  0.27008888  0.53067255  0.57793463  1
  Mn  Mn5  1  0.71322431  0.50869115  0.39335025  1
  Mn  Mn6  1  0.01183289  0.98907982  0.01460756  1
  Mn  Mn7  1  0.79262323  0.94424337  0.61449169  1
  Mn  Mn8  1  0.18331468  0.96757243  0.41395750  1
  Mn  Mn9  1  0.53629079  0.48362203  0.03756559  1
  Sb  Sb10  1  0.90582363  0.03756135  0.47301094  1
  Sb  Sb11  1  0.11478763  0.94204880  0.55490753  1
  Sb  Sb12  1  0.02307114  0.48542103  0.80948336  1
  Sb  Sb13  1  0.97785952  0.50942307  0.20743984  1
  Sb  Sb14  1  0.38238497  0.51816787  0.44747141  1
  Sb  Sb15  1  0.60651386  0.50480246  0.53876626  1
  Sb  Sb16  1  0.53802936  0.96499877  0.82224728  1
  Sb  Sb17  1  0.45875104  0.05956810  0.17820826  1
  S  S18  1  0.94554298  0.98995664  0.82811812  1
  S  S19  1  0.06570354  0.97358106  0.20241812  1
  S  S20  1  0.43387894  0.07636254  0.99210913  1
  S  S21  1  0.60296977  0.97686799  0.03856412  1
  S  S22  1  0.17426895  0.00726587  0.90408638  1
  S  S23  1  0.83364793  0.01091611  0.11243455  1
  S  S24  1  0.11319836  0.49705704  0.67257874  1
  S  S25  1  0.91867868  0.47517834  0.37230006  1
  S  S26  1  0.74888845  0.99911668  0.32802256  1
  S  S27  1  0.27265749  0.97745232  0.69824983  1
  S  S28  1  0.14642293  0.43810670  0.44345667  1
  S  S29  1  0.83737012  0.41740060  0.56704248  1
  S  S30  1  0.46833604  0.47738747  0.85126802  1
  S  S31  1  0.57870665  0.53698857  0.21206782  1
  S  S32  1  0.92546459  0.43365934  0.99721243  1
  S  S33  1  0.08637371  0.53528505  0.01677940  1
  S  S34  1  0.68141091  0.52039436  0.91360615  1
  S  S35  1  0.33464419  0.51299327  0.08309201  1
  S  S36  1  0.58568055  0.98525614  0.63655450  1
  S  S37  1  0.40109068  0.00884194  0.34708606  1
  S  S38  1  0.23501295  0.53345537  0.28699797  1
  S  S39  1  0.76341815  0.47106037  0.68399761  1
  S  S40  1  0.67449273  0.05242877  0.44379287  1
  S  S41  1  0.31612697  0.02270828  0.53715706  1
