# generated using pymatgen
data_Pr2Mn3(SbS3)4
_symmetry_space_group_name_H-M   'P 1'
_cell_length_a   20.02960800
_cell_length_b   3.90410600
_cell_length_c   14.95364829
_cell_angle_alpha   90.00000000
_cell_angle_beta   126.33350609
_cell_angle_gamma   90.00000000
_symmetry_Int_Tables_number   1
_chemical_formula_structural   Pr2Mn3(SbS3)4
_chemical_formula_sum   'Pr4 Mn6 Sb8 S24'
_cell_volume   942.00006694
_cell_formula_units_Z   2
loop_
 _symmetry_equiv_pos_site_id
 _symmetry_equiv_pos_as_xyz
  1  'x, y, z'
loop_
 _atom_site_type_symbol
 _atom_site_label
 _atom_site_symmetry_multiplicity
 _atom_site_fract_x
 _atom_site_fract_y
 _atom_site_fract_z
 _atom_site_occupancy
  Pr  Pr0  1  0.26111572  0.45374711  0.85847719  1
  Pr  Pr1  1  0.74010671  0.50172054  0.15429448  1
  Pr  Pr2  1  0.77618506  0.99521290  0.88056143  1
  Pr  Pr3  1  0.23735752  0.01202621  0.13981333  1
  Mn  Mn4  1  0.27006955  0.52923102  0.57770349  1
  Mn  Mn5  1  0.71315711  0.50980920  0.39362218  1
  Mn  Mn6  1  0.01175079  0.98926799  0.01478400  1
  Mn  Mn7  1  0.79282872  0.94572563  0.61450967  1
  Mn  Mn8  1  0.18306635  0.96937304  0.41404698  1
  Mn  Mn9  1  0.53604357  0.48430470  0.03704072  1
  Sb  Sb10  1  0.90580828  0.03748129  0.47308682  1
  Sb  Sb11  1  0.11484276  0.94234403  0.55471428  1
  Sb  Sb12  1  0.02316612  0.48529500  0.80938675  1
  Sb  Sb13  1  0.97778334  0.50834661  0.20734111  1
  Sb  Sb14  1  0.38227994  0.51812291  0.44717793  1
  Sb  Sb15  1  0.60626838  0.50562523  0.53849644  1
  Sb  Sb16  1  0.53802005  0.96547724  0.82238815  1
  Sb  Sb17  1  0.45898843  0.05904058  0.17827555  1
  S  S18  1  0.94551967  0.98982860  0.82837399  1
  S  S19  1  0.06556095  0.97291948  0.20247006  1
  S  S20  1  0.43383425  0.07698127  0.99195776  1
  S  S21  1  0.60301353  0.97892281  0.03881352  1
  S  S22  1  0.17441774  0.00529818  0.90435183  1
  S  S23  1  0.83367256  0.01171492  0.11265222  1
  S  S24  1  0.11310828  0.49598616  0.67256638  1
  S  S25  1  0.91850365  0.47337761  0.37257346  1
  S  S26  1  0.74892206  0.00012901  0.32817668  1
  S  S27  1  0.27282307  0.97729002  0.69891198  1
  S  S28  1  0.14626986  0.43790134  0.44353453  1
  S  S29  1  0.83748449  0.41777019  0.56683989  1
  S  S30  1  0.46819001  0.47928212  0.85124864  1
  S  S31  1  0.57890828  0.53640158  0.21218302  1
  S  S32  1  0.92550361  0.43344290  0.99759839  1
  S  S33  1  0.08641653  0.53520190  0.01696832  1
  S  S34  1  0.68120190  0.52105507  0.91301846  1
  S  S35  1  0.33443068  0.51355811  0.08300172  1
  S  S36  1  0.58588694  0.98329912  0.63672581  1
  S  S37  1  0.40077037  0.00925574  0.34703744  1
  S  S38  1  0.23468052  0.53386401  0.28711608  1
  S  S39  1  0.76345825  0.47182936  0.68439632  1
  S  S40  1  0.67469303  0.05274137  0.44365320  1
  S  S41  1  0.31605102  0.02504073  0.53723892  1
