# generated using pymatgen
data_Pr2Mn3(SbS3)4
_symmetry_space_group_name_H-M   'P 1'
_cell_length_a   20.02960800
_cell_length_b   3.90410600
_cell_length_c   14.95364829
_cell_angle_alpha   90.00000000
_cell_angle_beta   126.33350609
_cell_angle_gamma   90.00000000
_symmetry_Int_Tables_number   1
_chemical_formula_structural   Pr2Mn3(SbS3)4
_chemical_formula_sum   'Pr4 Mn6 Sb8 S24'
_cell_volume   942.00006694
_cell_formula_units_Z   2
loop_
 _symmetry_equiv_pos_site_id
 _symmetry_equiv_pos_as_xyz
  1  'x, y, z'
loop_
 _atom_site_type_symbol
 _atom_site_label
 _atom_site_symmetry_multiplicity
 _atom_site_fract_x
 _atom_site_fract_y
 _atom_site_fract_z
 _atom_site_occupancy
  Pr  Pr0  1  0.26084251  0.45469228  0.85835777  1
  Pr  Pr1  1  0.74007636  0.50146943  0.15420736  1
  Pr  Pr2  1  0.77612177  0.99564912  0.88087751  1
  Pr  Pr3  1  0.23744323  0.01296057  0.13990601  1
  Mn  Mn4  1  0.27004621  0.52774193  0.57739498  1
  Mn  Mn5  1  0.71321781  0.51082375  0.39388117  1
  Mn  Mn6  1  0.01176702  0.98977792  0.01499402  1
  Mn  Mn7  1  0.79290785  0.94724906  0.61447126  1
  Mn  Mn8  1  0.18291519  0.97112447  0.41412717  1
  Mn  Mn9  1  0.53569542  0.48529537  0.03644589  1
  Sb  Sb10  1  0.90578855  0.03734090  0.47314931  1
  Sb  Sb11  1  0.11486479  0.94261918  0.55447623  1
  Sb  Sb12  1  0.02321379  0.48511157  0.80933189  1
  Sb  Sb13  1  0.97767467  0.50762624  0.20729915  1
  Sb  Sb14  1  0.38230215  0.51799896  0.44703740  1
  Sb  Sb15  1  0.60600547  0.50584309  0.53823655  1
  Sb  Sb16  1  0.53801681  0.96580459  0.82256157  1
  Sb  Sb17  1  0.45919627  0.05877772  0.17833060  1
  S  S18  1  0.94536728  0.98971959  0.82847972  1
  S  S19  1  0.06533766  0.97214724  0.20242211  1
  S  S20  1  0.43388890  0.07707286  0.99204103  1
  S  S21  1  0.60295042  0.98095800  0.03915919  1
  S  S22  1  0.17466195  0.00338931  0.90456199  1
  S  S23  1  0.83377421  0.01235740  0.11316656  1
  S  S24  1  0.11320213  0.49459185  0.67272736  1
  S  S25  1  0.91840822  0.47146844  0.37289329  1
  S  S26  1  0.74909666  0.00118607  0.32841162  1
  S  S27  1  0.27292165  0.97708618  0.69938496  1
  S  S28  1  0.14621374  0.43701065  0.44356155  1
  S  S29  1  0.83768218  0.41834812  0.56676850  1
  S  S30  1  0.46797086  0.48110270  0.85118155  1
  S  S31  1  0.57928638  0.53606234  0.21238939  1
  S  S32  1  0.92552814  0.43389317  0.99787249  1
  S  S33  1  0.08645509  0.53556570  0.01718065  1
  S  S34  1  0.68103014  0.52242776  0.91242336  1
  S  S35  1  0.33428121  0.51442405  0.08325224  1
  S  S36  1  0.58613073  0.98161435  0.63685594  1
  S  S37  1  0.40049246  0.00996171  0.34707405  1
  S  S38  1  0.23447648  0.53388928  0.28737741  1
  S  S39  1  0.76342407  0.47244071  0.68475266  1
  S  S40  1  0.67478427  0.05267536  0.44359751  1
  S  S41  1  0.31612182  0.02629069  0.53726013  1
