# generated using pymatgen
data_Pr2Mn3(SbS3)4
_symmetry_space_group_name_H-M   'P 1'
_cell_length_a   20.02960800
_cell_length_b   3.90410600
_cell_length_c   14.95364829
_cell_angle_alpha   90.00000000
_cell_angle_beta   126.33350609
_cell_angle_gamma   90.00000000
_symmetry_Int_Tables_number   1
_chemical_formula_structural   Pr2Mn3(SbS3)4
_chemical_formula_sum   'Pr4 Mn6 Sb8 S24'
_cell_volume   942.00006694
_cell_formula_units_Z   2
loop_
 _symmetry_equiv_pos_site_id
 _symmetry_equiv_pos_as_xyz
  1  'x, y, z'
loop_
 _atom_site_type_symbol
 _atom_site_label
 _atom_site_symmetry_multiplicity
 _atom_site_fract_x
 _atom_site_fract_y
 _atom_site_fract_z
 _atom_site_occupancy
  Pr  Pr0  1  0.26042150  0.45554683  0.85805894  1
  Pr  Pr1  1  0.74000558  0.50110990  0.15418125  1
  Pr  Pr2  1  0.77604001  0.99614515  0.88119448  1
  Pr  Pr3  1  0.23749104  0.01371711  0.13997820  1
  Mn  Mn4  1  0.27005603  0.52648477  0.57714295  1
  Mn  Mn5  1  0.71331895  0.51176571  0.39418903  1
  Mn  Mn6  1  0.01178594  0.99041508  0.01513613  1
  Mn  Mn7  1  0.79312985  0.94882589  0.61464903  1
  Mn  Mn8  1  0.18273428  0.97265290  0.41425046  1
  Mn  Mn9  1  0.53548031  0.48612655  0.03610198  1
  Sb  Sb10  1  0.90573593  0.03724237  0.47313285  1
  Sb  Sb11  1  0.11484245  0.94275088  0.55436188  1
  Sb  Sb12  1  0.02326957  0.48521573  0.80926296  1
  Sb  Sb13  1  0.97752802  0.50714101  0.20722699  1
  Sb  Sb14  1  0.38232581  0.51768108  0.44697054  1
  Sb  Sb15  1  0.60567409  0.50612588  0.53786276  1
  Sb  Sb16  1  0.53802906  0.96628190  0.82283679  1
  Sb  Sb17  1  0.45937345  0.05887301  0.17840706  1
  S  S18  1  0.94529638  0.98968610  0.82865221  1
  S  S19  1  0.06511376  0.97135149  0.20251403  1
  S  S20  1  0.43397861  0.07712174  0.99207850  1
  S  S21  1  0.60268298  0.98345474  0.03926667  1
  S  S22  1  0.17489788  0.00188264  0.90462368  1
  S  S23  1  0.83383073  0.01227531  0.11351355  1
  S  S24  1  0.11328272  0.49280430  0.67296985  1
  S  S25  1  0.91818316  0.47059711  0.37309667  1
  S  S26  1  0.74930376  0.00211414  0.32876293  1
  S  S27  1  0.27296596  0.97653419  0.69995614  1
  S  S28  1  0.14619121  0.43670600  0.44356110  1
  S  S29  1  0.83781732  0.41864647  0.56673475  1
  S  S30  1  0.46766761  0.48191361  0.85113211  1
  S  S31  1  0.57965330  0.53563760  0.21269812  1
  S  S32  1  0.92557764  0.43409944  0.99798834  1
  S  S33  1  0.08639506  0.53550901  0.01728125  1
  S  S34  1  0.68097920  0.52334932  0.91191209  1
  S  S35  1  0.33410594  0.51508075  0.08338274  1
  S  S36  1  0.58643706  0.97987834  0.63706584  1
  S  S37  1  0.40009857  0.01050705  0.34707528  1
  S  S38  1  0.23424290  0.53376682  0.28745704  1
  S  S39  1  0.76340211  0.47365372  0.68524645  1
  S  S40  1  0.67479606  0.05226965  0.44360693  1
  S  S41  1  0.31620129  0.02719769  0.53731083  1
