# generated using pymatgen
data_Pr2Mn3(SbS3)4
_symmetry_space_group_name_H-M   'P 1'
_cell_length_a   20.02960800
_cell_length_b   3.90410600
_cell_length_c   14.95364829
_cell_angle_alpha   90.00000000
_cell_angle_beta   126.33350609
_cell_angle_gamma   90.00000000
_symmetry_Int_Tables_number   1
_chemical_formula_structural   Pr2Mn3(SbS3)4
_chemical_formula_sum   'Pr4 Mn6 Sb8 S24'
_cell_volume   942.00006694
_cell_formula_units_Z   2
loop_
 _symmetry_equiv_pos_site_id
 _symmetry_equiv_pos_as_xyz
  1  'x, y, z'
loop_
 _atom_site_type_symbol
 _atom_site_label
 _atom_site_symmetry_multiplicity
 _atom_site_fract_x
 _atom_site_fract_y
 _atom_site_fract_z
 _atom_site_occupancy
  Pr  Pr0  1  0.26003953  0.45633651  0.85776780  1
  Pr  Pr1  1  0.73994575  0.50055178  0.15423615  1
  Pr  Pr2  1  0.77602622  0.99663167  0.88150333  1
  Pr  Pr3  1  0.23757727  0.01433917  0.14014192  1
  Mn  Mn4  1  0.27009592  0.52528271  0.57710948  1
  Mn  Mn5  1  0.71339221  0.51258834  0.39438542  1
  Mn  Mn6  1  0.01181818  0.99086067  0.01530984  1
  Mn  Mn7  1  0.79341748  0.94985098  0.61479135  1
  Mn  Mn8  1  0.18273384  0.97423493  0.41443713  1
  Mn  Mn9  1  0.53527694  0.48678458  0.03582050  1
  Sb  Sb10  1  0.90575619  0.03702657  0.47321698  1
  Sb  Sb11  1  0.11486969  0.94261266  0.55431373  1
  Sb  Sb12  1  0.02326064  0.48531229  0.80913361  1
  Sb  Sb13  1  0.97737862  0.50672164  0.20711859  1
  Sb  Sb14  1  0.38227852  0.51761827  0.44690454  1
  Sb  Sb15  1  0.60533396  0.50597651  0.53754918  1
  Sb  Sb16  1  0.53801566  0.96650489  0.82311264  1
  Sb  Sb17  1  0.45956101  0.05924811  0.17846962  1
  S  S18  1  0.94510599  0.99014275  0.82863314  1
  S  S19  1  0.06493655  0.97101173  0.20269285  1
  S  S20  1  0.43407417  0.07724185  0.99229051  1
  S  S21  1  0.60251001  0.98545431  0.03928199  1
  S  S22  1  0.17518165  0.00067427  0.90473330  1
  S  S23  1  0.83373057  0.01244196  0.11357368  1
  S  S24  1  0.11348372  0.49095668  0.67336155  1
  S  S25  1  0.91783811  0.46994564  0.37301269  1
  S  S26  1  0.74954120  0.00357850  0.32920898  1
  S  S27  1  0.27311023  0.97535322  0.70062058  1
  S  S28  1  0.14619976  0.43640436  0.44363549  1
  S  S29  1  0.83796133  0.41857990  0.56686559  1
  S  S30  1  0.46751519  0.48271659  0.85123787  1
  S  S31  1  0.57997572  0.53573820  0.21299446  1
  S  S32  1  0.92558486  0.43377358  0.99802863  1
  S  S33  1  0.08626969  0.53517748  0.01737751  1
  S  S34  1  0.68102642  0.52363849  0.91150563  1
  S  S35  1  0.33387531  0.51571564  0.08330990  1
  S  S36  1  0.58667781  0.97881013  0.63713560  1
  S  S37  1  0.39970681  0.01141158  0.34712784  1
  S  S38  1  0.23411968  0.53359473  0.28742682  1
  S  S39  1  0.76336467  0.47466465  0.68580741  1
  S  S40  1  0.67470033  0.05127560  0.44369928  1
  S  S41  1  0.31623858  0.02805545  0.53734947  1
