# generated using pymatgen
data_Pr2Mn3(SbS3)4
_symmetry_space_group_name_H-M   'P 1'
_cell_length_a   20.02960800
_cell_length_b   3.90410600
_cell_length_c   14.95364829
_cell_angle_alpha   90.00000000
_cell_angle_beta   126.33350609
_cell_angle_gamma   90.00000000
_symmetry_Int_Tables_number   1
_chemical_formula_structural   Pr2Mn3(SbS3)4
_chemical_formula_sum   'Pr4 Mn6 Sb8 S24'
_cell_volume   942.00006694
_cell_formula_units_Z   2
loop_
 _symmetry_equiv_pos_site_id
 _symmetry_equiv_pos_as_xyz
  1  'x, y, z'
loop_
 _atom_site_type_symbol
 _atom_site_label
 _atom_site_symmetry_multiplicity
 _atom_site_fract_x
 _atom_site_fract_y
 _atom_site_fract_z
 _atom_site_occupancy
  Pr  Pr0  1  0.25975507  0.45694722  0.85749363  1
  Pr  Pr1  1  0.73989921  0.50001149  0.15427497  1
  Pr  Pr2  1  0.77597583  0.99723009  0.88179242  1
  Pr  Pr3  1  0.23769436  0.01484066  0.14040570  1
  Mn  Mn4  1  0.27015465  0.52423912  0.57695645  1
  Mn  Mn5  1  0.71340935  0.51347034  0.39462586  1
  Mn  Mn6  1  0.01184184  0.99098628  0.01543164  1
  Mn  Mn7  1  0.79356939  0.95038670  0.61493938  1
  Mn  Mn8  1  0.18275037  0.97570967  0.41465902  1
  Mn  Mn9  1  0.53510324  0.48734226  0.03557379  1
  Sb  Sb10  1  0.90575097  0.03652943  0.47335157  1
  Sb  Sb11  1  0.11485759  0.94266905  0.55425046  1
  Sb  Sb12  1  0.02319014  0.48573721  0.80894192  1
  Sb  Sb13  1  0.97716150  0.50610694  0.20689380  1
  Sb  Sb14  1  0.38227681  0.51738727  0.44690204  1
  Sb  Sb15  1  0.60512214  0.50578497  0.53742435  1
  Sb  Sb16  1  0.53802947  0.96656157  0.82345992  1
  Sb  Sb17  1  0.45979091  0.05976421  0.17852117  1
  S  S18  1  0.94494022  0.99019765  0.82868241  1
  S  S19  1  0.06472829  0.97044779  0.20280147  1
  S  S20  1  0.43413187  0.07672124  0.99260114  1
  S  S21  1  0.60227158  0.98729954  0.03920504  1
  S  S22  1  0.17568025  0.99864389  0.90504284  1
  S  S23  1  0.83359050  0.01232687  0.11361428  1
  S  S24  1  0.11359818  0.48905706  0.67377002  1
  S  S25  1  0.91747364  0.46937556  0.37298068  1
  S  S26  1  0.74983828  0.00489227  0.32961152  1
  S  S27  1  0.27315955  0.97408008  0.70114844  1
  S  S28  1  0.14633783  0.43661203  0.44359309  1
  S  S29  1  0.83811123  0.41924345  0.56689524  1
  S  S30  1  0.46756522  0.48357787  0.85135564  1
  S  S31  1  0.58022479  0.53575045  0.21325143  1
  S  S32  1  0.92552359  0.43373987  0.99791682  1
  S  S33  1  0.08606955  0.53480571  0.01757538  1
  S  S34  1  0.68104017  0.52339590  0.91108325  1
  S  S35  1  0.33363832  0.51626139  0.08316731  1
  S  S36  1  0.58691788  0.97777435  0.63727637  1
  S  S37  1  0.39941916  0.01194343  0.34733205  1
  S  S38  1  0.23403036  0.53376102  0.28729443  1
  S  S39  1  0.76352478  0.47564548  0.68659508  1
  S  S40  1  0.67482038  0.04991139  0.44395390  1
  S  S41  1  0.31626905  0.02902555  0.53741311  1
