# generated using pymatgen
data_Pr2Mn3(SbS3)4
_symmetry_space_group_name_H-M   'P 1'
_cell_length_a   20.02960800
_cell_length_b   3.90410600
_cell_length_c   14.95364829
_cell_angle_alpha   90.00000000
_cell_angle_beta   126.33350609
_cell_angle_gamma   90.00000000
_symmetry_Int_Tables_number   1
_chemical_formula_structural   Pr2Mn3(SbS3)4
_chemical_formula_sum   'Pr4 Mn6 Sb8 S24'
_cell_volume   942.00006694
_cell_formula_units_Z   2
loop_
 _symmetry_equiv_pos_site_id
 _symmetry_equiv_pos_as_xyz
  1  'x, y, z'
loop_
 _atom_site_type_symbol
 _atom_site_label
 _atom_site_symmetry_multiplicity
 _atom_site_fract_x
 _atom_site_fract_y
 _atom_site_fract_z
 _atom_site_occupancy
  Pr  Pr0  1  0.25953607  0.45723141  0.85722455  1
  Pr  Pr1  1  0.73991858  0.49973627  0.15442589  1
  Pr  Pr2  1  0.77588070  0.99807932  0.88193640  1
  Pr  Pr3  1  0.23777014  0.01525726  0.14066729  1
  Mn  Mn4  1  0.27028798  0.52349601  0.57698637  1
  Mn  Mn5  1  0.71342058  0.51408555  0.39489557  1
  Mn  Mn6  1  0.01193563  0.99098655  0.01572012  1
  Mn  Mn7  1  0.79374980  0.95099292  0.61517923  1
  Mn  Mn8  1  0.18273898  0.97654356  0.41501676  1
  Mn  Mn9  1  0.53503551  0.48799845  0.03544019  1
  Sb  Sb10  1  0.90574904  0.03631467  0.47341749  1
  Sb  Sb11  1  0.11489472  0.94241642  0.55421394  1
  Sb  Sb12  1  0.02312376  0.48617105  0.80875446  1
  Sb  Sb13  1  0.97693484  0.50532800  0.20657805  1
  Sb  Sb14  1  0.38229542  0.51681775  0.44683523  1
  Sb  Sb15  1  0.60494700  0.50564867  0.53741901  1
  Sb  Sb16  1  0.53800952  0.96616371  0.82371436  1
  Sb  Sb17  1  0.46005192  0.06057586  0.17864066  1
  S  S18  1  0.94484066  0.99073666  0.82871040  1
  S  S19  1  0.06468985  0.97012782  0.20312789  1
  S  S20  1  0.43428896  0.07611052  0.99270534  1
  S  S21  1  0.60203749  0.98867366  0.03905223  1
  S  S22  1  0.17611814  0.99653453  0.90525231  1
  S  S23  1  0.83328649  0.01247929  0.11340138  1
  S  S24  1  0.11359321  0.48729300  0.67412432  1
  S  S25  1  0.91713551  0.46904433  0.37291401  1
  S  S26  1  0.75025426  0.00623410  0.33020560  1
  S  S27  1  0.27301050  0.97236660  0.70134776  1
  S  S28  1  0.14646959  0.43678415  0.44369023  1
  S  S29  1  0.83833633  0.42034314  0.56699229  1
  S  S30  1  0.46751827  0.48412371  0.85129403  1
  S  S31  1  0.58046128  0.53549714  0.21342397  1
  S  S32  1  0.92555912  0.43368255  0.99792519  1
  S  S33  1  0.08585166  0.53573418  0.01769293  1
  S  S34  1  0.68116312  0.52364609  0.91095347  1
  S  S35  1  0.33333620  0.51574335  0.08287789  1
  S  S36  1  0.58716532  0.97596769  0.63742515  1
  S  S37  1  0.39913816  0.01282990  0.34750754  1
  S  S38  1  0.23377015  0.53373302  0.28690495  1
  S  S39  1  0.76340430  0.47604779  0.68715790  1
  S  S40  1  0.67470423  0.04897184  0.44403881  1
  S  S41  1  0.31631722  0.02934019  0.53743366  1
