# generated using pymatgen
data_Pr2Mn3(SbS3)4
_symmetry_space_group_name_H-M   'P 1'
_cell_length_a   20.02960800
_cell_length_b   3.90410600
_cell_length_c   14.95364829
_cell_angle_alpha   90.00000000
_cell_angle_beta   126.33350609
_cell_angle_gamma   90.00000000
_symmetry_Int_Tables_number   1
_chemical_formula_structural   Pr2Mn3(SbS3)4
_chemical_formula_sum   'Pr4 Mn6 Sb8 S24'
_cell_volume   942.00006694
_cell_formula_units_Z   2
loop_
 _symmetry_equiv_pos_site_id
 _symmetry_equiv_pos_as_xyz
  1  'x, y, z'
loop_
 _atom_site_type_symbol
 _atom_site_label
 _atom_site_symmetry_multiplicity
 _atom_site_fract_x
 _atom_site_fract_y
 _atom_site_fract_z
 _atom_site_occupancy
  Pr  Pr0  1  0.25934665  0.45775148  0.85697625  1
  Pr  Pr1  1  0.73999335  0.49976604  0.15465120  1
  Pr  Pr2  1  0.77574970  0.99884436  0.88198177  1
  Pr  Pr3  1  0.23784478  0.01572475  0.14094377  1
  Mn  Mn4  1  0.27044683  0.52324801  0.57708325  1
  Mn  Mn5  1  0.71345568  0.51469574  0.39527625  1
  Mn  Mn6  1  0.01197258  0.99091218  0.01582257  1
  Mn  Mn7  1  0.79394192  0.95130760  0.61558441  1
  Mn  Mn8  1  0.18264862  0.97748526  0.41519707  1
  Mn  Mn9  1  0.53503598  0.48833753  0.03542649  1
  Sb  Sb10  1  0.90583954  0.03643076  0.47357560  1
  Sb  Sb11  1  0.11500582  0.94212374  0.55425697  1
  Sb  Sb12  1  0.02300188  0.48631461  0.80848013  1
  Sb  Sb13  1  0.97674416  0.50464400  0.20628100  1
  Sb  Sb14  1  0.38227120  0.51655866  0.44670461  1
  Sb  Sb15  1  0.60483334  0.50534160  0.53745795  1
  Sb  Sb16  1  0.53801711  0.96577567  0.82397826  1
  Sb  Sb17  1  0.46017832  0.06122925  0.17871337  1
  S  S18  1  0.94472163  0.99098902  0.82870687  1
  S  S19  1  0.06475621  0.96977368  0.20352823  1
  S  S20  1  0.43443618  0.07517410  0.99281347  1
  S  S21  1  0.60189502  0.99040693  0.03899552  1
  S  S22  1  0.17654638  0.99410128  0.90559397  1
  S  S23  1  0.83304376  0.01209810  0.11313387  1
  S  S24  1  0.11338068  0.48579894  0.67417246  1
  S  S25  1  0.91685384  0.46887513  0.37278816  1
  S  S26  1  0.75062530  0.00773573  0.33058511  1
  S  S27  1  0.27292430  0.97022363  0.70168880  1
  S  S28  1  0.14661191  0.43755861  0.44374456  1
  S  S29  1  0.83848428  0.42174502  0.56698765  1
  S  S30  1  0.46744112  0.48402641  0.85129599  1
  S  S31  1  0.58063810  0.53631108  0.21339202  1
  S  S32  1  0.92553716  0.43375759  0.99796438  1
  S  S33  1  0.08562858  0.53574084  0.01759050  1
  S  S34  1  0.68119197  0.52375460  0.91075314  1
  S  S35  1  0.33298643  0.51571164  0.08261812  1
  S  S36  1  0.58726335  0.97384083  0.63766290  1
  S  S37  1  0.39901560  0.01326818  0.34774981  1
  S  S38  1  0.23355798  0.53342017  0.28658426  1
  S  S39  1  0.76321801  0.47649502  0.68760375  1
  S  S40  1  0.67458271  0.04757765  0.44421181  1
  S  S41  1  0.31637588  0.02929176  0.53740348  1
