# generated using pymatgen
data_Pr2Mn3(SbS3)4
_symmetry_space_group_name_H-M   'P 1'
_cell_length_a   20.02960800
_cell_length_b   3.90410600
_cell_length_c   14.95364829
_cell_angle_alpha   90.00000000
_cell_angle_beta   126.33350609
_cell_angle_gamma   90.00000000
_symmetry_Int_Tables_number   1
_chemical_formula_structural   Pr2Mn3(SbS3)4
_chemical_formula_sum   'Pr4 Mn6 Sb8 S24'
_cell_volume   942.00006694
_cell_formula_units_Z   2
loop_
 _symmetry_equiv_pos_site_id
 _symmetry_equiv_pos_as_xyz
  1  'x, y, z'
loop_
 _atom_site_type_symbol
 _atom_site_label
 _atom_site_symmetry_multiplicity
 _atom_site_fract_x
 _atom_site_fract_y
 _atom_site_fract_z
 _atom_site_occupancy
  Pr  Pr0  1  0.26950049  0.50623042  0.87577916  1
  Pr  Pr1  1  0.73216865  0.51923888  0.13182882  1
  Pr  Pr2  1  0.76456087  0.02865496  0.87170193  1
  Pr  Pr3  1  0.22866354  0.95632454  0.12551932  1
  Mn  Mn4  1  0.29566159  0.44930943  0.60899051  1
  Mn  Mn5  1  0.68662444  0.45235686  0.36235934  1
  Mn  Mn6  1  0.99893834  0.97442960  0.00542166  1
  Mn  Mn7  1  0.79027467  0.00684050  0.61557601  1
  Mn  Mn8  1  0.20201876  0.02826245  0.37328003  1
  Mn  Mn9  1  0.48198295  0.47327383  0.97883844  1
  Sb  Sb10  1  0.89370413  0.96694160  0.45099976  1
  Sb  Sb11  1  0.11451542  0.97871934  0.54949476  1
  Sb  Sb12  1  0.04028244  0.51237149  0.83075773  1
  Sb  Sb13  1  0.96767687  0.48331959  0.19236104  1
  Sb  Sb14  1  0.39886941  0.49352318  0.45236314  1
  Sb  Sb15  1  0.61356110  0.48508274  0.54823302  1
  Sb  Sb16  1  0.53050723  0.97189181  0.80604977  1
  Sb  Sb17  1  0.46599001  0.03188001  0.18371982  1
  S  S18  1  0.93229889  0.97673777  0.79661109  1
  S  S19  1  0.06692136  0.98292487  0.19986026  1
  S  S20  1  0.41991630  0.98444960  0.98080725  1
  S  S21  1  0.58254313  0.01170125  0.00218520  1
  S  S22  1  0.16283885  0.02226195  0.89776961  1
  S  S23  1  0.83096133  0.98004235  0.10893020  1
  S  S24  1  0.09152345  0.49051116  0.63894931  1
  S  S25  1  0.91461137  0.50870313  0.35703616  1
  S  S26  1  0.73332925  0.99622666  0.29804789  1
  S  S27  1  0.26307583  0.02006329  0.70043335  1
  S  S28  1  0.17184646  0.51616123  0.44292401  1
  S  S29  1  0.80869158  0.54547900  0.53766954  1
  S  S30  1  0.42998146  0.47859794  0.79188720  1
  S  S31  1  0.55516123  0.49014581  0.17509813  1
  S  S32  1  0.91492926  0.52703862  0.98470608  1
  S  S33  1  0.08417581  0.47931511  0.02332967  1
  S  S34  1  0.66511664  0.55821306  0.88513244  1
  S  S35  1  0.33004375  0.45671731  0.10150779  1
  S  S36  1  0.59001630  0.97884007  0.64274167  1
  S  S37  1  0.39502918  0.99511704  0.33576662  1
  S  S38  1  0.24209418  0.47958228  0.31152279  1
  S  S39  1  0.76125443  0.48329718  0.69171840  1
  S  S40  1  0.65958524  0.00056591  0.43667944  1
  S  S41  1  0.32874797  0.96411482  0.55550360  1
