# generated using pymatgen
data_Pr2Mn3(SbS3)4
_symmetry_space_group_name_H-M   'P 1'
_cell_length_a   20.02960800
_cell_length_b   3.90410600
_cell_length_c   14.95364829
_cell_angle_alpha   90.00000000
_cell_angle_beta   126.33350609
_cell_angle_gamma   90.00000000
_symmetry_Int_Tables_number   1
_chemical_formula_structural   Pr2Mn3(SbS3)4
_chemical_formula_sum   'Pr4 Mn6 Sb8 S24'
_cell_volume   942.00006694
_cell_formula_units_Z   2
loop_
 _symmetry_equiv_pos_site_id
 _symmetry_equiv_pos_as_xyz
  1  'x, y, z'
loop_
 _atom_site_type_symbol
 _atom_site_label
 _atom_site_symmetry_multiplicity
 _atom_site_fract_x
 _atom_site_fract_y
 _atom_site_fract_z
 _atom_site_occupancy
  Pr  Pr0  1  0.25909996  0.45840121  0.85677904  1
  Pr  Pr1  1  0.74004543  0.49991535  0.15480182  1
  Pr  Pr2  1  0.77564561  0.99959827  0.88199816  1
  Pr  Pr3  1  0.23790535  0.01616042  0.14111965  1
  Mn  Mn4  1  0.27049501  0.52337387  0.57706298  1
  Mn  Mn5  1  0.71338231  0.51500461  0.39566730  1
  Mn  Mn6  1  0.01205990  0.99113217  0.01602167  1
  Mn  Mn7  1  0.79410773  0.95199487  0.61589600  1
  Mn  Mn8  1  0.18258039  0.97843010  0.41528136  1
  Mn  Mn9  1  0.53500542  0.48871897  0.03545137  1
  Sb  Sb10  1  0.90585345  0.03647284  0.47359340  1
  Sb  Sb11  1  0.11509242  0.94212423  0.55423074  1
  Sb  Sb12  1  0.02291632  0.48631785  0.80831169  1
  Sb  Sb13  1  0.97663723  0.50436127  0.20607640  1
  Sb  Sb14  1  0.38226335  0.51635751  0.44659303  1
  Sb  Sb15  1  0.60472981  0.50489887  0.53744849  1
  Sb  Sb16  1  0.53807595  0.96531602  0.82418511  1
  Sb  Sb17  1  0.46033056  0.06209521  0.17877495  1
  S  S18  1  0.94477450  0.99105104  0.82870120  1
  S  S19  1  0.06485704  0.96932434  0.20388159  1
  S  S20  1  0.43442230  0.07438050  0.99277172  1
  S  S21  1  0.60161778  0.99198460  0.03877333  1
  S  S22  1  0.17693041  0.99196558  0.90597488  1
  S  S23  1  0.83282994  0.01168072  0.11292577  1
  S  S24  1  0.11313999  0.48401871  0.67398599  1
  S  S25  1  0.91670971  0.46863783  0.37283041  1
  S  S26  1  0.75086733  0.00918016  0.33092100  1
  S  S27  1  0.27296871  0.96864458  0.70198135  1
  S  S28  1  0.14679107  0.43755731  0.44396653  1
  S  S29  1  0.83875621  0.42310846  0.56712175  1
  S  S30  1  0.46727844  0.48364636  0.85125088  1
  S  S31  1  0.58073920  0.53686902  0.21332478  1
  S  S32  1  0.92533541  0.43344377  0.99780039  1
  S  S33  1  0.08555827  0.53532196  0.01767881  1
  S  S34  1  0.68123099  0.52334477  0.91059824  1
  S  S35  1  0.33265780  0.51508147  0.08215487  1
  S  S36  1  0.58740738  0.97206072  0.63799914  1
  S  S37  1  0.39891832  0.01412474  0.34807306  1
  S  S38  1  0.23335839  0.53307306  0.28633888  1
  S  S39  1  0.76302767  0.47665316  0.68805246  1
  S  S40  1  0.67451844  0.04671063  0.44440516  1
  S  S41  1  0.31643768  0.02932651  0.53738990  1
