# generated using pymatgen
data_Pr2Mn3(SbS3)4
_symmetry_space_group_name_H-M   'P 1'
_cell_length_a   20.02960800
_cell_length_b   3.90410600
_cell_length_c   14.95364829
_cell_angle_alpha   90.00000000
_cell_angle_beta   126.33350609
_cell_angle_gamma   90.00000000
_symmetry_Int_Tables_number   1
_chemical_formula_structural   Pr2Mn3(SbS3)4
_chemical_formula_sum   'Pr4 Mn6 Sb8 S24'
_cell_volume   942.00006694
_cell_formula_units_Z   2
loop_
 _symmetry_equiv_pos_site_id
 _symmetry_equiv_pos_as_xyz
  1  'x, y, z'
loop_
 _atom_site_type_symbol
 _atom_site_label
 _atom_site_symmetry_multiplicity
 _atom_site_fract_x
 _atom_site_fract_y
 _atom_site_fract_z
 _atom_site_occupancy
  Pr  Pr0  1  0.25880333  0.45905277  0.85659466  1
  Pr  Pr1  1  0.74003611  0.50008963  0.15492176  1
  Pr  Pr2  1  0.77554920  0.00069012  0.88202384  1
  Pr  Pr3  1  0.23797372  0.01669799  0.14134113  1
  Mn  Mn4  1  0.27055783  0.52327004  0.57696562  1
  Mn  Mn5  1  0.71329377  0.51495526  0.39602916  1
  Mn  Mn6  1  0.01209495  0.99084559  0.01614665  1
  Mn  Mn7  1  0.79428260  0.95235254  0.61615050  1
  Mn  Mn8  1  0.18239328  0.97908306  0.41521631  1
  Mn  Mn9  1  0.53503534  0.48935515  0.03557867  1
  Sb  Sb10  1  0.90590089  0.03658542  0.47363092  1
  Sb  Sb11  1  0.11515776  0.94244519  0.55421375  1
  Sb  Sb12  1  0.02289166  0.48618918  0.80820242  1
  Sb  Sb13  1  0.97648554  0.50392460  0.20585780  1
  Sb  Sb14  1  0.38222934  0.51660694  0.44651906  1
  Sb  Sb15  1  0.60461177  0.50412575  0.53741609  1
  Sb  Sb16  1  0.53813957  0.96482764  0.82437297  1
  Sb  Sb17  1  0.46048392  0.06284704  0.17871336  1
  S  S18  1  0.94478915  0.99124934  0.82867354  1
  S  S19  1  0.06468447  0.96941777  0.20401427  1
  S  S20  1  0.43435830  0.07396760  0.99270122  1
  S  S21  1  0.60137101  0.99319548  0.03861455  1
  S  S22  1  0.17740896  0.98978455  0.90658982  1
  S  S23  1  0.83248166  0.01211416  0.11247595  1
  S  S24  1  0.11284962  0.48227943  0.67373178  1
  S  S25  1  0.91660178  0.46926627  0.37279531  1
  S  S26  1  0.75102854  0.01048935  0.33122036  1
  S  S27  1  0.27296089  0.96698729  0.70221717  1
  S  S28  1  0.14682094  0.43730127  0.44402491  1
  S  S29  1  0.83888980  0.42431562  0.56723417  1
  S  S30  1  0.46708425  0.48362078  0.85129748  1
  S  S31  1  0.58076818  0.53778784  0.21328141  1
  S  S32  1  0.92528512  0.43269531  0.99780474  1
  S  S33  1  0.08532638  0.53472356  0.01754443  1
  S  S34  1  0.68123060  0.52331338  0.91029928  1
  S  S35  1  0.33223750  0.51435045  0.08171812  1
  S  S36  1  0.58755918  0.97055323  0.63826379  1
  S  S37  1  0.39892114  0.01493414  0.34863945  1
  S  S38  1  0.23311450  0.53248123  0.28602915  1
  S  S39  1  0.76281674  0.47641752  0.68829689  1
  S  S40  1  0.67443822  0.04606947  0.44456754  1
  S  S41  1  0.31644710  0.02983633  0.53731347  1
