# generated using pymatgen
data_Pr2Mn3(SbS3)4
_symmetry_space_group_name_H-M   'P 1'
_cell_length_a   20.02960800
_cell_length_b   3.90410600
_cell_length_c   14.95364829
_cell_angle_alpha   90.00000000
_cell_angle_beta   126.33350609
_cell_angle_gamma   90.00000000
_symmetry_Int_Tables_number   1
_chemical_formula_structural   Pr2Mn3(SbS3)4
_chemical_formula_sum   'Pr4 Mn6 Sb8 S24'
_cell_volume   942.00006694
_cell_formula_units_Z   2
loop_
 _symmetry_equiv_pos_site_id
 _symmetry_equiv_pos_as_xyz
  1  'x, y, z'
loop_
 _atom_site_type_symbol
 _atom_site_label
 _atom_site_symmetry_multiplicity
 _atom_site_fract_x
 _atom_site_fract_y
 _atom_site_fract_z
 _atom_site_occupancy
  Pr  Pr0  1  0.25855497  0.45959973  0.85653998  1
  Pr  Pr1  1  0.74003292  0.50036865  0.15496665  1
  Pr  Pr2  1  0.77544439  0.00181278  0.88213696  1
  Pr  Pr3  1  0.23799840  0.01753261  0.14144258  1
  Mn  Mn4  1  0.27073334  0.52318333  0.57684194  1
  Mn  Mn5  1  0.71317785  0.51481268  0.39635039  1
  Mn  Mn6  1  0.01226515  0.99106308  0.01640654  1
  Mn  Mn7  1  0.79427717  0.95261210  0.61617755  1
  Mn  Mn8  1  0.18227048  0.97967741  0.41524341  1
  Mn  Mn9  1  0.53500916  0.49059197  0.03562586  1
  Sb  Sb10  1  0.90590181  0.03653703  0.47367226  1
  Sb  Sb11  1  0.11513945  0.94265838  0.55411596  1
  Sb  Sb12  1  0.02283801  0.48612842  0.80807243  1
  Sb  Sb13  1  0.97634961  0.50355275  0.20563821  1
  Sb  Sb14  1  0.38213316  0.51672602  0.44639479  1
  Sb  Sb15  1  0.60448854  0.50358546  0.53749630  1
  Sb  Sb16  1  0.53829941  0.96415905  0.82463116  1
  Sb  Sb17  1  0.46073544  0.06328424  0.17872633  1
  S  S18  1  0.94483222  0.99151654  0.82884169  1
  S  S19  1  0.06448675  0.96959137  0.20415590  1
  S  S20  1  0.43422540  0.07396067  0.99257256  1
  S  S21  1  0.60127502  0.99436245  0.03840213  1
  S  S22  1  0.17785499  0.98816627  0.90696433  1
  S  S23  1  0.83222269  0.01221859  0.11227277  1
  S  S24  1  0.11265854  0.48065677  0.67360564  1
  S  S25  1  0.91658626  0.46939150  0.37279979  1
  S  S26  1  0.75118519  0.01217238  0.33138492  1
  S  S27  1  0.27306364  0.96584110  0.70244356  1
  S  S28  1  0.14673778  0.43753205  0.44399195  1
  S  S29  1  0.83894469  0.42537015  0.56733104  1
  S  S30  1  0.46685580  0.48343344  0.85129998  1
  S  S31  1  0.58073412  0.53868106  0.21301573  1
  S  S32  1  0.92520730  0.43182082  0.99788136  1
  S  S33  1  0.08505988  0.53376927  0.01740355  1
  S  S34  1  0.68120374  0.52326935  0.91008321  1
  S  S35  1  0.33176689  0.51408717  0.08135015  1
  S  S36  1  0.58759178  0.96935720  0.63834077  1
  S  S37  1  0.39894174  0.01586221  0.34919199  1
  S  S38  1  0.23290468  0.53201474  0.28565856  1
  S  S39  1  0.76255186  0.47673297  0.68851723  1
  S  S40  1  0.67453420  0.04492970  0.44486401  1
  S  S41  1  0.31653402  0.02994775  0.53744717  1
