# generated using pymatgen
data_Pr2Mn3(SbS3)4
_symmetry_space_group_name_H-M   'P 1'
_cell_length_a   20.02960800
_cell_length_b   3.90410600
_cell_length_c   14.95364829
_cell_angle_alpha   90.00000000
_cell_angle_beta   126.33350609
_cell_angle_gamma   90.00000000
_symmetry_Int_Tables_number   1
_chemical_formula_structural   Pr2Mn3(SbS3)4
_chemical_formula_sum   'Pr4 Mn6 Sb8 S24'
_cell_volume   942.00006694
_cell_formula_units_Z   2
loop_
 _symmetry_equiv_pos_site_id
 _symmetry_equiv_pos_as_xyz
  1  'x, y, z'
loop_
 _atom_site_type_symbol
 _atom_site_label
 _atom_site_symmetry_multiplicity
 _atom_site_fract_x
 _atom_site_fract_y
 _atom_site_fract_z
 _atom_site_occupancy
  Pr  Pr0  1  0.25837859  0.46002472  0.85655949  1
  Pr  Pr1  1  0.73998893  0.50069267  0.15497813  1
  Pr  Pr2  1  0.77526597  0.00307197  0.88215884  1
  Pr  Pr3  1  0.23807808  0.01828288  0.14160708  1
  Mn  Mn4  1  0.27088611  0.52328007  0.57666623  1
  Mn  Mn5  1  0.71311118  0.51492102  0.39673278  1
  Mn  Mn6  1  0.01243940  0.99087247  0.01663954  1
  Mn  Mn7  1  0.79428702  0.95242623  0.61616726  1
  Mn  Mn8  1  0.18212605  0.98018114  0.41543930  1
  Mn  Mn9  1  0.53500892  0.49186143  0.03571668  1
  Sb  Sb10  1  0.90581930  0.03630048  0.47363300  1
  Sb  Sb11  1  0.11519517  0.94285882  0.55416105  1
  Sb  Sb12  1  0.02283057  0.48571533  0.80798878  1
  Sb  Sb13  1  0.97631864  0.50346995  0.20551185  1
  Sb  Sb14  1  0.38201522  0.51706200  0.44624065  1
  Sb  Sb15  1  0.60441555  0.50313581  0.53760779  1
  Sb  Sb16  1  0.53841575  0.96355579  0.82481564  1
  Sb  Sb17  1  0.46096082  0.06368158  0.17863472  1
  S  S18  1  0.94494217  0.99102847  0.82898966  1
  S  S19  1  0.06441370  0.96917890  0.20452409  1
  S  S20  1  0.43414427  0.07371143  0.99258812  1
  S  S21  1  0.60091123  0.99512769  0.03788519  1
  S  S22  1  0.17829201  0.98723749  0.90736538  1
  S  S23  1  0.83205490  0.01287288  0.11221182  1
  S  S24  1  0.11240364  0.47912670  0.67343477  1
  S  S25  1  0.91660604  0.46975204  0.37281191  1
  S  S26  1  0.75123092  0.01370748  0.33139849  1
  S  S27  1  0.27321932  0.96486471  0.70273546  1
  S  S28  1  0.14679225  0.43802434  0.44405587  1
  S  S29  1  0.83906992  0.42624867  0.56752311  1
  S  S30  1  0.46648026  0.48311181  0.85120409  1
  S  S31  1  0.58094146  0.54042368  0.21291344  1
  S  S32  1  0.92499428  0.43172341  0.99781144  1
  S  S33  1  0.08486587  0.53281950  0.01736199  1
  S  S34  1  0.68115261  0.52319374  0.90984810  1
  S  S35  1  0.33135119  0.51344496  0.08116403  1
  S  S36  1  0.58766343  0.96814072  0.63832217  1
  S  S37  1  0.39896669  0.01691621  0.34969668  1
  S  S38  1  0.23273805  0.53141802  0.28523780  1
  S  S39  1  0.76220600  0.47722116  0.68838757  1
  S  S40  1  0.67468598  0.04436689  0.44516539  1
  S  S41  1  0.31667063  0.02967048  0.53772625  1
