# generated using pymatgen
data_Pr2Mn3(SbS3)4
_symmetry_space_group_name_H-M   'P 1'
_cell_length_a   20.02960800
_cell_length_b   3.90410600
_cell_length_c   14.95364829
_cell_angle_alpha   90.00000000
_cell_angle_beta   126.33350609
_cell_angle_gamma   90.00000000
_symmetry_Int_Tables_number   1
_chemical_formula_structural   Pr2Mn3(SbS3)4
_chemical_formula_sum   'Pr4 Mn6 Sb8 S24'
_cell_volume   942.00006694
_cell_formula_units_Z   2
loop_
 _symmetry_equiv_pos_site_id
 _symmetry_equiv_pos_as_xyz
  1  'x, y, z'
loop_
 _atom_site_type_symbol
 _atom_site_label
 _atom_site_symmetry_multiplicity
 _atom_site_fract_x
 _atom_site_fract_y
 _atom_site_fract_z
 _atom_site_occupancy
  Pr  Pr0  1  0.25818862  0.46070240  0.85652836  1
  Pr  Pr1  1  0.73997141  0.50079616  0.15503976  1
  Pr  Pr2  1  0.77499396  0.00428415  0.88207033  1
  Pr  Pr3  1  0.23818394  0.01897578  0.14182427  1
  Mn  Mn4  1  0.27095418  0.52319594  0.57649665  1
  Mn  Mn5  1  0.71306249  0.51523448  0.39706936  1
  Mn  Mn6  1  0.01262955  0.99090694  0.01688082  1
  Mn  Mn7  1  0.79424240  0.95202067  0.61607408  1
  Mn  Mn8  1  0.18192332  0.98061444  0.41554514  1
  Mn  Mn9  1  0.53507734  0.49272201  0.03588182  1
  Sb  Sb10  1  0.90581266  0.03600042  0.47361658  1
  Sb  Sb11  1  0.11521895  0.94261533  0.55424042  1
  Sb  Sb12  1  0.02278973  0.48510779  0.80782306  1
  Sb  Sb13  1  0.97628978  0.50321883  0.20531340  1
  Sb  Sb14  1  0.38203393  0.51777458  0.44620490  1
  Sb  Sb15  1  0.60434544  0.50260568  0.53774806  1
  Sb  Sb16  1  0.53861623  0.96302068  0.82504319  1
  Sb  Sb17  1  0.46112033  0.06429182  0.17846255  1
  S  S18  1  0.94488652  0.99062910  0.82900508  1
  S  S19  1  0.06436720  0.96915322  0.20465332  1
  S  S20  1  0.43407594  0.07303865  0.99273944  1
  S  S21  1  0.60069332  0.99584165  0.03741729  1
  S  S22  1  0.17859535  0.98604889  0.90747440  1
  S  S23  1  0.83188419  0.01376707  0.11214418  1
  S  S24  1  0.11227473  0.47730387  0.67314909  1
  S  S25  1  0.91666201  0.47026556  0.37300050  1
  S  S26  1  0.75105301  0.01528330  0.33125820  1
  S  S27  1  0.27333219  0.96421496  0.70311177  1
  S  S28  1  0.14690323  0.43865113  0.44414467  1
  S  S29  1  0.83921781  0.42726805  0.56765662  1
  S  S30  1  0.46627044  0.48241997  0.85120807  1
  S  S31  1  0.58103663  0.54236123  0.21270122  1
  S  S32  1  0.92484416  0.43163162  0.99755537  1
  S  S33  1  0.08461199  0.53154360  0.01735487  1
  S  S34  1  0.68111632  0.52345661  0.90967429  1
  S  S35  1  0.33084888  0.51340130  0.08082546  1
  S  S36  1  0.58770398  0.96654074  0.63841611  1
  S  S37  1  0.39898038  0.01790798  0.35044048  1
  S  S38  1  0.23267526  0.53093708  0.28512631  1
  S  S39  1  0.76179703  0.47762331  0.68824746  1
  S  S40  1  0.67496635  0.04395861  0.44539186  1
  S  S41  1  0.31701726  0.03010656  0.53810622  1
