# generated using pymatgen
data_Pr2Mn3(SbS3)4
_symmetry_space_group_name_H-M   'P 1'
_cell_length_a   20.02960800
_cell_length_b   3.90410600
_cell_length_c   14.95364829
_cell_angle_alpha   90.00000000
_cell_angle_beta   126.33350609
_cell_angle_gamma   90.00000000
_symmetry_Int_Tables_number   1
_chemical_formula_structural   Pr2Mn3(SbS3)4
_chemical_formula_sum   'Pr4 Mn6 Sb8 S24'
_cell_volume   942.00006694
_cell_formula_units_Z   2
loop_
 _symmetry_equiv_pos_site_id
 _symmetry_equiv_pos_as_xyz
  1  'x, y, z'
loop_
 _atom_site_type_symbol
 _atom_site_label
 _atom_site_symmetry_multiplicity
 _atom_site_fract_x
 _atom_site_fract_y
 _atom_site_fract_z
 _atom_site_occupancy
  Pr  Pr0  1  0.25802523  0.46134349  0.85649544  1
  Pr  Pr1  1  0.73991007  0.50086947  0.15501883  1
  Pr  Pr2  1  0.77468370  0.00558516  0.88194856  1
  Pr  Pr3  1  0.23827698  0.01931642  0.14196911  1
  Mn  Mn4  1  0.27100065  0.52378420  0.57640180  1
  Mn  Mn5  1  0.71305067  0.51559191  0.39752669  1
  Mn  Mn6  1  0.01275176  0.99120339  0.01710976  1
  Mn  Mn7  1  0.79414321  0.95149348  0.61586749  1
  Mn  Mn8  1  0.18192877  0.98087266  0.41584327  1
  Mn  Mn9  1  0.53506409  0.49335426  0.03599491  1
  Sb  Sb10  1  0.90585756  0.03502551  0.47360614  1
  Sb  Sb11  1  0.11530708  0.94219879  0.55436557  1
  Sb  Sb12  1  0.02281191  0.48433928  0.80767775  1
  Sb  Sb13  1  0.97627699  0.50292133  0.20514274  1
  Sb  Sb14  1  0.38210790  0.51847479  0.44618490  1
  Sb  Sb15  1  0.60422386  0.50227850  0.53779991  1
  Sb  Sb16  1  0.53886065  0.96215233  0.82529819  1
  Sb  Sb17  1  0.46127620  0.06481596  0.17818140  1
  S  S18  1  0.94472143  0.99041106  0.82892054  1
  S  S19  1  0.06429885  0.96877249  0.20493786  1
  S  S20  1  0.43399429  0.07173891  0.99293341  1
  S  S21  1  0.60057667  0.99602009  0.03700332  1
  S  S22  1  0.17870296  0.98550783  0.90739707  1
  S  S23  1  0.83189557  0.01456301  0.11248089  1
  S  S24  1  0.11212019  0.47551708  0.67291280  1
  S  S25  1  0.91667942  0.47023640  0.37303012  1
  S  S26  1  0.75080348  0.01688555  0.33110650  1
  S  S27  1  0.27341931  0.96362883  0.70335860  1
  S  S28  1  0.14715739  0.43929445  0.44452299  1
  S  S29  1  0.83926390  0.42881132  0.56769721  1
  S  S30  1  0.46598764  0.48160089  0.85107500  1
  S  S31  1  0.58116423  0.54391633  0.21228916  1
  S  S32  1  0.92482019  0.43134868  0.99732971  1
  S  S33  1  0.08429952  0.53022897  0.01730450  1
  S  S34  1  0.68129883  0.52292119  0.90978415  1
  S  S35  1  0.33036720  0.51340622  0.08068996  1
  S  S36  1  0.58783680  0.96527924  0.63844923  1
  S  S37  1  0.39878228  0.01898566  0.35086176  1
  S  S38  1  0.23273135  0.52998939  0.28503463  1
  S  S39  1  0.76137831  0.47785127  0.68818570  1
  S  S40  1  0.67516725  0.04318606  0.44550822  1
  S  S41  1  0.31741192  0.03026664  0.53838981  1
