# generated using pymatgen
data_Pr2Mn3(SbS3)4
_symmetry_space_group_name_H-M   'P 1'
_cell_length_a   20.02960800
_cell_length_b   3.90410600
_cell_length_c   14.95364829
_cell_angle_alpha   90.00000000
_cell_angle_beta   126.33350609
_cell_angle_gamma   90.00000000
_symmetry_Int_Tables_number   1
_chemical_formula_structural   Pr2Mn3(SbS3)4
_chemical_formula_sum   'Pr4 Mn6 Sb8 S24'
_cell_volume   942.00006694
_cell_formula_units_Z   2
loop_
 _symmetry_equiv_pos_site_id
 _symmetry_equiv_pos_as_xyz
  1  'x, y, z'
loop_
 _atom_site_type_symbol
 _atom_site_label
 _atom_site_symmetry_multiplicity
 _atom_site_fract_x
 _atom_site_fract_y
 _atom_site_fract_z
 _atom_site_occupancy
  Pr  Pr0  1  0.25780327  0.46178198  0.85636108  1
  Pr  Pr1  1  0.73987936  0.50092409  0.15507806  1
  Pr  Pr2  1  0.77450441  0.00685384  0.88205216  1
  Pr  Pr3  1  0.23836816  0.01953538  0.14210404  1
  Mn  Mn4  1  0.27119636  0.52408228  0.57645887  1
  Mn  Mn5  1  0.71301467  0.51592295  0.39786742  1
  Mn  Mn6  1  0.01283530  0.99173280  0.01729680  1
  Mn  Mn7  1  0.79387729  0.95091616  0.61554648  1
  Mn  Mn8  1  0.18196005  0.98100521  0.41611529  1
  Mn  Mn9  1  0.53506171  0.49337495  0.03618933  1
  Sb  Sb10  1  0.90588106  0.03416120  0.47358639  1
  Sb  Sb11  1  0.11533557  0.94193286  0.55448410  1
  Sb  Sb12  1  0.02282903  0.48341146  0.80749858  1
  Sb  Sb13  1  0.97625003  0.50255713  0.20492010  1
  Sb  Sb14  1  0.38216956  0.51908323  0.44614295  1
  Sb  Sb15  1  0.60408132  0.50185035  0.53780391  1
  Sb  Sb16  1  0.53911274  0.96159272  0.82558521  1
  Sb  Sb17  1  0.46134551  0.06534217  0.17786999  1
  S  S18  1  0.94453060  0.99016448  0.82898755  1
  S  S19  1  0.06435566  0.96824491  0.20525590  1
  S  S20  1  0.43403531  0.07034189  0.99339739  1
  S  S21  1  0.60037718  0.99666808  0.03641228  1
  S  S22  1  0.17872109  0.98460775  0.90727653  1
  S  S23  1  0.83180665  0.01534380  0.11250962  1
  S  S24  1  0.11192884  0.47376635  0.67264736  1
  S  S25  1  0.91654916  0.47018701  0.37276848  1
  S  S26  1  0.75051727  0.01829667  0.33104049  1
  S  S27  1  0.27344943  0.96349594  0.70359938  1
  S  S28  1  0.14738388  0.44033082  0.44488006  1
  S  S29  1  0.83935721  0.43054609  0.56777737  1
  S  S30  1  0.46572656  0.48153834  0.85087957  1
  S  S31  1  0.58121934  0.54543456  0.21202844  1
  S  S32  1  0.92481215  0.43150319  0.99711399  1
  S  S33  1  0.08393005  0.52833028  0.01727343  1
  S  S34  1  0.68158129  0.52258534  0.90985826  1
  S  S35  1  0.33012286  0.51300231  0.08072797  1
  S  S36  1  0.58799048  0.96418758  0.63848666  1
  S  S37  1  0.39867907  0.01998343  0.35135507  1
  S  S38  1  0.23283547  0.52847730  0.28513213  1
  S  S39  1  0.76097502  0.47735777  0.68793621  1
  S  S40  1  0.67537943  0.04229594  0.44553283  1
  S  S41  1  0.31770504  0.03043927  0.53858788  1
