# generated using pymatgen
data_Pr2Mn3(SbS3)4
_symmetry_space_group_name_H-M   'P 1'
_cell_length_a   20.02960800
_cell_length_b   3.90410600
_cell_length_c   14.95364829
_cell_angle_alpha   90.00000000
_cell_angle_beta   126.33350609
_cell_angle_gamma   90.00000000
_symmetry_Int_Tables_number   1
_chemical_formula_structural   Pr2Mn3(SbS3)4
_chemical_formula_sum   'Pr4 Mn6 Sb8 S24'
_cell_volume   942.00006694
_cell_formula_units_Z   2
loop_
 _symmetry_equiv_pos_site_id
 _symmetry_equiv_pos_as_xyz
  1  'x, y, z'
loop_
 _atom_site_type_symbol
 _atom_site_label
 _atom_site_symmetry_multiplicity
 _atom_site_fract_x
 _atom_site_fract_y
 _atom_site_fract_z
 _atom_site_occupancy
  Pr  Pr0  1  0.25758962  0.46202003  0.85618071  1
  Pr  Pr1  1  0.73981087  0.50111891  0.15509937  1
  Pr  Pr2  1  0.77433625  0.00798822  0.88212595  1
  Pr  Pr3  1  0.23843577  0.01965805  0.14229949  1
  Mn  Mn4  1  0.27127513  0.52474840  0.57642961  1
  Mn  Mn5  1  0.71296838  0.51643292  0.39817224  1
  Mn  Mn6  1  0.01290639  0.99216819  0.01749674  1
  Mn  Mn7  1  0.79357267  0.95049992  0.61516980  1
  Mn  Mn8  1  0.18199515  0.98110520  0.41644180  1
  Mn  Mn9  1  0.53495710  0.49321986  0.03637313  1
  Sb  Sb10  1  0.90589308  0.03334260  0.47354889  1
  Sb  Sb11  1  0.11543092  0.94170092  0.55465190  1
  Sb  Sb12  1  0.02290863  0.48245695  0.80745027  1
  Sb  Sb13  1  0.97619620  0.50211674  0.20465448  1
  Sb  Sb14  1  0.38222315  0.51969936  0.44616949  1
  Sb  Sb15  1  0.60398394  0.50126792  0.53777280  1
  Sb  Sb16  1  0.53924552  0.96148535  0.82577232  1
  Sb  Sb17  1  0.46142098  0.06575483  0.17761168  1
  S  S18  1  0.94426820  0.99013738  0.82884736  1
  S  S19  1  0.06464412  0.96722416  0.20572992  1
  S  S20  1  0.43425973  0.06911299  0.99409773  1
  S  S21  1  0.60027274  0.99720722  0.03593781  1
  S  S22  1  0.17885971  0.98329310  0.90730988  1
  S  S23  1  0.83169153  0.01619687  0.11238998  1
  S  S24  1  0.11167600  0.47252061  0.67228507  1
  S  S25  1  0.91631440  0.47040763  0.37239968  1
  S  S26  1  0.75025652  0.01971171  0.33085380  1
  S  S27  1  0.27340388  0.96338837  0.70352778  1
  S  S28  1  0.14753774  0.44098241  0.44531472  1
  S  S29  1  0.83956895  0.43203775  0.56808754  1
  S  S30  1  0.46537744  0.48178237  0.85075035  1
  S  S31  1  0.58144600  0.54652322  0.21196836  1
  S  S32  1  0.92490483  0.43124611  0.99697731  1
  S  S33  1  0.08367959  0.52700369  0.01714385  1
  S  S34  1  0.68191136  0.52245281  0.91005392  1
  S  S35  1  0.33011411  0.51224751  0.08102331  1
  S  S36  1  0.58808161  0.96341364  0.63868714  1
  S  S37  1  0.39860406  0.02115822  0.35177191  1
  S  S38  1  0.23273165  0.52695874  0.28498668  1
  S  S39  1  0.76067494  0.47708749  0.68764148  1
  S  S40  1  0.67538496  0.04104017  0.44531698  1
  S  S41  1  0.31810094  0.03006046  0.53882144  1
