# generated using pymatgen
data_Pr2Mn3(SbS3)4
_symmetry_space_group_name_H-M   'P 1'
_cell_length_a   20.02960800
_cell_length_b   3.90410600
_cell_length_c   14.95364829
_cell_angle_alpha   90.00000000
_cell_angle_beta   126.33350609
_cell_angle_gamma   90.00000000
_symmetry_Int_Tables_number   1
_chemical_formula_structural   Pr2Mn3(SbS3)4
_chemical_formula_sum   'Pr4 Mn6 Sb8 S24'
_cell_volume   942.00006694
_cell_formula_units_Z   2
loop_
 _symmetry_equiv_pos_site_id
 _symmetry_equiv_pos_as_xyz
  1  'x, y, z'
loop_
 _atom_site_type_symbol
 _atom_site_label
 _atom_site_symmetry_multiplicity
 _atom_site_fract_x
 _atom_site_fract_y
 _atom_site_fract_z
 _atom_site_occupancy
  Pr  Pr0  1  0.25737595  0.46228363  0.85610726  1
  Pr  Pr1  1  0.73976760  0.50114228  0.15516103  1
  Pr  Pr2  1  0.77416893  0.00906872  0.88223388  1
  Pr  Pr3  1  0.23845703  0.01956932  0.14246633  1
  Mn  Mn4  1  0.27129304  0.52533288  0.57642431  1
  Mn  Mn5  1  0.71291607  0.51716391  0.39842008  1
  Mn  Mn6  1  0.01297092  0.99185295  0.01763236  1
  Mn  Mn7  1  0.79340472  0.95015824  0.61488144  1
  Mn  Mn8  1  0.18201557  0.98110455  0.41663117  1
  Mn  Mn9  1  0.53477762  0.49305445  0.03650503  1
  Sb  Sb10  1  0.90583588  0.03272478  0.47344062  1
  Sb  Sb11  1  0.11543455  0.94099561  0.55468342  1
  Sb  Sb12  1  0.02295217  0.48154512  0.80731834  1
  Sb  Sb13  1  0.97607663  0.50158376  0.20421314  1
  Sb  Sb14  1  0.38219676  0.52058008  0.44620439  1
  Sb  Sb15  1  0.60384029  0.50076363  0.53775113  1
  Sb  Sb16  1  0.53925785  0.96115471  0.82586858  1
  Sb  Sb17  1  0.46152127  0.06616912  0.17743015  1
  S  S18  1  0.94398243  0.98936585  0.82871242  1
  S  S19  1  0.06492823  0.96623090  0.20623811  1
  S  S20  1  0.43442756  0.06795016  0.99475671  1
  S  S21  1  0.59999478  0.99771216  0.03531431  1
  S  S22  1  0.17901070  0.98256461  0.90718652  1
  S  S23  1  0.83146588  0.01769776  0.11212921  1
  S  S24  1  0.11145965  0.47147876  0.67197286  1
  S  S25  1  0.91583826  0.47074501  0.37173122  1
  S  S26  1  0.75030873  0.02030531  0.33091769  1
  S  S27  1  0.27339485  0.96401936  0.70358515  1
  S  S28  1  0.14762554  0.44171761  0.44555317  1
  S  S29  1  0.83985633  0.43388262  0.56836697  1
  S  S30  1  0.46508156  0.48139152  0.85077242  1
  S  S31  1  0.58165293  0.54717022  0.21181015  1
  S  S32  1  0.92516912  0.43168112  0.99710253  1
  S  S33  1  0.08334209  0.52562351  0.01702528  1
  S  S34  1  0.68227465  0.52288547  0.91039103  1
  S  S35  1  0.33017872  0.51127168  0.08124043  1
  S  S36  1  0.58816637  0.96303912  0.63875793  1
  S  S37  1  0.39853133  0.02197147  0.35217972  1
  S  S38  1  0.23264971  0.52540065  0.28478213  1
  S  S39  1  0.76030365  0.47704618  0.68727375  1
  S  S40  1  0.67560099  0.04029525  0.44528928  1
  S  S41  1  0.31846968  0.02983070  0.53920928  1
