# generated using pymatgen
data_Pr2Mn3(SbS3)4
_symmetry_space_group_name_H-M   'P 1'
_cell_length_a   20.02960800
_cell_length_b   3.90410600
_cell_length_c   14.95364829
_cell_angle_alpha   90.00000000
_cell_angle_beta   126.33350609
_cell_angle_gamma   90.00000000
_symmetry_Int_Tables_number   1
_chemical_formula_structural   Pr2Mn3(SbS3)4
_chemical_formula_sum   'Pr4 Mn6 Sb8 S24'
_cell_volume   942.00006694
_cell_formula_units_Z   2
loop_
 _symmetry_equiv_pos_site_id
 _symmetry_equiv_pos_as_xyz
  1  'x, y, z'
loop_
 _atom_site_type_symbol
 _atom_site_label
 _atom_site_symmetry_multiplicity
 _atom_site_fract_x
 _atom_site_fract_y
 _atom_site_fract_z
 _atom_site_occupancy
  Pr  Pr0  1  0.25715086  0.46260346  0.85603031  1
  Pr  Pr1  1  0.73968878  0.50110060  0.15514526  1
  Pr  Pr2  1  0.77406700  0.01011280  0.88236955  1
  Pr  Pr3  1  0.23850220  0.01964730  0.14259988  1
  Mn  Mn4  1  0.27128411  0.52583961  0.57637184  1
  Mn  Mn5  1  0.71272321  0.51711357  0.39849562  1
  Mn  Mn6  1  0.01295359  0.99207093  0.01774750  1
  Mn  Mn7  1  0.79330199  0.94987037  0.61478369  1
  Mn  Mn8  1  0.18213211  0.98100489  0.41672234  1
  Mn  Mn9  1  0.53446143  0.49280326  0.03652550  1
  Sb  Sb10  1  0.90577890  0.03218679  0.47343381  1
  Sb  Sb11  1  0.11547960  0.94035827  0.55467689  1
  Sb  Sb12  1  0.02302783  0.48070586  0.80713758  1
  Sb  Sb13  1  0.97603152  0.50117788  0.20391578  1
  Sb  Sb14  1  0.38223102  0.52147954  0.44629459  1
  Sb  Sb15  1  0.60371121  0.50011539  0.53780375  1
  Sb  Sb16  1  0.53925571  0.96082480  0.82592802  1
  Sb  Sb17  1  0.46162012  0.06644273  0.17729001  1
  S  S18  1  0.94357236  0.98835944  0.82840814  1
  S  S19  1  0.06503081  0.96517602  0.20649753  1
  S  S20  1  0.43449326  0.06676592  0.99536667  1
  S  S21  1  0.59976134  0.99735655  0.03463982  1
  S  S22  1  0.17902683  0.98211809  0.90686524  1
  S  S23  1  0.83143195  0.01971731  0.11212089  1
  S  S24  1  0.11128375  0.47044466  0.67161568  1
  S  S25  1  0.91524187  0.47071434  0.37093114  1
  S  S26  1  0.75034501  0.02118726  0.33103986  1
  S  S27  1  0.27358798  0.96439278  0.70393072  1
  S  S28  1  0.14748442  0.44285521  0.44576367  1
  S  S29  1  0.84016630  0.43526618  0.56851071  1
  S  S30  1  0.46489090  0.48097318  0.85074328  1
  S  S31  1  0.58191422  0.54751199  0.21170238  1
  S  S32  1  0.92537544  0.43159219  0.99731501  1
  S  S33  1  0.08302242  0.52440831  0.01694331  1
  S  S34  1  0.68253931  0.52368063  0.91053436  1
  S  S35  1  0.33026201  0.51070412  0.08150559  1
  S  S36  1  0.58798021  0.96247465  0.63869025  1
  S  S37  1  0.39850428  0.02271315  0.35276722  1
  S  S38  1  0.23269371  0.52411281  0.28450369  1
  S  S39  1  0.76000107  0.47725928  0.68697144  1
  S  S40  1  0.67585968  0.03997066  0.44536051  1
  S  S41  1  0.31893609  0.02991408  0.53976201  1
