# generated using pymatgen
data_Pr2Mn3(SbS3)4
_symmetry_space_group_name_H-M   'P 1'
_cell_length_a   20.02960800
_cell_length_b   3.90410600
_cell_length_c   14.95364829
_cell_angle_alpha   90.00000000
_cell_angle_beta   126.33350609
_cell_angle_gamma   90.00000000
_symmetry_Int_Tables_number   1
_chemical_formula_structural   Pr2Mn3(SbS3)4
_chemical_formula_sum   'Pr4 Mn6 Sb8 S24'
_cell_volume   942.00006694
_cell_formula_units_Z   2
loop_
 _symmetry_equiv_pos_site_id
 _symmetry_equiv_pos_as_xyz
  1  'x, y, z'
loop_
 _atom_site_type_symbol
 _atom_site_label
 _atom_site_symmetry_multiplicity
 _atom_site_fract_x
 _atom_site_fract_y
 _atom_site_fract_z
 _atom_site_occupancy
  Pr  Pr0  1  0.26959893  0.50557057  0.87585058  1
  Pr  Pr1  1  0.73204972  0.51887086  0.13167754  1
  Pr  Pr2  1  0.76456342  0.02820496  0.87170128  1
  Pr  Pr3  1  0.22871116  0.95569287  0.12557054  1
  Mn  Mn4  1  0.29577100  0.44864394  0.60916226  1
  Mn  Mn5  1  0.68674077  0.45240885  0.36238000  1
  Mn  Mn6  1  0.99903451  0.97395597  0.00535162  1
  Mn  Mn7  1  0.79029228  0.00643288  0.61569156  1
  Mn  Mn8  1  0.20223197  0.02822730  0.37332568  1
  Mn  Mn9  1  0.48225401  0.47371610  0.97910035  1
  Sb  Sb10  1  0.89382272  0.96706392  0.45104628  1
  Sb  Sb11  1  0.11463513  0.97916930  0.54959436  1
  Sb  Sb12  1  0.04036281  0.51231375  0.83097847  1
  Sb  Sb13  1  0.96763261  0.48331484  0.19225627  1
  Sb  Sb14  1  0.39875761  0.49350420  0.45206482  1
  Sb  Sb15  1  0.61366690  0.48438537  0.54827484  1
  Sb  Sb16  1  0.53044560  0.97188950  0.80574817  1
  Sb  Sb17  1  0.46595814  0.03185380  0.18358118  1
  S  S18  1  0.93188108  0.97620241  0.79637078  1
  S  S19  1  0.06693137  0.98380619  0.19949934  1
  S  S20  1  0.41973741  0.98519462  0.98082919  1
  S  S21  1  0.58256746  0.01130779  0.00174728  1
  S  S22  1  0.16295932  0.02112017  0.89798873  1
  S  S23  1  0.83097002  0.97990729  0.10911578  1
  S  S24  1  0.09137142  0.49086754  0.63893727  1
  S  S25  1  0.91437966  0.50864630  0.35682213  1
  S  S26  1  0.73321437  0.99696243  0.29823618  1
  S  S27  1  0.26316053  0.02010507  0.70020194  1
  S  S28  1  0.17193701  0.51640358  0.44271091  1
  S  S29  1  0.80887157  0.54560693  0.53751195  1
  S  S30  1  0.42992016  0.47956586  0.79213278  1
  S  S31  1  0.55527149  0.48983424  0.17530455  1
  S  S32  1  0.91455540  0.52684205  0.98463191  1
  S  S33  1  0.08424697  0.47748251  0.02340183  1
  S  S34  1  0.66486113  0.55910555  0.88474231  1
  S  S35  1  0.33009310  0.45753553  0.10167012  1
  S  S36  1  0.58989361  0.97923403  0.64264128  1
  S  S37  1  0.39528055  0.99457690  0.33625382  1
  S  S38  1  0.24209032  0.47928593  0.31146743  1
  S  S39  1  0.76117054  0.48377722  0.69138542  1
  S  S40  1  0.65956106  0.00114951  0.43658230  1
  S  S41  1  0.32855857  0.96412257  0.55499675  1
