# generated using pymatgen
data_Pr2Mn3(SbS3)4
_symmetry_space_group_name_H-M   'P 1'
_cell_length_a   20.02960800
_cell_length_b   3.90410600
_cell_length_c   14.95364829
_cell_angle_alpha   90.00000000
_cell_angle_beta   126.33350609
_cell_angle_gamma   90.00000000
_symmetry_Int_Tables_number   1
_chemical_formula_structural   Pr2Mn3(SbS3)4
_chemical_formula_sum   'Pr4 Mn6 Sb8 S24'
_cell_volume   942.00006694
_cell_formula_units_Z   2
loop_
 _symmetry_equiv_pos_site_id
 _symmetry_equiv_pos_as_xyz
  1  'x, y, z'
loop_
 _atom_site_type_symbol
 _atom_site_label
 _atom_site_symmetry_multiplicity
 _atom_site_fract_x
 _atom_site_fract_y
 _atom_site_fract_z
 _atom_site_occupancy
  Pr  Pr0  1  0.25695343  0.46277715  0.85601859  1
  Pr  Pr1  1  0.73964941  0.50101040  0.15509636  1
  Pr  Pr2  1  0.77395445  0.01091542  0.88248129  1
  Pr  Pr3  1  0.23855931  0.01977943  0.14267302  1
  Mn  Mn4  1  0.27137526  0.52612830  0.57650385  1
  Mn  Mn5  1  0.71254150  0.51687630  0.39861744  1
  Mn  Mn6  1  0.01302605  0.99208249  0.01804973  1
  Mn  Mn7  1  0.79321628  0.94990141  0.61474003  1
  Mn  Mn8  1  0.18219020  0.98103799  0.41665513  1
  Mn  Mn9  1  0.53415499  0.49254740  0.03656508  1
  Sb  Sb10  1  0.90569199  0.03164472  0.47339129  1
  Sb  Sb11  1  0.11558683  0.93994027  0.55470846  1
  Sb  Sb12  1  0.02306565  0.48003463  0.80699350  1
  Sb  Sb13  1  0.97598271  0.50061613  0.20361425  1
  Sb  Sb14  1  0.38224300  0.52226821  0.44634206  1
  Sb  Sb15  1  0.60359420  0.49938871  0.53778913  1
  Sb  Sb16  1  0.53925372  0.96032907  0.82593568  1
  Sb  Sb17  1  0.46174097  0.06672387  0.17722717  1
  S  S18  1  0.94322815  0.98710104  0.82801440  1
  S  S19  1  0.06543530  0.96438857  0.20691317  1
  S  S20  1  0.43466561  0.06519299  0.99607124  1
  S  S21  1  0.59959805  0.99725483  0.03408981  1
  S  S22  1  0.17914525  0.98191929  0.90682608  1
  S  S23  1  0.83141283  0.02182740  0.11203934  1
  S  S24  1  0.11127647  0.47026032  0.67157931  1
  S  S25  1  0.91474516  0.47091618  0.37026757  1
  S  S26  1  0.75031049  0.02209100  0.33115766  1
  S  S27  1  0.27384052  0.96437830  0.70417531  1
  S  S28  1  0.14724071  0.44380943  0.44588286  1
  S  S29  1  0.84067709  0.43664444  0.56855562  1
  S  S30  1  0.46493614  0.48028459  0.85073470  1
  S  S31  1  0.58225109  0.54723238  0.21172135  1
  S  S32  1  0.92544395  0.43161872  0.99742007  1
  S  S33  1  0.08269648  0.52331567  0.01692484  1
  S  S34  1  0.68290788  0.52450898  0.91066594  1
  S  S35  1  0.33033332  0.51083418  0.08180332  1
  S  S36  1  0.58767311  0.96190747  0.63846870  1
  S  S37  1  0.39841510  0.02334822  0.35331830  1
  S  S38  1  0.23272327  0.52290427  0.28413820  1
  S  S39  1  0.75945284  0.47735496  0.68647235  1
  S  S40  1  0.67625068  0.03987930  0.44544503  1
  S  S41  1  0.31945433  0.02931939  0.54021398  1
