# generated using pymatgen
data_Pr2Mn3(SbS3)4
_symmetry_space_group_name_H-M   'P 1'
_cell_length_a   20.02960800
_cell_length_b   3.90410600
_cell_length_c   14.95364829
_cell_angle_alpha   90.00000000
_cell_angle_beta   126.33350609
_cell_angle_gamma   90.00000000
_symmetry_Int_Tables_number   1
_chemical_formula_structural   Pr2Mn3(SbS3)4
_chemical_formula_sum   'Pr4 Mn6 Sb8 S24'
_cell_volume   942.00006694
_cell_formula_units_Z   2
loop_
 _symmetry_equiv_pos_site_id
 _symmetry_equiv_pos_as_xyz
  1  'x, y, z'
loop_
 _atom_site_type_symbol
 _atom_site_label
 _atom_site_symmetry_multiplicity
 _atom_site_fract_x
 _atom_site_fract_y
 _atom_site_fract_z
 _atom_site_occupancy
  Pr  Pr0  1  0.25676660  0.46295366  0.85606097  1
  Pr  Pr1  1  0.73955405  0.50113512  0.15501847  1
  Pr  Pr2  1  0.77382946  0.01177247  0.88250292  1
  Pr  Pr3  1  0.23858442  0.02017109  0.14275032  1
  Mn  Mn4  1  0.27154793  0.52666020  0.57685320  1
  Mn  Mn5  1  0.71241797  0.51708443  0.39877286  1
  Mn  Mn6  1  0.01308254  0.99179667  0.01849275  1
  Mn  Mn7  1  0.79317674  0.95026397  0.61468872  1
  Mn  Mn8  1  0.18211630  0.98133290  0.41639037  1
  Mn  Mn9  1  0.53393737  0.49234380  0.03657701  1
  Sb  Sb10  1  0.90570615  0.03119490  0.47344264  1
  Sb  Sb11  1  0.11559049  0.93981516  0.55464167  1
  Sb  Sb12  1  0.02299425  0.47918993  0.80675239  1
  Sb  Sb13  1  0.97587848  0.50012449  0.20329420  1
  Sb  Sb14  1  0.38228483  0.52303877  0.44643196  1
  Sb  Sb15  1  0.60342726  0.49873179  0.53771016  1
  Sb  Sb16  1  0.53921939  0.96001730  0.82584814  1
  Sb  Sb17  1  0.46182764  0.06731458  0.17716344  1
  S  S18  1  0.94296410  0.98594818  0.82765750  1
  S  S19  1  0.06579316  0.96374442  0.20736202  1
  S  S20  1  0.43476109  0.06347108  0.99669632  1
  S  S21  1  0.59941431  0.99712665  0.03352434  1
  S  S22  1  0.17920752  0.98201343  0.90667982  1
  S  S23  1  0.83146896  0.02390936  0.11212083  1
  S  S24  1  0.11126177  0.46964839  0.67142134  1
  S  S25  1  0.91420711  0.47097310  0.36966232  1
  S  S26  1  0.75037107  0.02254968  0.33139743  1
  S  S27  1  0.27401225  0.96396686  0.70440539  1
  S  S28  1  0.14696320  0.44526056  0.44604307  1
  S  S29  1  0.84114654  0.43831181  0.56865811  1
  S  S30  1  0.46499406  0.47986205  0.85084889  1
  S  S31  1  0.58266358  0.54710409  0.21191592  1
  S  S32  1  0.92539816  0.43173950  0.99749253  1
  S  S33  1  0.08232247  0.52190179  0.01704875  1
  S  S34  1  0.68328590  0.52548292  0.91080131  1
  S  S35  1  0.33044226  0.51131096  0.08209713  1
  S  S36  1  0.58740037  0.96132871  0.63829962  1
  S  S37  1  0.39830021  0.02365519  0.35397352  1
  S  S38  1  0.23275592  0.52224308  0.28380834  1
  S  S39  1  0.75895012  0.47738790  0.68611053  1
  S  S40  1  0.67668887  0.04013595  0.44565937  1
  S  S41  1  0.31993370  0.02857936  0.54076575  1
