# generated using pymatgen
data_Pr2Mn3(SbS3)4
_symmetry_space_group_name_H-M   'P 1'
_cell_length_a   20.02960800
_cell_length_b   3.90410600
_cell_length_c   14.95364829
_cell_angle_alpha   90.00000000
_cell_angle_beta   126.33350609
_cell_angle_gamma   90.00000000
_symmetry_Int_Tables_number   1
_chemical_formula_structural   Pr2Mn3(SbS3)4
_chemical_formula_sum   'Pr4 Mn6 Sb8 S24'
_cell_volume   942.00006694
_cell_formula_units_Z   2
loop_
 _symmetry_equiv_pos_site_id
 _symmetry_equiv_pos_as_xyz
  1  'x, y, z'
loop_
 _atom_site_type_symbol
 _atom_site_label
 _atom_site_symmetry_multiplicity
 _atom_site_fract_x
 _atom_site_fract_y
 _atom_site_fract_z
 _atom_site_occupancy
  Pr  Pr0  1  0.25667186  0.46353952  0.85620387  1
  Pr  Pr1  1  0.73937732  0.50159739  0.15483639  1
  Pr  Pr2  1  0.77371195  0.01240446  0.88248496  1
  Pr  Pr3  1  0.23862509  0.02046194  0.14281924  1
  Mn  Mn4  1  0.27173929  0.52730626  0.57706808  1
  Mn  Mn5  1  0.71232445  0.51719444  0.39901882  1
  Mn  Mn6  1  0.01319875  0.99221417  0.01901095  1
  Mn  Mn7  1  0.79314628  0.95084317  0.61479374  1
  Mn  Mn8  1  0.18206912  0.98116264  0.41619914  1
  Mn  Mn9  1  0.53388924  0.49188878  0.03663608  1
  Sb  Sb10  1  0.90574368  0.03095767  0.47350519  1
  Sb  Sb11  1  0.11559188  0.93940939  0.55456944  1
  Sb  Sb12  1  0.02294206  0.47844476  0.80655731  1
  Sb  Sb13  1  0.97585138  0.49975454  0.20314658  1
  Sb  Sb14  1  0.38244875  0.52396474  0.44664819  1
  Sb  Sb15  1  0.60328559  0.49792969  0.53760180  1
  Sb  Sb16  1  0.53916377  0.95959046  0.82569576  1
  Sb  Sb17  1  0.46186494  0.06784820  0.17708736  1
  S  S18  1  0.94269752  0.98489078  0.82707249  1
  S  S19  1  0.06616155  0.96328076  0.20788329  1
  S  S20  1  0.43481589  0.06152508  0.99728626  1
  S  S21  1  0.59922474  0.99677132  0.03308663  1
  S  S22  1  0.17926131  0.98238561  0.90658243  1
  S  S23  1  0.83167290  0.02541688  0.11232456  1
  S  S24  1  0.11128255  0.46903935  0.67116348  1
  S  S25  1  0.91363379  0.47112406  0.36910753  1
  S  S26  1  0.75024024  0.02226520  0.33146851  1
  S  S27  1  0.27401092  0.96381159  0.70445792  1
  S  S28  1  0.14673714  0.44710484  0.44600054  1
  S  S29  1  0.84158474  0.43987993  0.56894081  1
  S  S30  1  0.46493542  0.48009953  0.85085563  1
  S  S31  1  0.58305939  0.54633806  0.21222024  1
  S  S32  1  0.92546322  0.43239522  0.99773539  1
  S  S33  1  0.08193791  0.52078054  0.01715031  1
  S  S34  1  0.68350181  0.52679296  0.91086707  1
  S  S35  1  0.33056050  0.51195261  0.08238547  1
  S  S36  1  0.58716681  0.96026860  0.63823427  1
  S  S37  1  0.39815021  0.02400949  0.35472705  1
  S  S38  1  0.23278797  0.52185888  0.28345165  1
  S  S39  1  0.75856907  0.47776269  0.68575349  1
  S  S40  1  0.67728189  0.04123295  0.44613885  1
  S  S41  1  0.32035576  0.02823214  0.54110819  1
