# generated using pymatgen
data_Pr2Mn3(SbS3)4
_symmetry_space_group_name_H-M   'P 1'
_cell_length_a   20.02960800
_cell_length_b   3.90410600
_cell_length_c   14.95364829
_cell_angle_alpha   90.00000000
_cell_angle_beta   126.33350609
_cell_angle_gamma   90.00000000
_symmetry_Int_Tables_number   1
_chemical_formula_structural   Pr2Mn3(SbS3)4
_chemical_formula_sum   'Pr4 Mn6 Sb8 S24'
_cell_volume   942.00006694
_cell_formula_units_Z   2
loop_
 _symmetry_equiv_pos_site_id
 _symmetry_equiv_pos_as_xyz
  1  'x, y, z'
loop_
 _atom_site_type_symbol
 _atom_site_label
 _atom_site_symmetry_multiplicity
 _atom_site_fract_x
 _atom_site_fract_y
 _atom_site_fract_z
 _atom_site_occupancy
  Pr  Pr0  1  0.25657097  0.46396018  0.85636272  1
  Pr  Pr1  1  0.73924131  0.50206761  0.15466125  1
  Pr  Pr2  1  0.77364687  0.01305369  0.88249427  1
  Pr  Pr3  1  0.23860169  0.02083786  0.14291402  1
  Mn  Mn4  1  0.27197927  0.52779407  0.57731214  1
  Mn  Mn5  1  0.71227795  0.51706214  0.39932997  1
  Mn  Mn6  1  0.01328574  0.99272354  0.01938359  1
  Mn  Mn7  1  0.79303318  0.95167608  0.61490521  1
  Mn  Mn8  1  0.18201296  0.98123121  0.41598439  1
  Mn  Mn9  1  0.53389281  0.49136060  0.03676795  1
  Sb  Sb10  1  0.90575619  0.03051018  0.47354358  1
  Sb  Sb11  1  0.11562629  0.93914833  0.55453150  1
  Sb  Sb12  1  0.02280594  0.47762998  0.80630039  1
  Sb  Sb13  1  0.97573349  0.49938788  0.20299011  1
  Sb  Sb14  1  0.38250039  0.52489655  0.44674152  1
  Sb  Sb15  1  0.60328494  0.49763894  0.53750342  1
  Sb  Sb16  1  0.53911054  0.95899734  0.82546393  1
  Sb  Sb17  1  0.46189777  0.06810536  0.17710265  1
  S  S18  1  0.94232875  0.98394624  0.82645170  1
  S  S19  1  0.06655137  0.96258643  0.20843857  1
  S  S20  1  0.43483389  0.05994345  0.99777543  1
  S  S21  1  0.59908666  0.99625069  0.03260331  1
  S  S22  1  0.17929215  0.98289828  0.90641907  1
  S  S23  1  0.83200671  0.02670381  0.11249198  1
  S  S24  1  0.11122938  0.46865104  0.67094591  1
  S  S25  1  0.91305885  0.47114810  0.36867020  1
  S  S26  1  0.75015510  0.02184782  0.33141599  1
  S  S27  1  0.27405738  0.96414167  0.70449368  1
  S  S28  1  0.14655001  0.44824179  0.44590699  1
  S  S29  1  0.84215185  0.44119398  0.56931053  1
  S  S30  1  0.46487006  0.48093152  0.85094526  1
  S  S31  1  0.58349944  0.54539104  0.21249595  1
  S  S32  1  0.92551822  0.43270103  0.99803447  1
  S  S33  1  0.08167768  0.51991885  0.01732930  1
  S  S34  1  0.68368388  0.52816603  0.91096923  1
  S  S35  1  0.33065530  0.51258393  0.08261252  1
  S  S36  1  0.58688405  0.95906864  0.63819563  1
  S  S37  1  0.39806570  0.02392941  0.35544026  1
  S  S38  1  0.23269782  0.52118841  0.28303927  1
  S  S39  1  0.75822637  0.47812353  0.68548082  1
  S  S40  1  0.67787181  0.04260543  0.44665296  1
  S  S41  1  0.32066194  0.02768136  0.54126704  1
