# generated using pymatgen
data_Pr2Mn3(SbS3)4
_symmetry_space_group_name_H-M   'P 1'
_cell_length_a   20.02960800
_cell_length_b   3.90410600
_cell_length_c   14.95364829
_cell_angle_alpha   90.00000000
_cell_angle_beta   126.33350609
_cell_angle_gamma   90.00000000
_symmetry_Int_Tables_number   1
_chemical_formula_structural   Pr2Mn3(SbS3)4
_chemical_formula_sum   'Pr4 Mn6 Sb8 S24'
_cell_volume   942.00006694
_cell_formula_units_Z   2
loop_
 _symmetry_equiv_pos_site_id
 _symmetry_equiv_pos_as_xyz
  1  'x, y, z'
loop_
 _atom_site_type_symbol
 _atom_site_label
 _atom_site_symmetry_multiplicity
 _atom_site_fract_x
 _atom_site_fract_y
 _atom_site_fract_z
 _atom_site_occupancy
  Pr  Pr0  1  0.25649519  0.46442413  0.85654278  1
  Pr  Pr1  1  0.73917319  0.50255149  0.15456316  1
  Pr  Pr2  1  0.77367529  0.01361660  0.88253063  1
  Pr  Pr3  1  0.23854743  0.02119526  0.14301141  1
  Mn  Mn4  1  0.27227855  0.52804749  0.57766829  1
  Mn  Mn5  1  0.71228728  0.51712096  0.39964065  1
  Mn  Mn6  1  0.01346460  0.99311569  0.01974156  1
  Mn  Mn7  1  0.79288896  0.95327038  0.61493567  1
  Mn  Mn8  1  0.18197757  0.98032303  0.41575375  1
  Mn  Mn9  1  0.53383280  0.49073105  0.03677781  1
  Sb  Sb10  1  0.90568462  0.03008226  0.47349487  1
  Sb  Sb11  1  0.11563146  0.93890950  0.55452408  1
  Sb  Sb12  1  0.02269089  0.47663692  0.80600951  1
  Sb  Sb13  1  0.97555076  0.49891007  0.20283018  1
  Sb  Sb14  1  0.38257682  0.52593733  0.44689512  1
  Sb  Sb15  1  0.60331328  0.49764472  0.53746037  1
  Sb  Sb16  1  0.53903684  0.95848834  0.82522876  1
  Sb  Sb17  1  0.46192323  0.06806390  0.17717861  1
  S  S18  1  0.94218636  0.98349225  0.82596865  1
  S  S19  1  0.06697724  0.96211559  0.20901531  1
  S  S20  1  0.43504314  0.05784173  0.99831508  1
  S  S21  1  0.59902941  0.99630410  0.03231500  1
  S  S22  1  0.17926426  0.98287002  0.90614328  1
  S  S23  1  0.83216184  0.02802038  0.11253231  1
  S  S24  1  0.11119335  0.46828567  0.67081310  1
  S  S25  1  0.91254446  0.47075919  0.36827224  1
  S  S26  1  0.74992962  0.02119263  0.33098207  1
  S  S27  1  0.27401934  0.96483059  0.70461245  1
  S  S28  1  0.14621089  0.44908241  0.44587809  1
  S  S29  1  0.84267112  0.44185730  0.56953215  1
  S  S30  1  0.46474751  0.48147813  0.85105153  1
  S  S31  1  0.58386128  0.54476907  0.21280509  1
  S  S32  1  0.92554719  0.43286491  0.99809952  1
  S  S33  1  0.08142297  0.51888800  0.01744152  1
  S  S34  1  0.68392649  0.52941314  0.91114268  1
  S  S35  1  0.33075866  0.51400373  0.08306707  1
  S  S36  1  0.58657738  0.95831107  0.63814115  1
  S  S37  1  0.39805156  0.02371649  0.35597804  1
  S  S38  1  0.23261052  0.52141106  0.28263640  1
  S  S39  1  0.75784086  0.47771586  0.68527243  1
  S  S40  1  0.67851086  0.04388592  0.44721422  1
  S  S41  1  0.32089872  0.02737064  0.54137064  1
