# generated using pymatgen
data_Pr2Mn3(SbS3)4
_symmetry_space_group_name_H-M   'P 1'
_cell_length_a   20.02960800
_cell_length_b   3.90410600
_cell_length_c   14.95364829
_cell_angle_alpha   90.00000000
_cell_angle_beta   126.33350609
_cell_angle_gamma   90.00000000
_symmetry_Int_Tables_number   1
_chemical_formula_structural   Pr2Mn3(SbS3)4
_chemical_formula_sum   'Pr4 Mn6 Sb8 S24'
_cell_volume   942.00006694
_cell_formula_units_Z   2
loop_
 _symmetry_equiv_pos_site_id
 _symmetry_equiv_pos_as_xyz
  1  'x, y, z'
loop_
 _atom_site_type_symbol
 _atom_site_label
 _atom_site_symmetry_multiplicity
 _atom_site_fract_x
 _atom_site_fract_y
 _atom_site_fract_z
 _atom_site_occupancy
  Pr  Pr0  1  0.25635677  0.46482177  0.85666761  1
  Pr  Pr1  1  0.73907523  0.50324438  0.15448576  1
  Pr  Pr2  1  0.77369368  0.01451784  0.88248513  1
  Pr  Pr3  1  0.23849287  0.02172216  0.14316186  1
  Mn  Mn4  1  0.27260534  0.52827262  0.57810473  1
  Mn  Mn5  1  0.71221916  0.51724293  0.39987535  1
  Mn  Mn6  1  0.01376836  0.99316698  0.02027804  1
  Mn  Mn7  1  0.79285724  0.95455514  0.61514957  1
  Mn  Mn8  1  0.18184193  0.97951297  0.41553288  1
  Mn  Mn9  1  0.53390710  0.49030439  0.03686655  1
  Sb  Sb10  1  0.90551770  0.02943893  0.47343050  1
  Sb  Sb11  1  0.11562406  0.93865768  0.55445616  1
  Sb  Sb12  1  0.02249000  0.47564253  0.80558647  1
  Sb  Sb13  1  0.97535044  0.49838302  0.20266919  1
  Sb  Sb14  1  0.38263688  0.52712736  0.44705107  1
  Sb  Sb15  1  0.60334459  0.49754035  0.53740080  1
  Sb  Sb16  1  0.53895870  0.95804600  0.82501781  1
  Sb  Sb17  1  0.46195159  0.06821808  0.17723783  1
  S  S18  1  0.94216515  0.98326224  0.82541720  1
  S  S19  1  0.06733884  0.96113370  0.20952030  1
  S  S20  1  0.43540470  0.05561495  0.99892855  1
  S  S21  1  0.59892411  0.99638233  0.03204700  1
  S  S22  1  0.17923334  0.98252108  0.90605224  1
  S  S23  1  0.83219051  0.02969656  0.11245267  1
  S  S24  1  0.11112553  0.46790001  0.67062003  1
  S  S25  1  0.91225077  0.47029894  0.36810911  1
  S  S26  1  0.74956323  0.02046535  0.33052886  1
  S  S27  1  0.27383909  0.96513411  0.70461575  1
  S  S28  1  0.14581272  0.44932906  0.44573557  1
  S  S29  1  0.84303696  0.44225980  0.56972737  1
  S  S30  1  0.46475936  0.48225300  0.85136822  1
  S  S31  1  0.58414578  0.54337711  0.21310804  1
  S  S32  1  0.92535696  0.43254169  0.99811417  1
  S  S33  1  0.08115210  0.51804233  0.01754888  1
  S  S34  1  0.68424317  0.53015250  0.91142730  1
  S  S35  1  0.33092160  0.51513238  0.08351987  1
  S  S36  1  0.58646452  0.95745553  0.63820008  1
  S  S37  1  0.39796364  0.02356552  0.35636766  1
  S  S38  1  0.23257082  0.52195644  0.28241094  1
  S  S39  1  0.75750175  0.47766798  0.68513257  1
  S  S40  1  0.67920981  0.04504484  0.44789189  1
  S  S41  1  0.32114748  0.02742745  0.54148766  1
