# generated using pymatgen
data_Pr2Mn3(SbS3)4
_symmetry_space_group_name_H-M   'P 1'
_cell_length_a   20.02960800
_cell_length_b   3.90410600
_cell_length_c   14.95364829
_cell_angle_alpha   90.00000000
_cell_angle_beta   126.33350609
_cell_angle_gamma   90.00000000
_symmetry_Int_Tables_number   1
_chemical_formula_structural   Pr2Mn3(SbS3)4
_chemical_formula_sum   'Pr4 Mn6 Sb8 S24'
_cell_volume   942.00006694
_cell_formula_units_Z   2
loop_
 _symmetry_equiv_pos_site_id
 _symmetry_equiv_pos_as_xyz
  1  'x, y, z'
loop_
 _atom_site_type_symbol
 _atom_site_label
 _atom_site_symmetry_multiplicity
 _atom_site_fract_x
 _atom_site_fract_y
 _atom_site_fract_z
 _atom_site_occupancy
  Pr  Pr0  1  0.25626923  0.46494577  0.85671019  1
  Pr  Pr1  1  0.73895700  0.50405371  0.15440730  1
  Pr  Pr2  1  0.77365890  0.01541437  0.88239441  1
  Pr  Pr3  1  0.23844497  0.02208180  0.14335634  1
  Mn  Mn4  1  0.27291381  0.52845916  0.57851942  1
  Mn  Mn5  1  0.71208012  0.51787422  0.39999438  1
  Mn  Mn6  1  0.01423304  0.99282259  0.02096639  1
  Mn  Mn7  1  0.79284174  0.95584540  0.61527765  1
  Mn  Mn8  1  0.18172965  0.97852994  0.41537166  1
  Mn  Mn9  1  0.53395507  0.49029611  0.03688796  1
  Sb  Sb10  1  0.90541106  0.02890130  0.47342294  1
  Sb  Sb11  1  0.11564026  0.93861465  0.55432337  1
  Sb  Sb12  1  0.02222503  0.47459822  0.80515598  1
  Sb  Sb13  1  0.97516639  0.49792085  0.20251045  1
  Sb  Sb14  1  0.38273197  0.52861741  0.44715089  1
  Sb  Sb15  1  0.60334686  0.49778051  0.53730244  1
  Sb  Sb16  1  0.53881455  0.95775346  0.82483996  1
  Sb  Sb17  1  0.46198079  0.06820315  0.17732778  1
  S  S18  1  0.94216894  0.98300955  0.82484192  1
  S  S19  1  0.06769483  0.96021558  0.21007333  1
  S  S20  1  0.43571257  0.05363247  0.99949141  1
  S  S21  1  0.59889746  0.99640407  0.03203723  1
  S  S22  1  0.17924340  0.98210547  0.90604535  1
  S  S23  1  0.83211146  0.03132930  0.11247866  1
  S  S24  1  0.11110377  0.46764001  0.67055000  1
  S  S25  1  0.91200207  0.46957977  0.36805535  1
  S  S26  1  0.74919200  0.01982533  0.33009282  1
  S  S27  1  0.27361156  0.96513015  0.70458859  1
  S  S28  1  0.14541707  0.44966391  0.44570727  1
  S  S29  1  0.84342145  0.44300634  0.57004593  1
  S  S30  1  0.46481358  0.48216090  0.85174521  1
  S  S31  1  0.58420056  0.54196452  0.21327098  1
  S  S32  1  0.92516355  0.43248909  0.99803939  1
  S  S33  1  0.08092951  0.51722646  0.01751409  1
  S  S34  1  0.68445688  0.52976421  0.91164600  1
  S  S35  1  0.33110301  0.51587238  0.08393238  1
  S  S36  1  0.58635843  0.95635747  0.63839767  1
  S  S37  1  0.39798355  0.02345537  0.35688307  1
  S  S38  1  0.23260532  0.52172615  0.28230899  1
  S  S39  1  0.75723252  0.47694172  0.68502302  1
  S  S40  1  0.67985393  0.04544563  0.44884971  1
  S  S41  1  0.32149936  0.02730801  0.54177604  1
