# generated using pymatgen
data_Pr2Mn3(SbS3)4
_symmetry_space_group_name_H-M   'P 1'
_cell_length_a   20.02960800
_cell_length_b   3.90410600
_cell_length_c   14.95364829
_cell_angle_alpha   90.00000000
_cell_angle_beta   126.33350609
_cell_angle_gamma   90.00000000
_symmetry_Int_Tables_number   1
_chemical_formula_structural   Pr2Mn3(SbS3)4
_chemical_formula_sum   'Pr4 Mn6 Sb8 S24'
_cell_volume   942.00006694
_cell_formula_units_Z   2
loop_
 _symmetry_equiv_pos_site_id
 _symmetry_equiv_pos_as_xyz
  1  'x, y, z'
loop_
 _atom_site_type_symbol
 _atom_site_label
 _atom_site_symmetry_multiplicity
 _atom_site_fract_x
 _atom_site_fract_y
 _atom_site_fract_z
 _atom_site_occupancy
  Pr  Pr0  1  0.25616313  0.46468229  0.85671214  1
  Pr  Pr1  1  0.73889495  0.50486352  0.15436482  1
  Pr  Pr2  1  0.77362015  0.01581392  0.88234749  1
  Pr  Pr3  1  0.23844824  0.02231193  0.14350082  1
  Mn  Mn4  1  0.27321453  0.52909678  0.57896397  1
  Mn  Mn5  1  0.71205362  0.51787263  0.40025727  1
  Mn  Mn6  1  0.01470633  0.99224848  0.02165333  1
  Mn  Mn7  1  0.79283674  0.95697212  0.61531161  1
  Mn  Mn8  1  0.18151792  0.97732294  0.41527666  1
  Mn  Mn9  1  0.53391758  0.48971619  0.03676581  1
  Sb  Sb10  1  0.90541850  0.02833180  0.47363464  1
  Sb  Sb11  1  0.11567366  0.93826740  0.55426832  1
  Sb  Sb12  1  0.02200921  0.47363289  0.80481629  1
  Sb  Sb13  1  0.97502790  0.49724051  0.20233107  1
  Sb  Sb14  1  0.38276068  0.53012916  0.44719648  1
  Sb  Sb15  1  0.60332938  0.49802990  0.53720641  1
  Sb  Sb16  1  0.53867599  0.95725425  0.82477573  1
  Sb  Sb17  1  0.46204055  0.06828787  0.17749797  1
  S  S18  1  0.94215071  0.98316271  0.82439316  1
  S  S19  1  0.06817934  0.95925676  0.21057592  1
  S  S20  1  0.43605461  0.05221806  0.99993994  1
  S  S21  1  0.59875680  0.99692581  0.03194361  1
  S  S22  1  0.17933924  0.98209532  0.90624228  1
  S  S23  1  0.83208622  0.03208614  0.11250505  1
  S  S24  1  0.11118444  0.46729443  0.67066212  1
  S  S25  1  0.91172902  0.46921016  0.36799049  1
  S  S26  1  0.74885669  0.01928155  0.32953694  1
  S  S27  1  0.27323533  0.96496760  0.70436290  1
  S  S28  1  0.14504029  0.44950491  0.44550527  1
  S  S29  1  0.84394947  0.44353819  0.57051520  1
  S  S30  1  0.46486715  0.48208098  0.85210451  1
  S  S31  1  0.58419441  0.54032095  0.21341594  1
  S  S32  1  0.92506265  0.43291669  0.99808634  1
  S  S33  1  0.08065591  0.51659892  0.01744395  1
  S  S34  1  0.68467133  0.52891042  0.91174225  1
  S  S35  1  0.33138482  0.51666273  0.08438897  1
  S  S36  1  0.58605580  0.95520795  0.63838098  1
  S  S37  1  0.39785800  0.02369461  0.35711711  1
  S  S38  1  0.23261962  0.52148081  0.28223535  1
  S  S39  1  0.75708057  0.47625915  0.68500843  1
  S  S40  1  0.68032949  0.04549477  0.44969651  1
  S  S41  1  0.32188303  0.02734779  0.54203008  1
