# generated using pymatgen
data_Pr2Mn3(SbS3)4
_symmetry_space_group_name_H-M   'P 1'
_cell_length_a   20.02960800
_cell_length_b   3.90410600
_cell_length_c   14.95364829
_cell_angle_alpha   90.00000000
_cell_angle_beta   126.33350609
_cell_angle_gamma   90.00000000
_symmetry_Int_Tables_number   1
_chemical_formula_structural   Pr2Mn3(SbS3)4
_chemical_formula_sum   'Pr4 Mn6 Sb8 S24'
_cell_volume   942.00006694
_cell_formula_units_Z   2
loop_
 _symmetry_equiv_pos_site_id
 _symmetry_equiv_pos_as_xyz
  1  'x, y, z'
loop_
 _atom_site_type_symbol
 _atom_site_label
 _atom_site_symmetry_multiplicity
 _atom_site_fract_x
 _atom_site_fract_y
 _atom_site_fract_z
 _atom_site_occupancy
  Pr  Pr0  1  0.25607665  0.46440672  0.85669936  1
  Pr  Pr1  1  0.73881457  0.50556606  0.15418605  1
  Pr  Pr2  1  0.77360246  0.01654234  0.88225101  1
  Pr  Pr3  1  0.23842660  0.02214946  0.14359100  1
  Mn  Mn4  1  0.27347464  0.52960816  0.57944311  1
  Mn  Mn5  1  0.71195853  0.51828040  0.40041078  1
  Mn  Mn6  1  0.01513118  0.99175099  0.02232814  1
  Mn  Mn7  1  0.79283157  0.95748598  0.61536199  1
  Mn  Mn8  1  0.18131733  0.97647189  0.41505521  1
  Mn  Mn9  1  0.53399916  0.48938865  0.03674301  1
  Sb  Sb10  1  0.90542556  0.02779328  0.47377973  1
  Sb  Sb11  1  0.11573943  0.93821281  0.55419908  1
  Sb  Sb12  1  0.02177533  0.47269864  0.80448856  1
  Sb  Sb13  1  0.97496927  0.49666498  0.20227931  1
  Sb  Sb14  1  0.38276281  0.53159009  0.44717709  1
  Sb  Sb15  1  0.60335301  0.49814678  0.53709303  1
  Sb  Sb16  1  0.53849841  0.95677723  0.82459842  1
  Sb  Sb17  1  0.46207098  0.06803985  0.17766152  1
  S  S18  1  0.94215025  0.98361923  0.82414077  1
  S  S19  1  0.06863878  0.95789730  0.21114129  1
  S  S20  1  0.43642482  0.05139177  0.00023554  1
  S  S21  1  0.59876086  0.99717151  0.03203086  1
  S  S22  1  0.17927382  0.98183172  0.90626647  1
  S  S23  1  0.83212028  0.03292233  0.11257567  1
  S  S24  1  0.11107319  0.46729564  0.67062998  1
  S  S25  1  0.91141668  0.46891180  0.36786782  1
  S  S26  1  0.74853017  0.01819956  0.32881044  1
  S  S27  1  0.27284205  0.96478637  0.70428388  1
  S  S28  1  0.14474107  0.44926690  0.44519961  1
  S  S29  1  0.84447061  0.44408786  0.57105365  1
  S  S30  1  0.46495237  0.48213090  0.85272252  1
  S  S31  1  0.58413478  0.53844116  0.21362752  1
  S  S32  1  0.92504539  0.43259615  0.99832048  1
  S  S33  1  0.08049677  0.51620140  0.01735881  1
  S  S34  1  0.68502401  0.52746290  0.91195209  1
  S  S35  1  0.33167422  0.51678691  0.08483558  1
  S  S36  1  0.58572827  0.95457207  0.63834953  1
  S  S37  1  0.39789842  0.02423095  0.35755179  1
  S  S38  1  0.23282644  0.52078805  0.28249308  1
  S  S39  1  0.75701876  0.47512653  0.68489205  1
  S  S40  1  0.68089032  0.04554393  0.45065012  1
  S  S41  1  0.32221490  0.02704434  0.54215623  1
