# generated using pymatgen
data_Pr2Mn3(SbS3)4
_symmetry_space_group_name_H-M   'P 1'
_cell_length_a   20.02960800
_cell_length_b   3.90410600
_cell_length_c   14.95364829
_cell_angle_alpha   90.00000000
_cell_angle_beta   126.33350609
_cell_angle_gamma   90.00000000
_symmetry_Int_Tables_number   1
_chemical_formula_structural   Pr2Mn3(SbS3)4
_chemical_formula_sum   'Pr4 Mn6 Sb8 S24'
_cell_volume   942.00006694
_cell_formula_units_Z   2
loop_
 _symmetry_equiv_pos_site_id
 _symmetry_equiv_pos_as_xyz
  1  'x, y, z'
loop_
 _atom_site_type_symbol
 _atom_site_label
 _atom_site_symmetry_multiplicity
 _atom_site_fract_x
 _atom_site_fract_y
 _atom_site_fract_z
 _atom_site_occupancy
  Pr  Pr0  1  0.25610584  0.46416467  0.85678168  1
  Pr  Pr1  1  0.73876021  0.50625549  0.15401622  1
  Pr  Pr2  1  0.77349390  0.01727029  0.88209936  1
  Pr  Pr3  1  0.23845173  0.02189645  0.14370527  1
  Mn  Mn4  1  0.27385849  0.52974614  0.58001089  1
  Mn  Mn5  1  0.71186726  0.51888347  0.40037840  1
  Mn  Mn6  1  0.01555208  0.99156502  0.02289056  1
  Mn  Mn7  1  0.79274599  0.95732915  0.61537336  1
  Mn  Mn8  1  0.18119825  0.97543573  0.41494225  1
  Mn  Mn9  1  0.53406017  0.48919603  0.03684308  1
  Sb  Sb10  1  0.90534597  0.02742380  0.47377662  1
  Sb  Sb11  1  0.11583088  0.93809166  0.55409533  1
  Sb  Sb12  1  0.02159040  0.47179337  0.80419141  1
  Sb  Sb13  1  0.97490666  0.49634715  0.20222246  1
  Sb  Sb14  1  0.38266222  0.53312489  0.44705433  1
  Sb  Sb15  1  0.60336517  0.49790175  0.53694236  1
  Sb  Sb16  1  0.53835240  0.95666331  0.82448092  1
  Sb  Sb17  1  0.46206827  0.06803772  0.17785748  1
  S  S18  1  0.94212868  0.98332105  0.82421782  1
  S  S19  1  0.06902890  0.95697556  0.21162207  1
  S  S20  1  0.43685660  0.05105349  0.00065436  1
  S  S21  1  0.59869891  0.99780330  0.03191667  1
  S  S22  1  0.17928753  0.98162508  0.90623340  1
  S  S23  1  0.83220159  0.03341696  0.11246949  1
  S  S24  1  0.11093213  0.46728792  0.67050398  1
  S  S25  1  0.91098728  0.46890555  0.36750801  1
  S  S26  1  0.74831364  0.01748114  0.32830754  1
  S  S27  1  0.27229397  0.96478810  0.70406259  1
  S  S28  1  0.14455107  0.44861273  0.44491925  1
  S  S29  1  0.84504379  0.44497686  0.57165064  1
  S  S30  1  0.46513188  0.48169918  0.85340950  1
  S  S31  1  0.58401350  0.53671914  0.21381451  1
  S  S32  1  0.92526000  0.43173254  0.99867778  1
  S  S33  1  0.08028466  0.51571758  0.01719496  1
  S  S34  1  0.68534916  0.52632816  0.91209721  1
  S  S35  1  0.33185625  0.51668669  0.08497693  1
  S  S36  1  0.58538961  0.95364459  0.63829779  1
  S  S37  1  0.39799655  0.02463984  0.35813246  1
  S  S38  1  0.23298190  0.52056880  0.28267480  1
  S  S39  1  0.75699968  0.47462299  0.68481743  1
  S  S40  1  0.68136446  0.04589007  0.45152528  1
  S  S41  1  0.32243144  0.02731318  0.54232449  1
