# generated using pymatgen
data_Pr2Mn3(SbS3)4
_symmetry_space_group_name_H-M   'P 1'
_cell_length_a   20.02960800
_cell_length_b   3.90410600
_cell_length_c   14.95364829
_cell_angle_alpha   90.00000000
_cell_angle_beta   126.33350609
_cell_angle_gamma   90.00000000
_symmetry_Int_Tables_number   1
_chemical_formula_structural   Pr2Mn3(SbS3)4
_chemical_formula_sum   'Pr4 Mn6 Sb8 S24'
_cell_volume   942.00006694
_cell_formula_units_Z   2
loop_
 _symmetry_equiv_pos_site_id
 _symmetry_equiv_pos_as_xyz
  1  'x, y, z'
loop_
 _atom_site_type_symbol
 _atom_site_label
 _atom_site_symmetry_multiplicity
 _atom_site_fract_x
 _atom_site_fract_y
 _atom_site_fract_z
 _atom_site_occupancy
  Pr  Pr0  1  0.25989943  0.49932470  0.86304604  1
  Pr  Pr1  1  0.74051813  0.49912555  0.13725449  1
  Pr  Pr2  1  0.75984042  0.00200452  0.86263735  1
  Pr  Pr3  1  0.24026626  0.99814143  0.13725272  1
  Mn  Mn4  1  0.30081813  0.50191609  0.62109739  1
  Mn  Mn5  1  0.69889309  0.50016028  0.37931225  1
  Mn  Mn6  1  0.99967399  0.99983818  0.99988441  1
  Mn  Mn7  1  0.80102243  0.00035903  0.62027319  1
  Mn  Mn8  1  0.19923441  0.99779360  0.37960891  1
  Mn  Mn9  1  0.50001472  0.49771519  0.00054610  1
  Sb  Sb10  1  0.89389857  0.99968080  0.45247629  1
  Sb  Sb11  1  0.10660752  0.99986129  0.54824511  1
  Sb  Sb12  1  0.03846761  0.49797894  0.81467546  1
  Sb  Sb13  1  0.96194517  0.49837946  0.18577789  1
  Sb  Sb14  1  0.39384640  0.49943094  0.45292136  1
  Sb  Sb15  1  0.60596359  0.49930641  0.54725897  1
  Sb  Sb16  1  0.53886909  0.99910413  0.81496646  1
  Sb  Sb17  1  0.46181050  0.99930987  0.18552786  1
  S  S18  1  0.94153159  0.99898986  0.80135082  1
  S  S19  1  0.05813008  0.99925553  0.19751031  1
  S  S20  1  0.40084209  0.99737202  0.97967900  1
  S  S21  1  0.59968126  0.99997554  0.02098885  1
  S  S22  1  0.16771674  0.99731953  0.89550421  1
  S  S23  1  0.83136257  0.00026447  0.10356522  1
  S  S24  1  0.08911861  0.50044027  0.65053816  1
  S  S25  1  0.91106982  0.49853458  0.35005863  1
  S  S26  1  0.74275578  0.99746685  0.29346730  1
  S  S27  1  0.25731731  0.00200487  0.70656848  1
  S  S28  1  0.15702973  0.49711733  0.45201181  1
  S  S29  1  0.84333008  0.50075034  0.54809142  1
  S  S30  1  0.44224121  0.49876768  0.80189532  1
  S  S31  1  0.55861466  0.50079578  0.19822883  1
  S  S32  1  0.90097728  0.49804427  0.97936673  1
  S  S33  1  0.09961137  0.49689785  0.02155332  1
  S  S34  1  0.66711900  0.50208909  0.89493594  1
  S  S35  1  0.33332471  0.49961812  0.10579140  1
  S  S36  1  0.58835388  0.00148081  0.64905901  1
  S  S37  1  0.41167688  0.99822217  0.35055100  1
  S  S38  1  0.24326544  0.49673646  0.29339458  1
  S  S39  1  0.75794212  0.49919610  0.70772543  1
  S  S40  1  0.65685269  0.99942652  0.45248385  1
  S  S41  1  0.34301810  0.99856468  0.54724799  1
