# generated using pymatgen
data_Pr2Mn3(SbS3)4
_symmetry_space_group_name_H-M   'P 1'
_cell_length_a   20.02960800
_cell_length_b   3.90410600
_cell_length_c   14.95364829
_cell_angle_alpha   90.00000000
_cell_angle_beta   126.33350609
_cell_angle_gamma   90.00000000
_symmetry_Int_Tables_number   1
_chemical_formula_structural   Pr2Mn3(SbS3)4
_chemical_formula_sum   'Pr4 Mn6 Sb8 S24'
_cell_volume   942.00006694
_cell_formula_units_Z   2
loop_
 _symmetry_equiv_pos_site_id
 _symmetry_equiv_pos_as_xyz
  1  'x, y, z'
loop_
 _atom_site_type_symbol
 _atom_site_label
 _atom_site_symmetry_multiplicity
 _atom_site_fract_x
 _atom_site_fract_y
 _atom_site_fract_z
 _atom_site_occupancy
  Pr  Pr0  1  0.26155166  0.49438469  0.86593947  1
  Pr  Pr1  1  0.74018423  0.50371175  0.13742997  1
  Pr  Pr2  1  0.76086967  0.00749705  0.86179258  1
  Pr  Pr3  1  0.23949802  0.99022927  0.13869432  1
  Mn  Mn4  1  0.29901456  0.50809129  0.61982667  1
  Mn  Mn5  1  0.69797957  0.50017146  0.38096458  1
  Mn  Mn6  1  0.00144645  0.00223825  0.99963274  1
  Mn  Mn7  1  0.80265194  0.99358102  0.61707103  1
  Mn  Mn8  1  0.19897606  0.98379415  0.37866854  1
  Mn  Mn9  1  0.50144849  0.48605475  0.99898877  1
  Sb  Sb10  1  0.89470570  0.01026095  0.45427307  1
  Sb  Sb11  1  0.10761825  0.98792601  0.55082993  1
  Sb  Sb12  1  0.03819804  0.48820134  0.81531789  1
  Sb  Sb13  1  0.96210886  0.50502476  0.18815245  1
  Sb  Sb14  1  0.39454243  0.48791245  0.45593937  1
  Sb  Sb15  1  0.60674691  0.50123633  0.54903390  1
  Sb  Sb16  1  0.53724417  0.00135022  0.81403671  1
  Sb  Sb17  1  0.46253495  0.00043907  0.18298924  1
  S  S18  1  0.93844985  0.98587229  0.79896735  1
  S  S19  1  0.05841052  0.99829137  0.19143721  1
  S  S20  1  0.40382524  0.98027005  0.97927956  1
  S  S21  1  0.59563142  0.99486710  0.01663675  1
  S  S22  1  0.17056310  0.98624048  0.90301257  1
  S  S23  1  0.82782783  0.00775445  0.10507432  1
  S  S24  1  0.08663384  0.49125596  0.64644658  1
  S  S25  1  0.91157476  0.48218998  0.35484593  1
  S  S26  1  0.74362541  0.96522275  0.29593651  1
  S  S27  1  0.25562967  0.00541873  0.69989496  1
  S  S28  1  0.16042241  0.49136011  0.44669572  1
  S  S29  1  0.83154673  0.49152533  0.54775280  1
  S  S30  1  0.43637374  0.50734074  0.79874824  1
  S  S31  1  0.56058061  0.49470462  0.19588345  1
  S  S32  1  0.90171819  0.47650542  0.97763205  1
  S  S33  1  0.09211898  0.48383649  0.01766023  1
  S  S34  1  0.66509077  0.50621769  0.89566002  1
  S  S35  1  0.33304189  0.50913923  0.10371867  1
  S  S36  1  0.59173865  0.01573146  0.64979601  1
  S  S37  1  0.41285690  0.98297189  0.35775621  1
  S  S38  1  0.24253083  0.47451297  0.29567306  1
  S  S39  1  0.76466659  0.50414500  0.70421588  1
  S  S40  1  0.66333157  0.00556387  0.46074015  1
  S  S41  1  0.33537227  0.98969804  0.54166260  1
