# generated using pymatgen
data_Pr2Mn3(SbS3)4
_symmetry_space_group_name_H-M   'P 1'
_cell_length_a   20.02960800
_cell_length_b   3.90410600
_cell_length_c   14.95364829
_cell_angle_alpha   90.00000000
_cell_angle_beta   126.33350609
_cell_angle_gamma   90.00000000
_symmetry_Int_Tables_number   1
_chemical_formula_structural   Pr2Mn3(SbS3)4
_chemical_formula_sum   'Pr4 Mn6 Sb8 S24'
_cell_volume   942.00006694
_cell_formula_units_Z   2
loop_
 _symmetry_equiv_pos_site_id
 _symmetry_equiv_pos_as_xyz
  1  'x, y, z'
loop_
 _atom_site_type_symbol
 _atom_site_label
 _atom_site_symmetry_multiplicity
 _atom_site_fract_x
 _atom_site_fract_y
 _atom_site_fract_z
 _atom_site_occupancy
  Pr  Pr0  1  0.26970985  0.50518810  0.87596144  1
  Pr  Pr1  1  0.73191352  0.51866911  0.13141459  1
  Pr  Pr2  1  0.76456566  0.02819001  0.87167341  1
  Pr  Pr3  1  0.22879071  0.95516983  0.12560984  1
  Mn  Mn4  1  0.29588956  0.44848084  0.60935266  1
  Mn  Mn5  1  0.68686807  0.45215541  0.36239677  1
  Mn  Mn6  1  0.99918554  0.97387741  0.00535868  1
  Mn  Mn7  1  0.79035380  0.00596554  0.61579314  1
  Mn  Mn8  1  0.20245823  0.02822493  0.37337705  1
  Mn  Mn9  1  0.48246153  0.47385593  0.97925115  1
  Sb  Sb10  1  0.89391699  0.96725970  0.45103107  1
  Sb  Sb11  1  0.11480605  0.97944346  0.54971610  1
  Sb  Sb12  1  0.04038926  0.51234907  0.83112922  1
  Sb  Sb13  1  0.96756889  0.48334529  0.19215447  1
  Sb  Sb14  1  0.39870069  0.49339087  0.45186179  1
  Sb  Sb15  1  0.61371615  0.48390662  0.54812436  1
  Sb  Sb16  1  0.53035311  0.97210772  0.80541005  1
  Sb  Sb17  1  0.46591301  0.03173418  0.18339722  1
  S  S18  1  0.93143629  0.97541702  0.79621509  1
  S  S19  1  0.06699664  0.98473987  0.19925263  1
  S  S20  1  0.41963057  0.98569378  0.98102605  1
  S  S21  1  0.58258586  0.01070543  0.00144770  1
  S  S22  1  0.16308066  0.01988225  0.89810787  1
  S  S23  1  0.83092642  0.97977214  0.10927995  1
  S  S24  1  0.09122101  0.49079044  0.63889764  1
  S  S25  1  0.91425944  0.50836943  0.35679250  1
  S  S26  1  0.73300169  0.99760596  0.29834747  1
  S  S27  1  0.26328968  0.02003352  0.70003207  1
  S  S28  1  0.17202373  0.51652607  0.44260872  1
  S  S29  1  0.80905322  0.54577485  0.53739279  1
  S  S30  1  0.42981357  0.48048140  0.79228296  1
  S  S31  1  0.55540902  0.48964110  0.17539131  1
  S  S32  1  0.91426277  0.52666259  0.98459668  1
  S  S33  1  0.08434165  0.47581483  0.02346843  1
  S  S34  1  0.66460409  0.55944429  0.88427135  1
  S  S35  1  0.33002408  0.45829801  0.10184286  1
  S  S36  1  0.58979790  0.97936501  0.64253894  1
  S  S37  1  0.39553818  0.99424003  0.33669419  1
  S  S38  1  0.24205943  0.47938944  0.31152404  1
  S  S39  1  0.76111917  0.48489695  0.69111127  1
  S  S40  1  0.65964023  0.00118650  0.43663884  1
  S  S41  1  0.32850246  0.96434387  0.55461536  1
