# generated using pymatgen
data_Pr2Mn3(SbS3)4
_symmetry_space_group_name_H-M   'P 1'
_cell_length_a   20.02960800
_cell_length_b   3.90410600
_cell_length_c   14.95364829
_cell_angle_alpha   90.00000000
_cell_angle_beta   126.33350609
_cell_angle_gamma   90.00000000
_symmetry_Int_Tables_number   1
_chemical_formula_structural   Pr2Mn3(SbS3)4
_chemical_formula_sum   'Pr4 Mn6 Sb8 S24'
_cell_volume   942.00006694
_cell_formula_units_Z   2
loop_
 _symmetry_equiv_pos_site_id
 _symmetry_equiv_pos_as_xyz
  1  'x, y, z'
loop_
 _atom_site_type_symbol
 _atom_site_label
 _atom_site_symmetry_multiplicity
 _atom_site_fract_x
 _atom_site_fract_y
 _atom_site_fract_z
 _atom_site_occupancy
  Pr  Pr0  1  0.26976634  0.50484586  0.87598857  1
  Pr  Pr1  1  0.73176828  0.51846096  0.13114668  1
  Pr  Pr2  1  0.76455975  0.02811395  0.87166549  1
  Pr  Pr3  1  0.22895286  0.95462858  0.12568830  1
  Mn  Mn4  1  0.29602569  0.44860018  0.60943015  1
  Mn  Mn5  1  0.68687828  0.45232775  0.36233244  1
  Mn  Mn6  1  0.99929120  0.97384863  0.00539373  1
  Mn  Mn7  1  0.79046569  0.00592093  0.61595088  1
  Mn  Mn8  1  0.20266043  0.02823176  0.37342855  1
  Mn  Mn9  1  0.48258756  0.47416350  0.97932392  1
  Sb  Sb10  1  0.89395194  0.96748574  0.45093987  1
  Sb  Sb11  1  0.11498692  0.97990836  0.54985245  1
  Sb  Sb12  1  0.04040887  0.51239893  0.83132720  1
  Sb  Sb13  1  0.96751629  0.48364335  0.19201697  1
  Sb  Sb14  1  0.39867016  0.49323242  0.45172735  1
  Sb  Sb15  1  0.61374616  0.48356709  0.54805400  1
  Sb  Sb16  1  0.53028908  0.97220295  0.80506342  1
  Sb  Sb17  1  0.46581700  0.03159144  0.18312815  1
  S  S18  1  0.93105382  0.97461647  0.79612095  1
  S  S19  1  0.06701543  0.98573481  0.19905327  1
  S  S20  1  0.41945916  0.98594372  0.98106585  1
  S  S21  1  0.58259152  0.01084272  0.00128539  1
  S  S22  1  0.16316788  0.01909589  0.89808385  1
  S  S23  1  0.83089199  0.97915142  0.10942086  1
  S  S24  1  0.09102309  0.49080261  0.63883069  1
  S  S25  1  0.91418384  0.50789747  0.35674771  1
  S  S26  1  0.73282539  0.99766296  0.29851653  1
  S  S27  1  0.26335226  0.01972107  0.69998173  1
  S  S28  1  0.17217709  0.51698869  0.44259184  1
  S  S29  1  0.80920462  0.54578566  0.53718728  1
  S  S30  1  0.42973230  0.48133208  0.79240646  1
  S  S31  1  0.55562842  0.48905565  0.17561829  1
  S  S32  1  0.91390475  0.52630171  0.98440796  1
  S  S33  1  0.08451289  0.47401283  0.02364195  1
  S  S34  1  0.66434253  0.56006037  0.88381929  1
  S  S35  1  0.33002933  0.45979170  0.10213601  1
  S  S36  1  0.58963601  0.97909001  0.64233033  1
  S  S37  1  0.39589104  0.99388479  0.33718310  1
  S  S38  1  0.24199367  0.47980332  0.31138038  1
  S  S39  1  0.76112060  0.48605213  0.69088255  1
  S  S40  1  0.65980619  0.00125440  0.43669862  1
  S  S41  1  0.32831539  0.96480682  0.55419547  1
