# generated using pymatgen
data_Pr2Mn3(SbS3)4
_symmetry_space_group_name_H-M   'P 1'
_cell_length_a   20.02960800
_cell_length_b   3.90410600
_cell_length_c   14.95364829
_cell_angle_alpha   90.00000000
_cell_angle_beta   126.33350609
_cell_angle_gamma   90.00000000
_symmetry_Int_Tables_number   1
_chemical_formula_structural   Pr2Mn3(SbS3)4
_chemical_formula_sum   'Pr4 Mn6 Sb8 S24'
_cell_volume   942.00006694
_cell_formula_units_Z   2
loop_
 _symmetry_equiv_pos_site_id
 _symmetry_equiv_pos_as_xyz
  1  'x, y, z'
loop_
 _atom_site_type_symbol
 _atom_site_label
 _atom_site_symmetry_multiplicity
 _atom_site_fract_x
 _atom_site_fract_y
 _atom_site_fract_z
 _atom_site_occupancy
  Pr  Pr0  1  0.26981164  0.50453714  0.87605124  1
  Pr  Pr1  1  0.73157825  0.51835265  0.13084752  1
  Pr  Pr2  1  0.76454697  0.02813815  0.87165050  1
  Pr  Pr3  1  0.22912112  0.95429121  0.12578843  1
  Mn  Mn4  1  0.29610430  0.44895379  0.60947211  1
  Mn  Mn5  1  0.68686607  0.45276723  0.36221530  1
  Mn  Mn6  1  0.99939908  0.97403437  0.00547818  1
  Mn  Mn7  1  0.79059586  0.00592935  0.61612139  1
  Mn  Mn8  1  0.20283252  0.02796627  0.37351073  1
  Mn  Mn9  1  0.48276971  0.47487917  0.97943366  1
  Sb  Sb10  1  0.89397658  0.96774706  0.45081243  1
  Sb  Sb11  1  0.11515782  0.98025129  0.55001996  1
  Sb  Sb12  1  0.04042121  0.51249348  0.83146833  1
  Sb  Sb13  1  0.96746356  0.48380848  0.19196000  1
  Sb  Sb14  1  0.39867117  0.49308230  0.45159488  1
  Sb  Sb15  1  0.61373669  0.48323402  0.54798310  1
  Sb  Sb16  1  0.53018732  0.97203222  0.80471019  1
  Sb  Sb17  1  0.46570958  0.03107018  0.18292229  1
  S  S18  1  0.93061224  0.97372234  0.79599797  1
  S  S19  1  0.06707999  0.98639645  0.19892022  1
  S  S20  1  0.41924063  0.98563922  0.98099075  1
  S  S21  1  0.58259163  0.01099173  0.00119468  1
  S  S22  1  0.16322126  0.01818075  0.89810649  1
  S  S23  1  0.83093395  0.97834956  0.10961873  1
  S  S24  1  0.09091611  0.49050724  0.63889358  1
  S  S25  1  0.91404208  0.50691921  0.35675835  1
  S  S26  1  0.73273733  0.99780651  0.29869205  1
  S  S27  1  0.26336071  0.01882995  0.69996849  1
  S  S28  1  0.17233245  0.51697961  0.44249977  1
  S  S29  1  0.80937393  0.54587571  0.53697137  1
  S  S30  1  0.42959963  0.48191505  0.79242628  1
  S  S31  1  0.55586276  0.48911796  0.17593922  1
  S  S32  1  0.91355600  0.52567980  0.98416370  1
  S  S33  1  0.08472837  0.47210681  0.02385299  1
  S  S34  1  0.66417713  0.56042226  0.88360253  1
  S  S35  1  0.32991467  0.46119876  0.10217956  1
  S  S36  1  0.58950811  0.97842571  0.64210774  1
  S  S37  1  0.39612124  0.99399590  0.33754587  1
  S  S38  1  0.24201882  0.48034939  0.31129426  1
  S  S39  1  0.76110998  0.48738580  0.69067053  1
  S  S40  1  0.65995343  0.00116911  0.43680877  1
  S  S41  1  0.32823248  0.96522629  0.55382423  1
