# generated using pymatgen
data_Pr2Mn3(SbS3)4
_symmetry_space_group_name_H-M   'P 1'
_cell_length_a   20.02960800
_cell_length_b   3.90410600
_cell_length_c   14.95364829
_cell_angle_alpha   90.00000000
_cell_angle_beta   126.33350609
_cell_angle_gamma   90.00000000
_symmetry_Int_Tables_number   1
_chemical_formula_structural   Pr2Mn3(SbS3)4
_chemical_formula_sum   'Pr4 Mn6 Sb8 S24'
_cell_volume   942.00006694
_cell_formula_units_Z   2
loop_
 _symmetry_equiv_pos_site_id
 _symmetry_equiv_pos_as_xyz
  1  'x, y, z'
loop_
 _atom_site_type_symbol
 _atom_site_label
 _atom_site_symmetry_multiplicity
 _atom_site_fract_x
 _atom_site_fract_y
 _atom_site_fract_z
 _atom_site_occupancy
  Pr  Pr0  1  0.26987319  0.50418505  0.87615243  1
  Pr  Pr1  1  0.73134791  0.51825235  0.13048601  1
  Pr  Pr2  1  0.76453383  0.02816603  0.87159925  1
  Pr  Pr3  1  0.22928846  0.95375095  0.12591635  1
  Mn  Mn4  1  0.29620077  0.44936183  0.60951652  1
  Mn  Mn5  1  0.68684203  0.45296461  0.36207652  1
  Mn  Mn6  1  0.99948869  0.97402867  0.00558610  1
  Mn  Mn7  1  0.79078926  0.00585043  0.61643757  1
  Mn  Mn8  1  0.20291063  0.02766424  0.37365485  1
  Mn  Mn9  1  0.48294902  0.47513118  0.97962207  1
  Sb  Sb10  1  0.89398044  0.96789970  0.45071742  1
  Sb  Sb11  1  0.11533518  0.98055997  0.55017972  1
  Sb  Sb12  1  0.04040214  0.51265971  0.83157403  1
  Sb  Sb13  1  0.96742399  0.48382323  0.19187443  1
  Sb  Sb14  1  0.39869559  0.49293955  0.45154234  1
  Sb  Sb15  1  0.61369177  0.48300650  0.54788757  1
  Sb  Sb16  1  0.53004914  0.97157358  0.80436942  1
  Sb  Sb17  1  0.46560749  0.03056886  0.18276259  1
  S  S18  1  0.93019091  0.97244098  0.79579391  1
  S  S19  1  0.06697093  0.98684095  0.19860930  1
  S  S20  1  0.41906898  0.98554139  0.98095017  1
  S  S21  1  0.58252039  0.01056366  0.00090446  1
  S  S22  1  0.16322315  0.01703134  0.89822202  1
  S  S23  1  0.83092582  0.97778581  0.10970002  1
  S  S24  1  0.09083191  0.49003003  0.63901598  1
  S  S25  1  0.91398806  0.50575888  0.35673018  1
  S  S26  1  0.73276961  0.99772948  0.29891447  1
  S  S27  1  0.26337778  0.01816687  0.69991090  1
  S  S28  1  0.17245401  0.51717483  0.44244044  1
  S  S29  1  0.80953029  0.54594298  0.53674084  1
  S  S30  1  0.42941811  0.48255182  0.79237543  1
  S  S31  1  0.55616031  0.48972047  0.17638906  1
  S  S32  1  0.91333292  0.52495197  0.98395749  1
  S  S33  1  0.08489670  0.47034043  0.02391102  1
  S  S34  1  0.66406725  0.55999630  0.88358588  1
  S  S35  1  0.32960564  0.46216654  0.10206466  1
  S  S36  1  0.58942086  0.97767348  0.64188865  1
  S  S37  1  0.39646620  0.99408642  0.33798565  1
  S  S38  1  0.24196177  0.48082802  0.31108571  1
  S  S39  1  0.76106062  0.48879454  0.69041196  1
  S  S40  1  0.66015331  0.00122665  0.43699449  1
  S  S41  1  0.32813736  0.96533484  0.55340800  1
