# generated using pymatgen
data_Pr2Mn3(SbS3)4
_symmetry_space_group_name_H-M   'P 1'
_cell_length_a   20.02960800
_cell_length_b   3.90410600
_cell_length_c   14.95364829
_cell_angle_alpha   90.00000000
_cell_angle_beta   126.33350609
_cell_angle_gamma   90.00000000
_symmetry_Int_Tables_number   1
_chemical_formula_structural   Pr2Mn3(SbS3)4
_chemical_formula_sum   'Pr4 Mn6 Sb8 S24'
_cell_volume   942.00006694
_cell_formula_units_Z   2
loop_
 _symmetry_equiv_pos_site_id
 _symmetry_equiv_pos_as_xyz
  1  'x, y, z'
loop_
 _atom_site_type_symbol
 _atom_site_label
 _atom_site_symmetry_multiplicity
 _atom_site_fract_x
 _atom_site_fract_y
 _atom_site_fract_z
 _atom_site_occupancy
  Pr  Pr0  1  0.26990082  0.50394283  0.87627770  1
  Pr  Pr1  1  0.73111947  0.51801292  0.13011172  1
  Pr  Pr2  1  0.76450704  0.02816645  0.87156119  1
  Pr  Pr3  1  0.22939584  0.95333594  0.12606224  1
  Mn  Mn4  1  0.29628183  0.44965549  0.60956257  1
  Mn  Mn5  1  0.68686454  0.45334058  0.36201769  1
  Mn  Mn6  1  0.99960150  0.97429356  0.00575972  1
  Mn  Mn7  1  0.79100149  0.00596138  0.61676321  1
  Mn  Mn8  1  0.20294789  0.02739329  0.37377283  1
  Mn  Mn9  1  0.48320322  0.47520878  0.97988480  1
  Sb  Sb10  1  0.89392677  0.96798561  0.45053443  1
  Sb  Sb11  1  0.11547549  0.98079195  0.55035352  1
  Sb  Sb12  1  0.04039349  0.51300268  0.83165020  1
  Sb  Sb13  1  0.96742943  0.48408875  0.19184995  1
  Sb  Sb14  1  0.39879307  0.49269997  0.45148657  1
  Sb  Sb15  1  0.61364131  0.48291580  0.54785516  1
  Sb  Sb16  1  0.52991864  0.97109573  0.80399543  1
  Sb  Sb17  1  0.46551969  0.03003081  0.18255355  1
  S  S18  1  0.92984545  0.97139098  0.79563305  1
  S  S19  1  0.06694792  0.98756625  0.19826244  1
  S  S20  1  0.41884429  0.98540682  0.98095395  1
  S  S21  1  0.58245158  0.00979628  0.00063785  1
  S  S22  1  0.16329056  0.01629143  0.89832977  1
  S  S23  1  0.83086368  0.97649703  0.10973095  1
  S  S24  1  0.09073479  0.48943945  0.63922772  1
  S  S25  1  0.91387029  0.50477232  0.35670639  1
  S  S26  1  0.73285327  0.99809389  0.29911839  1
  S  S27  1  0.26333204  0.01752930  0.69977490  1
  S  S28  1  0.17258927  0.51701298  0.44256747  1
  S  S29  1  0.80971267  0.54564047  0.53645114  1
  S  S30  1  0.42935791  0.48273007  0.79240009  1
  S  S31  1  0.55633310  0.49055484  0.17669399  1
  S  S32  1  0.91327360  0.52397769  0.98373617  1
  S  S33  1  0.08499218  0.46877638  0.02395493  1
  S  S34  1  0.66387357  0.55971655  0.88347040  1
  S  S35  1  0.32934351  0.46309602  0.10196852  1
  S  S36  1  0.58932451  0.97699286  0.64169683  1
  S  S37  1  0.39684151  0.99467300  0.33833743  1
  S  S38  1  0.24194850  0.48113888  0.31085057  1
  S  S39  1  0.76103085  0.49015416  0.69030747  1
  S  S40  1  0.66033525  0.00206392  0.43719643  1
  S  S41  1  0.32799617  0.96553885  0.55308474  1
