# generated using pymatgen
data_Pr2Mn3(SbS3)4
_symmetry_space_group_name_H-M   'P 1'
_cell_length_a   20.02960800
_cell_length_b   3.90410600
_cell_length_c   14.95364829
_cell_angle_alpha   90.00000000
_cell_angle_beta   126.33350609
_cell_angle_gamma   90.00000000
_symmetry_Int_Tables_number   1
_chemical_formula_structural   Pr2Mn3(SbS3)4
_chemical_formula_sum   'Pr4 Mn6 Sb8 S24'
_cell_volume   942.00006694
_cell_formula_units_Z   2
loop_
 _symmetry_equiv_pos_site_id
 _symmetry_equiv_pos_as_xyz
  1  'x, y, z'
loop_
 _atom_site_type_symbol
 _atom_site_label
 _atom_site_symmetry_multiplicity
 _atom_site_fract_x
 _atom_site_fract_y
 _atom_site_fract_z
 _atom_site_occupancy
  Pr  Pr0  1  0.26997517  0.50376005  0.87640373  1
  Pr  Pr1  1  0.73088543  0.51778654  0.12976904  1
  Pr  Pr2  1  0.76455364  0.02796060  0.87156387  1
  Pr  Pr3  1  0.22945506  0.95279185  0.12615819  1
  Mn  Mn4  1  0.29635255  0.44991988  0.60955436  1
  Mn  Mn5  1  0.68691948  0.45346958  0.36186986  1
  Mn  Mn6  1  0.99977594  0.97468419  0.00605358  1
  Mn  Mn7  1  0.79115563  0.00603332  0.61706508  1
  Mn  Mn8  1  0.20300743  0.02681849  0.37394590  1
  Mn  Mn9  1  0.48340450  0.47468685  0.98013115  1
  Sb  Sb10  1  0.89388678  0.96810847  0.45033742  1
  Sb  Sb11  1  0.11560226  0.98106616  0.55054953  1
  Sb  Sb12  1  0.04042541  0.51331439  0.83176851  1
  Sb  Sb13  1  0.96748271  0.48431398  0.19186930  1
  Sb  Sb14  1  0.39885999  0.49235824  0.45142940  1
  Sb  Sb15  1  0.61356976  0.48300122  0.54780413  1
  Sb  Sb16  1  0.52976895  0.97046695  0.80363995  1
  Sb  Sb17  1  0.46549752  0.02954640  0.18238900  1
  S  S18  1  0.92943650  0.97013391  0.79551660  1
  S  S19  1  0.06683648  0.98810432  0.19776664  1
  S  S20  1  0.41871212  0.98548793  0.98105463  1
  S  S21  1  0.58239767  0.00918747  0.00039244  1
  S  S22  1  0.16337329  0.01520550  0.89850163  1
  S  S23  1  0.83095087  0.97521686  0.10981915  1
  S  S24  1  0.09060391  0.48905980  0.63933623  1
  S  S25  1  0.91381256  0.50432504  0.35666939  1
  S  S26  1  0.73282963  0.99879534  0.29911232  1
  S  S27  1  0.26329787  0.01630141  0.69961919  1
  S  S28  1  0.17270927  0.51746612  0.44285338  1
  S  S29  1  0.80976816  0.54483426  0.53618052  1
  S  S30  1  0.42933221  0.48285033  0.79242594  1
  S  S31  1  0.55650174  0.49112115  0.17699804  1
  S  S32  1  0.91325833  0.52337003  0.98354827  1
  S  S33  1  0.08495255  0.46756094  0.02387673  1
  S  S34  1  0.66377405  0.55969145  0.88354330  1
  S  S35  1  0.32907182  0.46395744  0.10188022  1
  S  S36  1  0.58917406  0.97629452  0.64142836  1
  S  S37  1  0.39717879  0.99501215  0.33865640  1
  S  S38  1  0.24201286  0.48148649  0.31070214  1
  S  S39  1  0.76100744  0.49118081  0.69012321  1
  S  S40  1  0.66032816  0.00248711  0.43729999  1
  S  S41  1  0.32792737  0.96580158  0.55276750  1
