# generated using pymatgen
data_Pr2Mn3(SbS3)4
_symmetry_space_group_name_H-M   'P 1'
_cell_length_a   20.02960800
_cell_length_b   3.90410600
_cell_length_c   14.95364829
_cell_angle_alpha   90.00000000
_cell_angle_beta   126.33350609
_cell_angle_gamma   90.00000000
_symmetry_Int_Tables_number   1
_chemical_formula_structural   Pr2Mn3(SbS3)4
_chemical_formula_sum   'Pr4 Mn6 Sb8 S24'
_cell_volume   942.00006694
_cell_formula_units_Z   2
loop_
 _symmetry_equiv_pos_site_id
 _symmetry_equiv_pos_as_xyz
  1  'x, y, z'
loop_
 _atom_site_type_symbol
 _atom_site_label
 _atom_site_symmetry_multiplicity
 _atom_site_fract_x
 _atom_site_fract_y
 _atom_site_fract_z
 _atom_site_occupancy
  Pr  Pr0  1  0.27004789  0.50394186  0.87654345  1
  Pr  Pr1  1  0.73067020  0.51762977  0.12941742  1
  Pr  Pr2  1  0.76456824  0.02761920  0.87155909  1
  Pr  Pr3  1  0.22948480  0.95236432  0.12628750  1
  Mn  Mn4  1  0.29642241  0.44984504  0.60963311  1
  Mn  Mn5  1  0.68704550  0.45384274  0.36178315  1
  Mn  Mn6  1  0.99991735  0.97498082  0.00633639  1
  Mn  Mn7  1  0.79133671  0.00648191  0.61726822  1
  Mn  Mn8  1  0.20296754  0.02580746  0.37396238  1
  Mn  Mn9  1  0.48355631  0.47395391  0.98030285  1
  Sb  Sb10  1  0.89390486  0.96814419  0.45022782  1
  Sb  Sb11  1  0.11573425  0.98119800  0.55076230  1
  Sb  Sb12  1  0.04047862  0.51374025  0.83195702  1
  Sb  Sb13  1  0.96749597  0.48474269  0.19176703  1
  Sb  Sb14  1  0.39897348  0.49203272  0.45143550  1
  Sb  Sb15  1  0.61348383  0.48292062  0.54775886  1
  Sb  Sb16  1  0.52963221  0.96977865  0.80326602  1
  Sb  Sb17  1  0.46541620  0.02910809  0.18214410  1
  S  S18  1  0.92906803  0.96872994  0.79540765  1
  S  S19  1  0.06675420  0.98874392  0.19740308  1
  S  S20  1  0.41863651  0.98553848  0.98123487  1
  S  S21  1  0.58223539  0.00924368  0.99997888  1
  S  S22  1  0.16359573  0.01425899  0.89883471  1
  S  S23  1  0.83089545  0.97419843  0.10970357  1
  S  S24  1  0.09035897  0.48856347  0.63932805  1
  S  S25  1  0.91373026  0.50357909  0.35653671  1
  S  S26  1  0.73288460  0.99983769  0.29921445  1
  S  S27  1  0.26320965  0.01521978  0.69940351  1
  S  S28  1  0.17273326  0.51726498  0.44301294  1
  S  S29  1  0.80987606  0.54369843  0.53589264  1
  S  S30  1  0.42932526  0.48281942  0.79252885  1
  S  S31  1  0.55653890  0.49177621  0.17714333  1
  S  S32  1  0.91326522  0.52286259  0.98338999  1
  S  S33  1  0.08487715  0.46644424  0.02390664  1
  S  S34  1  0.66358962  0.55934971  0.88358916  1
  S  S35  1  0.32878522  0.46459820  0.10170676  1
  S  S36  1  0.58896936  0.97605125  0.64106498  1
  S  S37  1  0.39753285  0.99571248  0.33912611  1
  S  S38  1  0.24199980  0.48190805  0.31059828  1
  S  S39  1  0.76102839  0.49231707  0.68999033  1
  S  S40  1  0.66043731  0.00347305  0.43754041  1
  S  S41  1  0.32794012  0.96580187  0.55246167  1
