# generated using pymatgen
data_Pr2Mn3(SbS3)4
_symmetry_space_group_name_H-M   'P 1'
_cell_length_a   20.02960800
_cell_length_b   3.90410600
_cell_length_c   14.95364829
_cell_angle_alpha   90.00000000
_cell_angle_beta   126.33350609
_cell_angle_gamma   90.00000000
_symmetry_Int_Tables_number   1
_chemical_formula_structural   Pr2Mn3(SbS3)4
_chemical_formula_sum   'Pr4 Mn6 Sb8 S24'
_cell_volume   942.00006694
_cell_formula_units_Z   2
loop_
 _symmetry_equiv_pos_site_id
 _symmetry_equiv_pos_as_xyz
  1  'x, y, z'
loop_
 _atom_site_type_symbol
 _atom_site_label
 _atom_site_symmetry_multiplicity
 _atom_site_fract_x
 _atom_site_fract_y
 _atom_site_fract_z
 _atom_site_occupancy
  Pr  Pr0  1  0.27012212  0.50412133  0.87667679  1
  Pr  Pr1  1  0.73045836  0.51776553  0.12908856  1
  Pr  Pr2  1  0.76456787  0.02747782  0.87151160  1
  Pr  Pr3  1  0.22956824  0.95189275  0.12644693  1
  Mn  Mn4  1  0.29664709  0.45024015  0.60979510  1
  Mn  Mn5  1  0.68710966  0.45426674  0.36168116  1
  Mn  Mn6  1  0.00001679  0.97505309  0.00659969  1
  Mn  Mn7  1  0.79158503  0.00689041  0.61755274  1
  Mn  Mn8  1  0.20288325  0.02497873  0.37392866  1
  Mn  Mn9  1  0.48370856  0.47303176  0.98053629  1
  Sb  Sb10  1  0.89391832  0.96810450  0.45012657  1
  Sb  Sb11  1  0.11580236  0.98149222  0.55097314  1
  Sb  Sb12  1  0.04048118  0.51449129  0.83206963  1
  Sb  Sb13  1  0.96759003  0.48491328  0.19176183  1
  Sb  Sb14  1  0.39902778  0.49158320  0.45137918  1
  Sb  Sb15  1  0.61337071  0.48301711  0.54767799  1
  Sb  Sb16  1  0.52948958  0.96915655  0.80290933  1
  Sb  Sb17  1  0.46542487  0.02881130  0.18199317  1
  S  S18  1  0.92877381  0.96783399  0.79535266  1
  S  S19  1  0.06679114  0.98969483  0.19722236  1
  S  S20  1  0.41854866  0.98559226  0.98126507  1
  S  S21  1  0.58209328  0.00954508  0.99963263  1
  S  S22  1  0.16379099  0.01273666  0.89918424  1
  S  S23  1  0.83092092  0.97337896  0.10971398  1
  S  S24  1  0.09017961  0.48815512  0.63939209  1
  S  S25  1  0.91364509  0.50323860  0.35638665  1
  S  S26  1  0.73292811  0.00084384  0.29921852  1
  S  S27  1  0.26328251  0.01461572  0.69925702  1
  S  S28  1  0.17275837  0.51711959  0.44324320  1
  S  S29  1  0.81004962  0.54225550  0.53570423  1
  S  S30  1  0.42937704  0.48271270  0.79264887  1
  S  S31  1  0.55656961  0.49255830  0.17721473  1
  S  S32  1  0.91342186  0.52241525  0.98339427  1
  S  S33  1  0.08475852  0.46539552  0.02380643  1
  S  S34  1  0.66331439  0.55888642  0.88351745  1
  S  S35  1  0.32848176  0.46497432  0.10137181  1
  S  S36  1  0.58876929  0.97631880  0.64079061  1
  S  S37  1  0.39792429  0.99601262  0.33962548  1
  S  S38  1  0.24198511  0.48222010  0.31048722  1
  S  S39  1  0.76110757  0.49305511  0.68992220  1
  S  S40  1  0.66048303  0.00470779  0.43769756  1
  S  S41  1  0.32797095  0.96556920  0.55211472  1
