# generated using pymatgen
data_Pr2Mn3(SbS3)4
_symmetry_space_group_name_H-M   'P 1'
_cell_length_a   20.02960800
_cell_length_b   3.90410600
_cell_length_c   14.95364829
_cell_angle_alpha   90.00000000
_cell_angle_beta   126.33350609
_cell_angle_gamma   90.00000000
_symmetry_Int_Tables_number   1
_chemical_formula_structural   Pr2Mn3(SbS3)4
_chemical_formula_sum   'Pr4 Mn6 Sb8 S24'
_cell_volume   942.00006694
_cell_formula_units_Z   2
loop_
 _symmetry_equiv_pos_site_id
 _symmetry_equiv_pos_as_xyz
  1  'x, y, z'
loop_
 _atom_site_type_symbol
 _atom_site_label
 _atom_site_symmetry_multiplicity
 _atom_site_fract_x
 _atom_site_fract_y
 _atom_site_fract_z
 _atom_site_occupancy
  Pr  Pr0  1  0.27015334  0.50442526  0.87678453  1
  Pr  Pr1  1  0.73021839  0.51788065  0.12879253  1
  Pr  Pr2  1  0.76453173  0.02768007  0.87148011  1
  Pr  Pr3  1  0.22961159  0.95164278  0.12654660  1
  Mn  Mn4  1  0.29686946  0.45044502  0.61004112  1
  Mn  Mn5  1  0.68725411  0.45451813  0.36168667  1
  Mn  Mn6  1  0.00016886  0.97540354  0.00694546  1
  Mn  Mn7  1  0.79177097  0.00747649  0.61773496  1
  Mn  Mn8  1  0.20284111  0.02412619  0.37394961  1
  Mn  Mn9  1  0.48375851  0.47215971  0.98073978  1
  Sb  Sb10  1  0.89390988  0.96799899  0.45008095  1
  Sb  Sb11  1  0.11586404  0.98171511  0.55115244  1
  Sb  Sb12  1  0.04058864  0.51512104  0.83223123  1
  Sb  Sb13  1  0.96768263  0.48532952  0.19180496  1
  Sb  Sb14  1  0.39906730  0.49140985  0.45128777  1
  Sb  Sb15  1  0.61327683  0.48302581  0.54758018  1
  Sb  Sb16  1  0.52937493  0.96849812  0.80258281  1
  Sb  Sb17  1  0.46544666  0.02864235  0.18183276  1
  S  S18  1  0.92855725  0.96708553  0.79550588  1
  S  S19  1  0.06673987  0.99076980  0.19703466  1
  S  S20  1  0.41845716  0.98536650  0.98126463  1
  S  S21  1  0.58194570  0.00988855  0.99931191  1
  S  S22  1  0.16401139  0.01097127  0.89962728  1
  S  S23  1  0.83096643  0.97263301  0.10984837  1
  S  S24  1  0.09013359  0.48784005  0.63934500  1
  S  S25  1  0.91355459  0.50354857  0.35625862  1
  S  S26  1  0.73290282  0.00155620  0.29910978  1
  S  S27  1  0.26328266  0.01368845  0.69899731  1
  S  S28  1  0.17275783  0.51684564  0.44344172  1
  S  S29  1  0.81023102  0.54079133  0.53553791  1
  S  S30  1  0.42938282  0.48252570  0.79282268  1
  S  S31  1  0.55674010  0.49342912  0.17739440  1
  S  S32  1  0.91359357  0.52191159  0.98336079  1
  S  S33  1  0.08469610  0.46429721  0.02380537  1
  S  S34  1  0.66304161  0.55863400  0.88349329  1
  S  S35  1  0.32826776  0.46529894  0.10114394  1
  S  S36  1  0.58861375  0.97677404  0.64049849  1
  S  S37  1  0.39827439  0.99609156  0.34000745  1
  S  S38  1  0.24200103  0.48302676  0.31030482  1
  S  S39  1  0.76114563  0.49405289  0.68995257  1
  S  S40  1  0.66051707  0.00604692  0.43771186  1
  S  S41  1  0.32795891  0.96519450  0.55170893  1
