# generated using pymatgen
data_Pr2Mn3(SbS3)4
_symmetry_space_group_name_H-M   'P 1'
_cell_length_a   20.02960800
_cell_length_b   3.90410600
_cell_length_c   14.95364829
_cell_angle_alpha   90.00000000
_cell_angle_beta   126.33350609
_cell_angle_gamma   90.00000000
_symmetry_Int_Tables_number   1
_chemical_formula_structural   Pr2Mn3(SbS3)4
_chemical_formula_sum   'Pr4 Mn6 Sb8 S24'
_cell_volume   942.00006694
_cell_formula_units_Z   2
loop_
 _symmetry_equiv_pos_site_id
 _symmetry_equiv_pos_as_xyz
  1  'x, y, z'
loop_
 _atom_site_type_symbol
 _atom_site_label
 _atom_site_symmetry_multiplicity
 _atom_site_fract_x
 _atom_site_fract_y
 _atom_site_fract_z
 _atom_site_occupancy
  Pr  Pr0  1  0.27017530  0.50472435  0.87686860  1
  Pr  Pr1  1  0.72999720  0.51792118  0.12852881  1
  Pr  Pr2  1  0.76456372  0.02810071  0.87147771  1
  Pr  Pr3  1  0.22965312  0.95165149  0.12660704  1
  Mn  Mn4  1  0.29707979  0.45045727  0.61029732  1
  Mn  Mn5  1  0.68737842  0.45451619  0.36168627  1
  Mn  Mn6  1  0.00029486  0.97545268  0.00723931  1
  Mn  Mn7  1  0.79188910  0.00812652  0.61784278  1
  Mn  Mn8  1  0.20286716  0.02384168  0.37402703  1
  Mn  Mn9  1  0.48381869  0.47163922  0.98098957  1
  Sb  Sb10  1  0.89385200  0.96786817  0.44992854  1
  Sb  Sb11  1  0.11590648  0.98156686  0.55128527  1
  Sb  Sb12  1  0.04062168  0.51572082  0.83228247  1
  Sb  Sb13  1  0.96777089  0.48590417  0.19183933  1
  Sb  Sb14  1  0.39910787  0.49153627  0.45116921  1
  Sb  Sb15  1  0.61317082  0.48306952  0.54741397  1
  Sb  Sb16  1  0.52922367  0.96795529  0.80219561  1
  Sb  Sb17  1  0.46543272  0.02836219  0.18157935  1
  S  S18  1  0.92845597  0.96617087  0.79571741  1
  S  S19  1  0.06665028  0.99172396  0.19677085  1
  S  S20  1  0.41831061  0.98537680  0.98111221  1
  S  S21  1  0.58178188  0.01005375  0.99898757  1
  S  S22  1  0.16427048  0.00949189  0.89997563  1
  S  S23  1  0.83089059  0.97155654  0.10977506  1
  S  S24  1  0.09010215  0.48709352  0.63941149  1
  S  S25  1  0.91349191  0.50405060  0.35621170  1
  S  S26  1  0.73294318  0.00201900  0.29908973  1
  S  S27  1  0.26342032  0.01344299  0.69871174  1
  S  S28  1  0.17278479  0.51702443  0.44362226  1
  S  S29  1  0.81042321  0.53937041  0.53543307  1
  S  S30  1  0.42937557  0.48258050  0.79296126  1
  S  S31  1  0.55693173  0.49418469  0.17746744  1
  S  S32  1  0.91389879  0.52185030  0.98347217  1
  S  S33  1  0.08471321  0.46355518  0.02402284  1
  S  S34  1  0.66286177  0.55896064  0.88355122  1
  S  S35  1  0.32807487  0.46588330  0.10094692  1
  S  S36  1  0.58858008  0.97677745  0.64009880  1
  S  S37  1  0.39860263  0.99639464  0.34023334  1
  S  S38  1  0.24203673  0.48378992  0.31008767  1
  S  S39  1  0.76115736  0.49481604  0.68994901  1
  S  S40  1  0.66060112  0.00702147  0.43778622  1
  S  S41  1  0.32798158  0.96500616  0.55141952  1
