# generated using pymatgen
data_Pr2Mn3(SbS3)4
_symmetry_space_group_name_H-M   'P 1'
_cell_length_a   20.02960800
_cell_length_b   3.90410600
_cell_length_c   14.95364829
_cell_angle_alpha   90.00000000
_cell_angle_beta   126.33350609
_cell_angle_gamma   90.00000000
_symmetry_Int_Tables_number   1
_chemical_formula_structural   Pr2Mn3(SbS3)4
_chemical_formula_sum   'Pr4 Mn6 Sb8 S24'
_cell_volume   942.00006694
_cell_formula_units_Z   2
loop_
 _symmetry_equiv_pos_site_id
 _symmetry_equiv_pos_as_xyz
  1  'x, y, z'
loop_
 _atom_site_type_symbol
 _atom_site_label
 _atom_site_symmetry_multiplicity
 _atom_site_fract_x
 _atom_site_fract_y
 _atom_site_fract_z
 _atom_site_occupancy
  Pr  Pr0  1  0.26158051  0.49411287  0.86594097  1
  Pr  Pr1  1  0.74012652  0.50391511  0.13753549  1
  Pr  Pr2  1  0.76093901  0.00783889  0.86188104  1
  Pr  Pr3  1  0.23933231  0.99035223  0.13873140  1
  Mn  Mn4  1  0.29892456  0.50838672  0.61956591  1
  Mn  Mn5  1  0.69796845  0.50078625  0.38096369  1
  Mn  Mn6  1  0.00150852  0.00116767  0.99947704  1
  Mn  Mn7  1  0.80262174  0.99354918  0.61673169  1
  Mn  Mn8  1  0.19888665  0.98349440  0.37859109  1
  Mn  Mn9  1  0.50158150  0.48590879  0.99882597  1
  Sb  Sb10  1  0.89464427  0.01009167  0.45418807  1
  Sb  Sb11  1  0.10771233  0.98721388  0.55093255  1
  Sb  Sb12  1  0.03815072  0.48787805  0.81536629  1
  Sb  Sb13  1  0.96200409  0.50585788  0.18809080  1
  Sb  Sb14  1  0.39465999  0.48752121  0.45602956  1
  Sb  Sb15  1  0.60686109  0.50162936  0.54908879  1
  Sb  Sb16  1  0.53718156  0.00159211  0.81423192  1
  Sb  Sb17  1  0.46248250  0.00057909  0.18275715  1
  S  S18  1  0.93841180  0.98546358  0.79898626  1
  S  S19  1  0.05851591  0.99862573  0.19109283  1
  S  S20  1  0.40402265  0.98069640  0.97912041  1
  S  S21  1  0.59525349  0.99502713  0.01631475  1
  S  S22  1  0.17085554  0.98637020  0.90309964  1
  S  S23  1  0.82773277  0.00960721  0.10503447  1
  S  S24  1  0.08636011  0.49124050  0.64648468  1
  S  S25  1  0.91172893  0.48232703  0.35544524  1
  S  S26  1  0.74357973  0.96303285  0.29606163  1
  S  S27  1  0.25562949  0.00521613  0.70006420  1
  S  S28  1  0.16040177  0.49167478  0.44648868  1
  S  S29  1  0.83121950  0.49196330  0.54768273  1
  S  S30  1  0.43616646  0.50829128  0.79872784  1
  S  S31  1  0.56047224  0.49578176  0.19556056  1
  S  S32  1  0.90164081  0.47656676  0.97732565  1
  S  S33  1  0.09191501  0.48326598  0.01776487  1
  S  S34  1  0.66523649  0.50479273  0.89585670  1
  S  S35  1  0.33290300  0.51005293  0.10334679  1
  S  S36  1  0.59173730  0.01564213  0.64971892  1
  S  S37  1  0.41292638  0.98317173  0.35775628  1
  S  S38  1  0.24262915  0.47423442  0.29601079  1
  S  S39  1  0.76460715  0.50510841  0.70382202  1
  S  S40  1  0.66366980  0.00571617  0.46090008  1
  S  S41  1  0.33512230  0.98882551  0.54167865  1
