# generated using pymatgen
data_Pr2Mn3(SbS3)4
_symmetry_space_group_name_H-M   'P 1'
_cell_length_a   20.02960800
_cell_length_b   3.90410600
_cell_length_c   14.95364829
_cell_angle_alpha   90.00000000
_cell_angle_beta   126.33350609
_cell_angle_gamma   90.00000000
_symmetry_Int_Tables_number   1
_chemical_formula_structural   Pr2Mn3(SbS3)4
_chemical_formula_sum   'Pr4 Mn6 Sb8 S24'
_cell_volume   942.00006694
_cell_formula_units_Z   2
loop_
 _symmetry_equiv_pos_site_id
 _symmetry_equiv_pos_as_xyz
  1  'x, y, z'
loop_
 _atom_site_type_symbol
 _atom_site_label
 _atom_site_symmetry_multiplicity
 _atom_site_fract_x
 _atom_site_fract_y
 _atom_site_fract_z
 _atom_site_occupancy
  Pr  Pr0  1  0.27022483  0.50486637  0.87689116  1
  Pr  Pr1  1  0.72982735  0.51787201  0.12833412  1
  Pr  Pr2  1  0.76456665  0.02857418  0.87143671  1
  Pr  Pr3  1  0.22966479  0.95158017  0.12664797  1
  Mn  Mn4  1  0.29732661  0.45008925  0.61052985  1
  Mn  Mn5  1  0.68738781  0.45446362  0.36166265  1
  Mn  Mn6  1  0.00040646  0.97512172  0.00747719  1
  Mn  Mn7  1  0.79195842  0.00874222  0.61798252  1
  Mn  Mn8  1  0.20288199  0.02352567  0.37407113  1
  Mn  Mn9  1  0.48399674  0.47055622  0.98137695  1
  Sb  Sb10  1  0.89378000  0.96750317  0.44976232  1
  Sb  Sb11  1  0.11590433  0.98164016  0.55134284  1
  Sb  Sb12  1  0.04066373  0.51646402  0.83231224  1
  Sb  Sb13  1  0.96792903  0.48633251  0.19192574  1
  Sb  Sb14  1  0.39916908  0.49162836  0.45109106  1
  Sb  Sb15  1  0.61309504  0.48319169  0.54727236  1
  Sb  Sb16  1  0.52905109  0.96724865  0.80171286  1
  Sb  Sb17  1  0.46543373  0.02832109  0.18138030  1
  S  S18  1  0.92830432  0.96589927  0.79594783  1
  S  S19  1  0.06650635  0.99266998  0.19659821  1
  S  S20  1  0.41807570  0.98540510  0.98088041  1
  S  S21  1  0.58162169  0.01068334  0.99884066  1
  S  S22  1  0.16460188  0.00792909  0.90028592  1
  S  S23  1  0.83076123  0.97080621  0.10972284  1
  S  S24  1  0.09025625  0.48657808  0.63968869  1
  S  S25  1  0.91344390  0.50415670  0.35611178  1
  S  S26  1  0.73293197  0.00248768  0.29912099  1
  S  S27  1  0.26350209  0.01322957  0.69841316  1
  S  S28  1  0.17288101  0.51728815  0.44385380  1
  S  S29  1  0.81061160  0.53793802  0.53533180  1
  S  S30  1  0.42937364  0.48267777  0.79306546  1
  S  S31  1  0.55714192  0.49495223  0.17753621  1
  S  S32  1  0.91421387  0.52176868  0.98363812  1
  S  S33  1  0.08475964  0.46365716  0.02428272  1
  S  S34  1  0.66255328  0.55878119  0.88355647  1
  S  S35  1  0.32783179  0.46662125  0.10077033  1
  S  S36  1  0.58846699  0.97649926  0.63975079  1
  S  S37  1  0.39873231  0.99586270  0.34042034  1
  S  S38  1  0.24208135  0.48503687  0.30993507  1
  S  S39  1  0.76112742  0.49639917  0.68996722  1
  S  S40  1  0.66073701  0.00810486  0.43799613  1
  S  S41  1  0.32800696  0.96463282  0.55123399  1
