# generated using pymatgen
data_Pr2Mn3(SbS3)4
_symmetry_space_group_name_H-M   'P 1'
_cell_length_a   20.02960800
_cell_length_b   3.90410600
_cell_length_c   14.95364829
_cell_angle_alpha   90.00000000
_cell_angle_beta   126.33350609
_cell_angle_gamma   90.00000000
_symmetry_Int_Tables_number   1
_chemical_formula_structural   Pr2Mn3(SbS3)4
_chemical_formula_sum   'Pr4 Mn6 Sb8 S24'
_cell_volume   942.00006694
_cell_formula_units_Z   2
loop_
 _symmetry_equiv_pos_site_id
 _symmetry_equiv_pos_as_xyz
  1  'x, y, z'
loop_
 _atom_site_type_symbol
 _atom_site_label
 _atom_site_symmetry_multiplicity
 _atom_site_fract_x
 _atom_site_fract_y
 _atom_site_fract_z
 _atom_site_occupancy
  Pr  Pr0  1  0.27033554  0.50481651  0.87693228  1
  Pr  Pr1  1  0.72962483  0.51786313  0.12813213  1
  Pr  Pr2  1  0.76456332  0.02921968  0.87145643  1
  Pr  Pr3  1  0.22976785  0.95148533  0.12673662  1
  Mn  Mn4  1  0.29754437  0.45006657  0.61065060  1
  Mn  Mn5  1  0.68739829  0.45437405  0.36163127  1
  Mn  Mn6  1  0.00055936  0.97455078  0.00765859  1
  Mn  Mn7  1  0.79198273  0.00914272  0.61797394  1
  Mn  Mn8  1  0.20283854  0.02309691  0.37405099  1
  Mn  Mn9  1  0.48413702  0.47002080  0.98166078  1
  Sb  Sb10  1  0.89369400  0.96732811  0.44957471  1
  Sb  Sb11  1  0.11582367  0.98193222  0.55122537  1
  Sb  Sb12  1  0.04073215  0.51730878  0.83235663  1
  Sb  Sb13  1  0.96809136  0.48661702  0.19201603  1
  Sb  Sb14  1  0.39922482  0.49204779  0.45102719  1
  Sb  Sb15  1  0.61301475  0.48337902  0.54721019  1
  Sb  Sb16  1  0.52891144  0.96664223  0.80125133  1
  Sb  Sb17  1  0.46548325  0.02824819  0.18130762  1
  S  S18  1  0.92821859  0.96537419  0.79622517  1
  S  S19  1  0.06635350  0.99329102  0.19644542  1
  S  S20  1  0.41792431  0.98543073  0.98082070  1
  S  S21  1  0.58153684  0.01113014  0.99882529  1
  S  S22  1  0.16484591  0.00664204  0.90058086  1
  S  S23  1  0.83056084  0.97043661  0.10957830  1
  S  S24  1  0.09052116  0.48585017  0.64010311  1
  S  S25  1  0.91337260  0.50440155  0.35587432  1
  S  S26  1  0.73303780  0.00278199  0.29927450  1
  S  S27  1  0.26368195  0.01268854  0.69825267  1
  S  S28  1  0.17286613  0.51743848  0.44392303  1
  S  S29  1  0.81080027  0.53666148  0.53529739  1
  S  S30  1  0.42935313  0.48243795  0.79323971  1
  S  S31  1  0.55723461  0.49580344  0.17746814  1
  S  S32  1  0.91456878  0.52161724  0.98374798  1
  S  S33  1  0.08494068  0.46398697  0.02474446  1
  S  S34  1  0.66229739  0.55885777  0.88364322  1
  S  S35  1  0.32773267  0.46699883  0.10073472  1
  S  S36  1  0.58830893  0.97611939  0.63930309  1
  S  S37  1  0.39890233  0.99537302  0.34069024  1
  S  S38  1  0.24208507  0.48637309  0.30969716  1
  S  S39  1  0.76113181  0.49735268  0.68995766  1
  S  S40  1  0.66088490  0.00906217  0.43817078  1
  S  S41  1  0.32807373  0.96403078  0.55115659  1
