# generated using pymatgen
data_Pr2Mn3(SbS3)4
_symmetry_space_group_name_H-M   'P 1'
_cell_length_a   20.02960800
_cell_length_b   3.90410600
_cell_length_c   14.95364829
_cell_angle_alpha   90.00000000
_cell_angle_beta   126.33350609
_cell_angle_gamma   90.00000000
_symmetry_Int_Tables_number   1
_chemical_formula_structural   Pr2Mn3(SbS3)4
_chemical_formula_sum   'Pr4 Mn6 Sb8 S24'
_cell_volume   942.00006694
_cell_formula_units_Z   2
loop_
 _symmetry_equiv_pos_site_id
 _symmetry_equiv_pos_as_xyz
  1  'x, y, z'
loop_
 _atom_site_type_symbol
 _atom_site_label
 _atom_site_symmetry_multiplicity
 _atom_site_fract_x
 _atom_site_fract_y
 _atom_site_fract_z
 _atom_site_occupancy
  Pr  Pr0  1  0.27039357  0.50479951  0.87690810  1
  Pr  Pr1  1  0.72946940  0.51798606  0.12795644  1
  Pr  Pr2  1  0.76450326  0.02944782  0.87142068  1
  Pr  Pr3  1  0.22983021  0.95155433  0.12686844  1
  Mn  Mn4  1  0.29777907  0.44995335  0.61078062  1
  Mn  Mn5  1  0.68743523  0.45430042  0.36165179  1
  Mn  Mn6  1  0.00061099  0.97371798  0.00774299  1
  Mn  Mn7  1  0.79196243  0.00983347  0.61794563  1
  Mn  Mn8  1  0.20274598  0.02286567  0.37403379  1
  Mn  Mn9  1  0.48433918  0.46944569  0.98188720  1
  Sb  Sb10  1  0.89361869  0.96698167  0.44942685  1
  Sb  Sb11  1  0.11574920  0.98213945  0.55111639  1
  Sb  Sb12  1  0.04082346  0.51799778  0.83249811  1
  Sb  Sb13  1  0.96821684  0.48694881  0.19210572  1
  Sb  Sb14  1  0.39929413  0.49250494  0.45095238  1
  Sb  Sb15  1  0.61297937  0.48349486  0.54719510  1
  Sb  Sb16  1  0.52873443  0.96574550  0.80079051  1
  Sb  Sb17  1  0.46551758  0.02813051  0.18123229  1
  S  S18  1  0.92809252  0.96445365  0.79644302  1
  S  S19  1  0.06622248  0.99361769  0.19620263  1
  S  S20  1  0.41784775  0.98514802  0.98082907  1
  S  S21  1  0.58139758  0.01203779  0.99867876  1
  S  S22  1  0.16517070  0.00554447  0.90085896  1
  S  S23  1  0.83045390  0.97053557  0.10960155  1
  S  S24  1  0.09077137  0.48488819  0.64035281  1
  S  S25  1  0.91329832  0.50470189  0.35560971  1
  S  S26  1  0.73311545  0.00299846  0.29937383  1
  S  S27  1  0.26386464  0.01206491  0.69822531  1
  S  S28  1  0.17279825  0.51759255  0.44404810  1
  S  S29  1  0.81102403  0.53560563  0.53540390  1
  S  S30  1  0.42926287  0.48268369  0.79330673  1
  S  S31  1  0.55726002  0.49645001  0.17741671  1
  S  S32  1  0.91490919  0.52185785  0.98378724  1
  S  S33  1  0.08515102  0.46471280  0.02504507  1
  S  S34  1  0.66207064  0.55888259  0.88362675  1
  S  S35  1  0.32755838  0.46744366  0.10061713  1
  S  S36  1  0.58812391  0.97566240  0.63883706  1
  S  S37  1  0.39905775  0.99519981  0.34094174  1
  S  S38  1  0.24215211  0.48765984  0.30967574  1
  S  S39  1  0.76122116  0.49793969  0.68991453  1
  S  S40  1  0.66107171  0.00933125  0.43833038  1
  S  S41  1  0.32815056  0.96302648  0.55115733  1
