# generated using pymatgen
data_Pr2Mn3(SbS3)4
_symmetry_space_group_name_H-M   'P 1'
_cell_length_a   20.02960800
_cell_length_b   3.90410600
_cell_length_c   14.95364829
_cell_angle_alpha   90.00000000
_cell_angle_beta   126.33350609
_cell_angle_gamma   90.00000000
_symmetry_Int_Tables_number   1
_chemical_formula_structural   Pr2Mn3(SbS3)4
_chemical_formula_sum   'Pr4 Mn6 Sb8 S24'
_cell_volume   942.00006694
_cell_formula_units_Z   2
loop_
 _symmetry_equiv_pos_site_id
 _symmetry_equiv_pos_as_xyz
  1  'x, y, z'
loop_
 _atom_site_type_symbol
 _atom_site_label
 _atom_site_symmetry_multiplicity
 _atom_site_fract_x
 _atom_site_fract_y
 _atom_site_fract_z
 _atom_site_occupancy
  Pr  Pr0  1  0.27048276  0.50488225  0.87688016  1
  Pr  Pr1  1  0.72930376  0.51821051  0.12775063  1
  Pr  Pr2  1  0.76442022  0.02953275  0.87139860  1
  Pr  Pr3  1  0.22989946  0.95162542  0.12703507  1
  Mn  Mn4  1  0.29791748  0.44966585  0.61080493  1
  Mn  Mn5  1  0.68752093  0.45437351  0.36156431  1
  Mn  Mn6  1  0.00063217  0.97285811  0.00785299  1
  Mn  Mn7  1  0.79195222  0.00999017  0.61784235  1
  Mn  Mn8  1  0.20266882  0.02224818  0.37401502  1
  Mn  Mn9  1  0.48448949  0.46894242  0.98210715  1
  Sb  Sb10  1  0.89356880  0.96662497  0.44930221  1
  Sb  Sb11  1  0.11570154  0.98235682  0.55104919  1
  Sb  Sb12  1  0.04088196  0.51864937  0.83259541  1
  Sb  Sb13  1  0.96835302  0.48716750  0.19218202  1
  Sb  Sb14  1  0.39938234  0.49330770  0.45088678  1
  Sb  Sb15  1  0.61288330  0.48365689  0.54709609  1
  Sb  Sb16  1  0.52857461  0.96498496  0.80039896  1
  Sb  Sb17  1  0.46557825  0.02804853  0.18119253  1
  S  S18  1  0.92792492  0.96337184  0.79660239  1
  S  S19  1  0.06609397  0.99373918  0.19587292  1
  S  S20  1  0.41783053  0.98443833  0.98086307  1
  S  S21  1  0.58134213  0.01276730  0.99858747  1
  S  S22  1  0.16549695  0.00451612  0.90104967  1
  S  S23  1  0.83020030  0.97043819  0.10943182  1
  S  S24  1  0.09109914  0.48435690  0.64054083  1
  S  S25  1  0.91314778  0.50493004  0.35529247  1
  S  S26  1  0.73315338  0.00315405  0.29946249  1
  S  S27  1  0.26405828  0.01148853  0.69829213  1
  S  S28  1  0.17263412  0.51772213  0.44412342  1
  S  S29  1  0.81115553  0.53462832  0.53548191  1
  S  S30  1  0.42912827  0.48291966  0.79339642  1
  S  S31  1  0.55729828  0.49748611  0.17737172  1
  S  S32  1  0.91517139  0.52224132  0.98374550  1
  S  S33  1  0.08535164  0.46503245  0.02543735  1
  S  S34  1  0.66197717  0.55914170  0.88361460  1
  S  S35  1  0.32723318  0.46790310  0.10048693  1
  S  S36  1  0.58783599  0.97553809  0.63836333  1
  S  S37  1  0.39910693  0.99463195  0.34114816  1
  S  S38  1  0.24222345  0.48867408  0.30982643  1
  S  S39  1  0.76126575  0.49847014  0.68975851  1
  S  S40  1  0.66126898  0.01013860  0.43852089  1
  S  S41  1  0.32820720  0.96211944  0.55117520  1
