# generated using pymatgen
data_Pr2Mn3(SbS3)4
_symmetry_space_group_name_H-M   'P 1'
_cell_length_a   20.02960800
_cell_length_b   3.90410600
_cell_length_c   14.95364829
_cell_angle_alpha   90.00000000
_cell_angle_beta   126.33350609
_cell_angle_gamma   90.00000000
_symmetry_Int_Tables_number   1
_chemical_formula_structural   Pr2Mn3(SbS3)4
_chemical_formula_sum   'Pr4 Mn6 Sb8 S24'
_cell_volume   942.00006694
_cell_formula_units_Z   2
loop_
 _symmetry_equiv_pos_site_id
 _symmetry_equiv_pos_as_xyz
  1  'x, y, z'
loop_
 _atom_site_type_symbol
 _atom_site_label
 _atom_site_symmetry_multiplicity
 _atom_site_fract_x
 _atom_site_fract_y
 _atom_site_fract_z
 _atom_site_occupancy
  Pr  Pr0  1  0.27056191  0.50473821  0.87688952  1
  Pr  Pr1  1  0.72920106  0.51829850  0.12756458  1
  Pr  Pr2  1  0.76429922  0.02930418  0.87133983  1
  Pr  Pr3  1  0.22999435  0.95156046  0.12720452  1
  Mn  Mn4  1  0.29804092  0.44907551  0.61080108  1
  Mn  Mn5  1  0.68756509  0.45467810  0.36154811  1
  Mn  Mn6  1  0.00062764  0.97232797  0.00796511  1
  Mn  Mn7  1  0.79192748  0.01030578  0.61768477  1
  Mn  Mn8  1  0.20250215  0.02171585  0.37397869  1
  Mn  Mn9  1  0.48459381  0.46796402  0.98230464  1
  Sb  Sb10  1  0.89353879  0.96598002  0.44916128  1
  Sb  Sb11  1  0.11565987  0.98263897  0.55092000  1
  Sb  Sb12  1  0.04098777  0.51928080  0.83269908  1
  Sb  Sb13  1  0.96849840  0.48725496  0.19221661  1
  Sb  Sb14  1  0.39948211  0.49423779  0.45085520  1
  Sb  Sb15  1  0.61279899  0.48378536  0.54698895  1
  Sb  Sb16  1  0.52843181  0.96430797  0.80001690  1
  Sb  Sb17  1  0.46562219  0.02807963  0.18116114  1
  S  S18  1  0.92791282  0.96283346  0.79691492  1
  S  S19  1  0.06606276  0.99391114  0.19571633  1
  S  S20  1  0.41778676  0.98413787  0.98103805  1
  S  S21  1  0.58123518  0.01366680  0.99845153  1
  S  S22  1  0.16578652  0.00305570  0.90109641  1
  S  S23  1  0.82999565  0.97036541  0.10925008  1
  S  S24  1  0.09141155  0.48386986  0.64080624  1
  S  S25  1  0.91295285  0.50480620  0.35495385  1
  S  S26  1  0.73322372  0.00273990  0.29963080  1
  S  S27  1  0.26412090  0.01158678  0.69835760  1
  S  S28  1  0.17243867  0.51815381  0.44418008  1
  S  S29  1  0.81118002  0.53384635  0.53547930  1
  S  S30  1  0.42895108  0.48270701  0.79342625  1
  S  S31  1  0.55729213  0.49827561  0.17740817  1
  S  S32  1  0.91548306  0.52309273  0.98378828  1
  S  S33  1  0.08560068  0.46571967  0.02581052  1
  S  S34  1  0.66196997  0.55950991  0.88370224  1
  S  S35  1  0.32713559  0.46840087  0.10050118  1
  S  S36  1  0.58751801  0.97549893  0.63789013  1
  S  S37  1  0.39904415  0.99388211  0.34125608  1
  S  S38  1  0.24236970  0.48981671  0.31006325  1
  S  S39  1  0.76133367  0.49912652  0.68976357  1
  S  S40  1  0.66149232  0.01118421  0.43869782  1
  S  S41  1  0.32827229  0.96159518  0.55125256  1
