# generated using pymatgen
data_Pr2Mn3(SbS3)4
_symmetry_space_group_name_H-M   'P 1'
_cell_length_a   20.02960800
_cell_length_b   3.90410600
_cell_length_c   14.95364829
_cell_angle_alpha   90.00000000
_cell_angle_beta   126.33350609
_cell_angle_gamma   90.00000000
_symmetry_Int_Tables_number   1
_chemical_formula_structural   Pr2Mn3(SbS3)4
_chemical_formula_sum   'Pr4 Mn6 Sb8 S24'
_cell_volume   942.00006694
_cell_formula_units_Z   2
loop_
 _symmetry_equiv_pos_site_id
 _symmetry_equiv_pos_as_xyz
  1  'x, y, z'
loop_
 _atom_site_type_symbol
 _atom_site_label
 _atom_site_symmetry_multiplicity
 _atom_site_fract_x
 _atom_site_fract_y
 _atom_site_fract_z
 _atom_site_occupancy
  Pr  Pr0  1  0.27065413  0.50431417  0.87694142  1
  Pr  Pr1  1  0.72908165  0.51824879  0.12742685  1
  Pr  Pr2  1  0.76417779  0.02908115  0.87127521  1
  Pr  Pr3  1  0.23012119  0.95168334  0.12738890  1
  Mn  Mn4  1  0.29819025  0.44851171  0.61085220  1
  Mn  Mn5  1  0.68755510  0.45538101  0.36153270  1
  Mn  Mn6  1  0.00062755  0.97187528  0.00808541  1
  Mn  Mn7  1  0.79198777  0.01085678  0.61754600  1
  Mn  Mn8  1  0.20240821  0.02116357  0.37409085  1
  Mn  Mn9  1  0.48473164  0.46722441  0.98251231  1
  Sb  Sb10  1  0.89348904  0.96522426  0.44902849  1
  Sb  Sb11  1  0.11559098  0.98293053  0.55075286  1
  Sb  Sb12  1  0.04108074  0.52006270  0.83285480  1
  Sb  Sb13  1  0.96859760  0.48713305  0.19219142  1
  Sb  Sb14  1  0.39961486  0.49492637  0.45081444  1
  Sb  Sb15  1  0.61267858  0.48370462  0.54689842  1
  Sb  Sb16  1  0.52825587  0.96352317  0.79964119  1
  Sb  Sb17  1  0.46574218  0.02814577  0.18124232  1
  S  S18  1  0.92801315  0.96218946  0.79731272  1
  S  S19  1  0.06607334  0.99426091  0.19560311  1
  S  S20  1  0.41771580  0.98374146  0.98108591  1
  S  S21  1  0.58122795  0.01429163  0.99835320  1
  S  S22  1  0.16610196  0.00180216  0.90129647  1
  S  S23  1  0.82973100  0.97069299  0.10902026  1
  S  S24  1  0.09171040  0.48313842  0.64102705  1
  S  S25  1  0.91265862  0.50407708  0.35456122  1
  S  S26  1  0.73329462  0.00274013  0.29987796  1
  S  S27  1  0.26407013  0.01128209  0.69836036  1
  S  S28  1  0.17229477  0.51904839  0.44422288  1
  S  S29  1  0.81128799  0.53325309  0.53546650  1
  S  S30  1  0.42886964  0.48257840  0.79362183  1
  S  S31  1  0.55743490  0.49881936  0.17747605  1
  S  S32  1  0.91573618  0.52405673  0.98379134  1
  S  S33  1  0.08583405  0.46636873  0.02602518  1
  S  S34  1  0.66196775  0.55987590  0.88359206  1
  S  S35  1  0.32708802  0.46908986  0.10048797  1
  S  S36  1  0.58721836  0.97565432  0.63737439  1
  S  S37  1  0.39897686  0.99343546  0.34138583  1
  S  S38  1  0.24254483  0.49112630  0.31032262  1
  S  S39  1  0.76147279  0.49960623  0.68981174  1
  S  S40  1  0.66170615  0.01198327  0.43879819  1
  S  S41  1  0.32840191  0.96117962  0.55136543  1
