# generated using pymatgen
data_Pr2Mn3(SbS3)4
_symmetry_space_group_name_H-M   'P 1'
_cell_length_a   20.02960800
_cell_length_b   3.90410600
_cell_length_c   14.95364829
_cell_angle_alpha   90.00000000
_cell_angle_beta   126.33350609
_cell_angle_gamma   90.00000000
_symmetry_Int_Tables_number   1
_chemical_formula_structural   Pr2Mn3(SbS3)4
_chemical_formula_sum   'Pr4 Mn6 Sb8 S24'
_cell_volume   942.00006694
_cell_formula_units_Z   2
loop_
 _symmetry_equiv_pos_site_id
 _symmetry_equiv_pos_as_xyz
  1  'x, y, z'
loop_
 _atom_site_type_symbol
 _atom_site_label
 _atom_site_symmetry_multiplicity
 _atom_site_fract_x
 _atom_site_fract_y
 _atom_site_fract_z
 _atom_site_occupancy
  Pr  Pr0  1  0.27071359  0.50379059  0.87694741  1
  Pr  Pr1  1  0.72900431  0.51828797  0.12737782  1
  Pr  Pr2  1  0.76406808  0.02881391  0.87122639  1
  Pr  Pr3  1  0.23022145  0.95198680  0.12756221  1
  Mn  Mn4  1  0.29837417  0.44826687  0.61106302  1
  Mn  Mn5  1  0.68757022  0.45591922  0.36154893  1
  Mn  Mn6  1  0.00055728  0.97120919  0.00819686  1
  Mn  Mn7  1  0.79211985  0.01124783  0.61748112  1
  Mn  Mn8  1  0.20237090  0.02064812  0.37416343  1
  Mn  Mn9  1  0.48487202  0.46658173  0.98264522  1
  Sb  Sb10  1  0.89344921  0.96465695  0.44887454  1
  Sb  Sb11  1  0.11554261  0.98312802  0.55060408  1
  Sb  Sb12  1  0.04122772  0.52093047  0.83307145  1
  Sb  Sb13  1  0.96868185  0.48733331  0.19218539  1
  Sb  Sb14  1  0.39970726  0.49556803  0.45077313  1
  Sb  Sb15  1  0.61258583  0.48373528  0.54681960  1
  Sb  Sb16  1  0.52807090  0.96288071  0.79925595  1
  Sb  Sb17  1  0.46582357  0.02812385  0.18131510  1
  S  S18  1  0.92819020  0.96145613  0.79778372  1
  S  S19  1  0.06599141  0.99429265  0.19543121  1
  S  S20  1  0.41765552  0.98372447  0.98141178  1
  S  S21  1  0.58118391  0.01490068  0.99820849  1
  S  S22  1  0.16630304  0.00056034  0.90139867  1
  S  S23  1  0.82958137  0.97088795  0.10887564  1
  S  S24  1  0.09185321  0.48242532  0.64124607  1
  S  S25  1  0.91230011  0.50422817  0.35415511  1
  S  S26  1  0.73347406  0.00293296  0.30025434  1
  S  S27  1  0.26408269  0.01097194  0.69844627  1
  S  S28  1  0.17216780  0.51970348  0.44431253  1
  S  S29  1  0.81129282  0.53231570  0.53532015  1
  S  S30  1  0.42886185  0.48242669  0.79378505  1
  S  S31  1  0.55760524  0.49880855  0.17751296  1
  S  S32  1  0.91596887  0.52493742  0.98388489  1
  S  S33  1  0.08597966  0.46679555  0.02632718  1
  S  S34  1  0.66197476  0.56005160  0.88362273  1
  S  S35  1  0.32703212  0.46970964  0.10054117  1
  S  S36  1  0.58690010  0.97591385  0.63690342  1
  S  S37  1  0.39899283  0.99352525  0.34165676  1
  S  S38  1  0.24278569  0.49227564  0.31074288  1
  S  S39  1  0.76154783  0.49997896  0.68991255  1
  S  S40  1  0.66187354  0.01233390  0.43879203  1
  S  S41  1  0.32849204  0.96100367  0.55129347  1
