# generated using pymatgen
data_Pr2Mn3(SbS3)4
_symmetry_space_group_name_H-M   'P 1'
_cell_length_a   20.02960800
_cell_length_b   3.90410600
_cell_length_c   14.95364829
_cell_angle_alpha   90.00000000
_cell_angle_beta   126.33350609
_cell_angle_gamma   90.00000000
_symmetry_Int_Tables_number   1
_chemical_formula_structural   Pr2Mn3(SbS3)4
_chemical_formula_sum   'Pr4 Mn6 Sb8 S24'
_cell_volume   942.00006694
_cell_formula_units_Z   2
loop_
 _symmetry_equiv_pos_site_id
 _symmetry_equiv_pos_as_xyz
  1  'x, y, z'
loop_
 _atom_site_type_symbol
 _atom_site_label
 _atom_site_symmetry_multiplicity
 _atom_site_fract_x
 _atom_site_fract_y
 _atom_site_fract_z
 _atom_site_occupancy
  Pr  Pr0  1  0.27077055  0.50331577  0.87695804  1
  Pr  Pr1  1  0.72892516  0.51840713  0.12732000  1
  Pr  Pr2  1  0.76400315  0.02823021  0.87120210  1
  Pr  Pr3  1  0.23036056  0.95234432  0.12774453  1
  Mn  Mn4  1  0.29854380  0.44771885  0.61121118  1
  Mn  Mn5  1  0.68767864  0.45676208  0.36169366  1
  Mn  Mn6  1  0.00050705  0.97081205  0.00833823  1
  Mn  Mn7  1  0.79233283  0.01132321  0.61756064  1
  Mn  Mn8  1  0.20238380  0.02001132  0.37427107  1
  Mn  Mn9  1  0.48503072  0.46580156  0.98272378  1
  Sb  Sb10  1  0.89343421  0.96418556  0.44876544  1
  Sb  Sb11  1  0.11540726  0.98313696  0.55041093  1
  Sb  Sb12  1  0.04132768  0.52173823  0.83327287  1
  Sb  Sb13  1  0.96869603  0.48748254  0.19221782  1
  Sb  Sb14  1  0.39978410  0.49593275  0.45072122  1
  Sb  Sb15  1  0.61251557  0.48386601  0.54681549  1
  Sb  Sb16  1  0.52793001  0.96224747  0.79888475  1
  Sb  Sb17  1  0.46594705  0.02807601  0.18143858  1
  S  S18  1  0.92827699  0.96160328  0.79808572  1
  S  S19  1  0.06578015  0.99401847  0.19495751  1
  S  S20  1  0.41750846  0.98422735  0.98171434  1
  S  S21  1  0.58116331  0.01532350  0.99818588  1
  S  S22  1  0.16642075  0.99929960  0.90139376  1
  S  S23  1  0.82937975  0.97142528  0.10863986  1
  S  S24  1  0.09198001  0.48183206  0.64142763  1
  S  S25  1  0.91194365  0.50418166  0.35371898  1
  S  S26  1  0.73365289  0.00302164  0.30067038  1
  S  S27  1  0.26412907  0.01052102  0.69846998  1
  S  S28  1  0.17210885  0.51990813  0.44450344  1
  S  S29  1  0.81141679  0.53176723  0.53524921  1
  S  S30  1  0.42888344  0.48238630  0.79406739  1
  S  S31  1  0.55772676  0.49899000  0.17749916  1
  S  S32  1  0.91635504  0.52535400  0.98411330  1
  S  S33  1  0.08602458  0.46722332  0.02651150  1
  S  S34  1  0.66208838  0.56014853  0.88375645  1
  S  S35  1  0.32685329  0.47046409  0.10060270  1
  S  S36  1  0.58653864  0.97620199  0.63642983  1
  S  S37  1  0.39913092  0.99340376  0.34182775  1
  S  S38  1  0.24301591  0.49353368  0.31117332  1
  S  S39  1  0.76176551  0.50059200  0.69009035  1
  S  S40  1  0.66197001  0.01277934  0.43878675  1
  S  S41  1  0.32854984  0.96056035  0.55133231  1
