# generated using pymatgen
data_Pr2Mn3(SbS3)4
_symmetry_space_group_name_H-M   'P 1'
_cell_length_a   20.02960800
_cell_length_b   3.90410600
_cell_length_c   14.95364829
_cell_angle_alpha   90.00000000
_cell_angle_beta   126.33350609
_cell_angle_gamma   90.00000000
_symmetry_Int_Tables_number   1
_chemical_formula_structural   Pr2Mn3(SbS3)4
_chemical_formula_sum   'Pr4 Mn6 Sb8 S24'
_cell_volume   942.00006694
_cell_formula_units_Z   2
loop_
 _symmetry_equiv_pos_site_id
 _symmetry_equiv_pos_as_xyz
  1  'x, y, z'
loop_
 _atom_site_type_symbol
 _atom_site_label
 _atom_site_symmetry_multiplicity
 _atom_site_fract_x
 _atom_site_fract_y
 _atom_site_fract_z
 _atom_site_occupancy
  Pr  Pr0  1  0.27080809  0.50245167  0.87696167  1
  Pr  Pr1  1  0.72883032  0.51820603  0.12726274  1
  Pr  Pr2  1  0.76395060  0.02750252  0.87112413  1
  Pr  Pr3  1  0.23046228  0.95281252  0.12794521  1
  Mn  Mn4  1  0.29871842  0.44759863  0.61131831  1
  Mn  Mn5  1  0.68775150  0.45729768  0.36184852  1
  Mn  Mn6  1  0.00056611  0.97043022  0.00859880  1
  Mn  Mn7  1  0.79256233  0.01129986  0.61770909  1
  Mn  Mn8  1  0.20241175  0.01914787  0.37430047  1
  Mn  Mn9  1  0.48521334  0.46499749  0.98281277  1
  Sb  Sb10  1  0.89344211  0.96365039  0.44862459  1
  Sb  Sb11  1  0.11530181  0.98308761  0.55025248  1
  Sb  Sb12  1  0.04142304  0.52247508  0.83349689  1
  Sb  Sb13  1  0.96873298  0.48762430  0.19226692  1
  Sb  Sb14  1  0.39984112  0.49625482  0.45064257  1
  Sb  Sb15  1  0.61245150  0.48397202  0.54671544  1
  Sb  Sb16  1  0.52775306  0.96185932  0.79851390  1
  Sb  Sb17  1  0.46603000  0.02798499  0.18150547  1
  S  S18  1  0.92838727  0.96105181  0.79840882  1
  S  S19  1  0.06558409  0.99409458  0.19452625  1
  S  S20  1  0.41723576  0.98490383  0.98187004  1
  S  S21  1  0.58107252  0.01599008  0.99804506  1
  S  S22  1  0.16648165  0.99843775  0.90136391  1
  S  S23  1  0.82920401  0.97192947  0.10834086  1
  S  S24  1  0.09200495  0.48154411  0.64156605  1
  S  S25  1  0.91154908  0.50415661  0.35341653  1
  S  S26  1  0.73376324  0.00324592  0.30080130  1
  S  S27  1  0.26409025  0.00965841  0.69842011  1
  S  S28  1  0.17209565  0.52005075  0.44470352  1
  S  S29  1  0.81152543  0.53140493  0.53512844  1
  S  S30  1  0.42894907  0.48202983  0.79450132  1
  S  S31  1  0.55775793  0.49933228  0.17748323  1
  S  S32  1  0.91686840  0.52544571  0.98444647  1
  S  S33  1  0.08606899  0.46728486  0.02663112  1
  S  S34  1  0.66204953  0.56009354  0.88398622  1
  S  S35  1  0.32668059  0.47148375  0.10078522  1
  S  S36  1  0.58620995  0.97680327  0.63605662  1
  S  S37  1  0.39918246  0.99328562  0.34200429  1
  S  S38  1  0.24329634  0.49436693  0.31171609  1
  S  S39  1  0.76197747  0.50071374  0.69029839  1
  S  S40  1  0.66205053  0.01296769  0.43885148  1
  S  S41  1  0.32853639  0.96007445  0.55119496  1
