# generated using pymatgen
data_Pr2Mn3(SbS3)4
_symmetry_space_group_name_H-M   'P 1'
_cell_length_a   20.02960800
_cell_length_b   3.90410600
_cell_length_c   14.95364829
_cell_angle_alpha   90.00000000
_cell_angle_beta   126.33350609
_cell_angle_gamma   90.00000000
_symmetry_Int_Tables_number   1
_chemical_formula_structural   Pr2Mn3(SbS3)4
_chemical_formula_sum   'Pr4 Mn6 Sb8 S24'
_cell_volume   942.00006694
_cell_formula_units_Z   2
loop_
 _symmetry_equiv_pos_site_id
 _symmetry_equiv_pos_as_xyz
  1  'x, y, z'
loop_
 _atom_site_type_symbol
 _atom_site_label
 _atom_site_symmetry_multiplicity
 _atom_site_fract_x
 _atom_site_fract_y
 _atom_site_fract_z
 _atom_site_occupancy
  Pr  Pr0  1  0.27088348  0.50167242  0.87702603  1
  Pr  Pr1  1  0.72870497  0.51798748  0.12717401  1
  Pr  Pr2  1  0.76393922  0.02669181  0.87106353  1
  Pr  Pr3  1  0.23053918  0.95307743  0.12818228  1
  Mn  Mn4  1  0.29884595  0.44727686  0.61131115  1
  Mn  Mn5  1  0.68776867  0.45746345  0.36185552  1
  Mn  Mn6  1  0.00061667  0.96985453  0.00869814  1
  Mn  Mn7  1  0.79277613  0.01093923  0.61791465  1
  Mn  Mn8  1  0.20249563  0.01867031  0.37439452  1
  Mn  Mn9  1  0.48542994  0.46465582  0.98288929  1
  Sb  Sb10  1  0.89342888  0.96337396  0.44844567  1
  Sb  Sb11  1  0.11522910  0.98309400  0.55018286  1
  Sb  Sb12  1  0.04153003  0.52315628  0.83367401  1
  Sb  Sb13  1  0.96874826  0.48751925  0.19230282  1
  Sb  Sb14  1  0.39985012  0.49694474  0.45053120  1
  Sb  Sb15  1  0.61240953  0.48409013  0.54666386  1
  Sb  Sb16  1  0.52754508  0.96149468  0.79807403  1
  Sb  Sb17  1  0.46611728  0.02803453  0.18156245  1
  S  S18  1  0.92856416  0.96058184  0.79876415  1
  S  S19  1  0.06552264  0.99408437  0.19418795  1
  S  S20  1  0.41708716  0.98561541  0.98206030  1
  S  S21  1  0.58096518  0.01663703  0.99789274  1
  S  S22  1  0.16644658  0.99750776  0.90124337  1
  S  S23  1  0.82908918  0.97229960  0.10802032  1
  S  S24  1  0.09201525  0.48130921  0.64174291  1
  S  S25  1  0.91102449  0.50409026  0.35297010  1
  S  S26  1  0.73386152  0.00309572  0.30083569  1
  S  S27  1  0.26407276  0.00888656  0.69844039  1
  S  S28  1  0.17206077  0.51962970  0.44486643  1
  S  S29  1  0.81173839  0.53138305  0.53507558  1
  S  S30  1  0.42891717  0.48148589  0.79492420  1
  S  S31  1  0.55774990  0.49943350  0.17743591  1
  S  S32  1  0.91739756  0.52542113  0.98481797  1
  S  S33  1  0.08603903  0.46741332  0.02660912  1
  S  S34  1  0.66197118  0.55972681  0.88400254  1
  S  S35  1  0.32659865  0.47217511  0.10105568  1
  S  S36  1  0.58591786  0.97783865  0.63579556  1
  S  S37  1  0.39934033  0.99318468  0.34230142  1
  S  S38  1  0.24361363  0.49516571  0.31222438  1
  S  S39  1  0.76218502  0.50148469  0.69049732  1
  S  S40  1  0.66206906  0.01335687  0.43881031  1
  S  S41  1  0.32858477  0.95937740  0.55111377  1
