# generated using pymatgen
data_Pr2Mn3(SbS3)4
_symmetry_space_group_name_H-M   'P 1'
_cell_length_a   20.02960800
_cell_length_b   3.90410600
_cell_length_c   14.95364829
_cell_angle_alpha   90.00000000
_cell_angle_beta   126.33350609
_cell_angle_gamma   90.00000000
_symmetry_Int_Tables_number   1
_chemical_formula_structural   Pr2Mn3(SbS3)4
_chemical_formula_sum   'Pr4 Mn6 Sb8 S24'
_cell_volume   942.00006694
_cell_formula_units_Z   2
loop_
 _symmetry_equiv_pos_site_id
 _symmetry_equiv_pos_as_xyz
  1  'x, y, z'
loop_
 _atom_site_type_symbol
 _atom_site_label
 _atom_site_symmetry_multiplicity
 _atom_site_fract_x
 _atom_site_fract_y
 _atom_site_fract_z
 _atom_site_occupancy
  Pr  Pr0  1  0.26163249  0.49372143  0.86598229  1
  Pr  Pr1  1  0.74001389  0.50405523  0.13765512  1
  Pr  Pr2  1  0.76107189  0.00796145  0.86201821  1
  Pr  Pr3  1  0.23925277  0.99054741  0.13880530  1
  Mn  Mn4  1  0.29884375  0.50843476  0.61931372  1
  Mn  Mn5  1  0.69795543  0.50167091  0.38095056  1
  Mn  Mn6  1  0.00158397  0.00053211  0.99930610  1
  Mn  Mn7  1  0.80271214  0.99374153  0.61650941  1
  Mn  Mn8  1  0.19884185  0.98311497  0.37857197  1
  Mn  Mn9  1  0.50176026  0.48560633  0.99868544  1
  Sb  Sb10  1  0.89461276  0.01012485  0.45416719  1
  Sb  Sb11  1  0.10787314  0.98634886  0.55106193  1
  Sb  Sb12  1  0.03811919  0.48755878  0.81538970  1
  Sb  Sb13  1  0.96188349  0.50700531  0.18798607  1
  Sb  Sb14  1  0.39480260  0.48748761  0.45617218  1
  Sb  Sb15  1  0.60690534  0.50199440  0.54917169  1
  Sb  Sb16  1  0.53705730  0.00185836  0.81432126  1
  Sb  Sb17  1  0.46240690  0.00062251  0.18244504  1
  S  S18  1  0.93828445  0.98478431  0.79897356  1
  S  S19  1  0.05874790  0.99931163  0.19094994  1
  S  S20  1  0.40417081  0.98180322  0.97894065  1
  S  S21  1  0.59484208  0.99573066  0.01599807  1
  S  S22  1  0.17122125  0.98605610  0.90326347  1
  S  S23  1  0.82769909  0.01169462  0.10522017  1
  S  S24  1  0.08602575  0.49115986  0.64629868  1
  S  S25  1  0.91191182  0.48264520  0.35607500  1
  S  S26  1  0.74356013  0.96068876  0.29625852  1
  S  S27  1  0.25560798  0.00528370  0.70025865  1
  S  S28  1  0.16042680  0.49233220  0.44629354  1
  S  S29  1  0.83097924  0.49228089  0.54762027  1
  S  S30  1  0.43589499  0.50893473  0.79856249  1
  S  S31  1  0.56034751  0.49655853  0.19513054  1
  S  S32  1  0.90150211  0.47706303  0.97688862  1
  S  S33  1  0.09158775  0.48259928  0.01776142  1
  S  S34  1  0.66544029  0.50377689  0.89597791  1
  S  S35  1  0.33271889  0.51075641  0.10292153  1
  S  S36  1  0.59173685  0.01578142  0.64955961  1
  S  S37  1  0.41305607  0.98386777  0.35778694  1
  S  S38  1  0.24280267  0.47373823  0.29644925  1
  S  S39  1  0.76442546  0.50583910  0.70331766  1
  S  S40  1  0.66397714  0.00596123  0.46098908  1
  S  S41  1  0.33489399  0.98811167  0.54175937  1
