# generated using pymatgen
data_Pr2Mn3(SbS3)4
_symmetry_space_group_name_H-M   'P 1'
_cell_length_a   20.02960800
_cell_length_b   3.90410600
_cell_length_c   14.95364829
_cell_angle_alpha   90.00000000
_cell_angle_beta   126.33350609
_cell_angle_gamma   90.00000000
_symmetry_Int_Tables_number   1
_chemical_formula_structural   Pr2Mn3(SbS3)4
_chemical_formula_sum   'Pr4 Mn6 Sb8 S24'
_cell_volume   942.00006694
_cell_formula_units_Z   2
loop_
 _symmetry_equiv_pos_site_id
 _symmetry_equiv_pos_as_xyz
  1  'x, y, z'
loop_
 _atom_site_type_symbol
 _atom_site_label
 _atom_site_symmetry_multiplicity
 _atom_site_fract_x
 _atom_site_fract_y
 _atom_site_fract_z
 _atom_site_occupancy
  Pr  Pr0  1  0.27089221  0.50096649  0.87703344  1
  Pr  Pr1  1  0.72854229  0.51778179  0.12698427  1
  Pr  Pr2  1  0.76394952  0.02597415  0.87099800  1
  Pr  Pr3  1  0.23059532  0.95310554  0.12837854  1
  Mn  Mn4  1  0.29905639  0.44741665  0.61149680  1
  Mn  Mn5  1  0.68772340  0.45758349  0.36184696  1
  Mn  Mn6  1  0.00064235  0.96941111  0.00863965  1
  Mn  Mn7  1  0.79297918  0.01070266  0.61811830  1
  Mn  Mn8  1  0.20257388  0.01889537  0.37465909  1
  Mn  Mn9  1  0.48568059  0.46452445  0.98302728  1
  Sb  Sb10  1  0.89342757  0.96310530  0.44829952  1
  Sb  Sb11  1  0.11509624  0.98314189  0.55004936  1
  Sb  Sb12  1  0.04159845  0.52378588  0.83383888  1
  Sb  Sb13  1  0.96882958  0.48757234  0.19239129  1
  Sb  Sb14  1  0.39988475  0.49778682  0.45045548  1
  Sb  Sb15  1  0.61232299  0.48434808  0.54650429  1
  Sb  Sb16  1  0.52737923  0.96104615  0.79766933  1
  Sb  Sb17  1  0.46624786  0.02809103  0.18161913  1
  S  S18  1  0.92868359  0.95958551  0.79894665  1
  S  S19  1  0.06560650  0.99435862  0.19390707  1
  S  S20  1  0.41695701  0.98643065  0.98218073  1
  S  S21  1  0.58096704  0.01724424  0.99775125  1
  S  S22  1  0.16645337  0.99606221  0.90115262  1
  S  S23  1  0.82899874  0.97325551  0.10778152  1
  S  S24  1  0.09202829  0.48151826  0.64189790  1
  S  S25  1  0.91048761  0.50388614  0.35250692  1
  S  S26  1  0.73389761  0.00253356  0.30077255  1
  S  S27  1  0.26397548  0.00838762  0.69844774  1
  S  S28  1  0.17198966  0.51867954  0.44499189  1
  S  S29  1  0.81198798  0.53113934  0.53511495  1
  S  S30  1  0.42891278  0.48121141  0.79530266  1
  S  S31  1  0.55769666  0.49979276  0.17728841  1
  S  S32  1  0.91798102  0.52501429  0.98520513  1
  S  S33  1  0.08612008  0.46766875  0.02676902  1
  S  S34  1  0.66194068  0.55963997  0.88407519  1
  S  S35  1  0.32664098  0.47278056  0.10139334  1
  S  S36  1  0.58568738  0.97916008  0.63555670  1
  S  S37  1  0.39942832  0.99364881  0.34254654  1
  S  S38  1  0.24387411  0.49603756  0.31266614  1
  S  S39  1  0.76243197  0.50171242  0.69073226  1
  S  S40  1  0.66216710  0.01370098  0.43883259  1
  S  S41  1  0.32853668  0.95919394  0.55089828  1
