# generated using pymatgen
data_Pr2Mn3(SbS3)4
_symmetry_space_group_name_H-M   'P 1'
_cell_length_a   20.02960800
_cell_length_b   3.90410600
_cell_length_c   14.95364829
_cell_angle_alpha   90.00000000
_cell_angle_beta   126.33350609
_cell_angle_gamma   90.00000000
_symmetry_Int_Tables_number   1
_chemical_formula_structural   Pr2Mn3(SbS3)4
_chemical_formula_sum   'Pr4 Mn6 Sb8 S24'
_cell_volume   942.00006694
_cell_formula_units_Z   2
loop_
 _symmetry_equiv_pos_site_id
 _symmetry_equiv_pos_as_xyz
  1  'x, y, z'
loop_
 _atom_site_type_symbol
 _atom_site_label
 _atom_site_symmetry_multiplicity
 _atom_site_fract_x
 _atom_site_fract_y
 _atom_site_fract_z
 _atom_site_occupancy
  Pr  Pr0  1  0.27096495  0.50016596  0.87710956  1
  Pr  Pr1  1  0.72839977  0.51757811  0.12683945  1
  Pr  Pr2  1  0.76396776  0.02519189  0.87093663  1
  Pr  Pr3  1  0.23064101  0.95330701  0.12862775  1
  Mn  Mn4  1  0.29932444  0.44748216  0.61189840  1
  Mn  Mn5  1  0.68779838  0.45790471  0.36189531  1
  Mn  Mn6  1  0.00075610  0.96883385  0.00871427  1
  Mn  Mn7  1  0.79311880  0.01079727  0.61816297  1
  Mn  Mn8  1  0.20263653  0.01906967  0.37500836  1
  Mn  Mn9  1  0.48595920  0.46423648  0.98330095  1
  Sb  Sb10  1  0.89339322  0.96269400  0.44816560  1
  Sb  Sb11  1  0.11498166  0.98352142  0.54996797  1
  Sb  Sb12  1  0.04157025  0.52434743  0.83392295  1
  Sb  Sb13  1  0.96890480  0.48773353  0.19246546  1
  Sb  Sb14  1  0.39993632  0.49842780  0.45040637  1
  Sb  Sb15  1  0.61224447  0.48467099  0.54637751  1
  Sb  Sb16  1  0.52717466  0.96050031  0.79722504  1
  Sb  Sb17  1  0.46639417  0.02799852  0.18174275  1
  S  S18  1  0.92883895  0.95906864  0.79928503  1
  S  S19  1  0.06565497  0.99466079  0.19368258  1
  S  S20  1  0.41680916  0.98713419  0.98219314  1
  S  S21  1  0.58098838  0.01784509  0.99759697  1
  S  S22  1  0.16625033  0.99457542  0.90102454  1
  S  S23  1  0.82895443  0.97360211  0.10767595  1
  S  S24  1  0.09211042  0.48208874  0.64216332  1
  S  S25  1  0.91001962  0.50344924  0.35210839  1
  S  S26  1  0.73391211  0.00185539  0.30062680  1
  S  S27  1  0.26397972  0.00814997  0.69854437  1
  S  S28  1  0.17199626  0.51771644  0.44509593  1
  S  S29  1  0.81217830  0.53078409  0.53504746  1
  S  S30  1  0.42898741  0.48031006  0.79557866  1
  S  S31  1  0.55765964  0.50012953  0.17729252  1
  S  S32  1  0.91851925  0.52380692  0.98561949  1
  S  S33  1  0.08616549  0.46878410  0.02697697  1
  S  S34  1  0.66187545  0.55975860  0.88413402  1
  S  S35  1  0.32678644  0.47318217  0.10189384  1
  S  S36  1  0.58558552  0.98021272  0.63548658  1
  S  S37  1  0.39957159  0.99422422  0.34268468  1
  S  S38  1  0.24417254  0.49660382  0.31289951  1
  S  S39  1  0.76262207  0.50212620  0.69099603  1
  S  S40  1  0.66239525  0.01461004  0.43895596  1
  S  S41  1  0.32850189  0.95910652  0.55067583  1
