# generated using pymatgen
data_Pr2Mn3(SbS3)4
_symmetry_space_group_name_H-M   'P 1'
_cell_length_a   20.02960800
_cell_length_b   3.90410600
_cell_length_c   14.95364829
_cell_angle_alpha   90.00000000
_cell_angle_beta   126.33350609
_cell_angle_gamma   90.00000000
_symmetry_Int_Tables_number   1
_chemical_formula_structural   Pr2Mn3(SbS3)4
_chemical_formula_sum   'Pr4 Mn6 Sb8 S24'
_cell_volume   942.00006694
_cell_formula_units_Z   2
loop_
 _symmetry_equiv_pos_site_id
 _symmetry_equiv_pos_as_xyz
  1  'x, y, z'
loop_
 _atom_site_type_symbol
 _atom_site_label
 _atom_site_symmetry_multiplicity
 _atom_site_fract_x
 _atom_site_fract_y
 _atom_site_fract_z
 _atom_site_occupancy
  Pr  Pr0  1  0.27104308  0.49948939  0.87720395  1
  Pr  Pr1  1  0.72828183  0.51736693  0.12673947  1
  Pr  Pr2  1  0.76399160  0.02461182  0.87090876  1
  Pr  Pr3  1  0.23075446  0.95354593  0.12886190  1
  Mn  Mn4  1  0.29960796  0.44752172  0.61225161  1
  Mn  Mn5  1  0.68785529  0.45789971  0.36186090  1
  Mn  Mn6  1  0.00088467  0.96869101  0.00882995  1
  Mn  Mn7  1  0.79313936  0.01086023  0.61817212  1
  Mn  Mn8  1  0.20272644  0.01944944  0.37530204  1
  Mn  Mn9  1  0.48610062  0.46375751  0.98347563  1
  Sb  Sb10  1  0.89336965  0.96247664  0.44808332  1
  Sb  Sb11  1  0.11489590  0.98378368  0.54986696  1
  Sb  Sb12  1  0.04160155  0.52503661  0.83400869  1
  Sb  Sb13  1  0.96896315  0.48805464  0.19256931  1
  Sb  Sb14  1  0.40004598  0.49877271  0.45039820  1
  Sb  Sb15  1  0.61216874  0.48496670  0.54632803  1
  Sb  Sb16  1  0.52695746  0.95993727  0.79677877  1
  Sb  Sb17  1  0.46652186  0.02778595  0.18180557  1
  S  S18  1  0.92902762  0.95905491  0.79954292  1
  S  S19  1  0.06560302  0.99500060  0.19334628  1
  S  S20  1  0.41662536  0.98760392  0.98208578  1
  S  S21  1  0.58102272  0.01878459  0.99760864  1
  S  S22  1  0.16603706  0.99332523  0.90069542  1
  S  S23  1  0.82891282  0.97408354  0.10757521  1
  S  S24  1  0.09210552  0.48249045  0.64238751  1
  S  S25  1  0.90953620  0.50287276  0.35172448  1
  S  S26  1  0.73393444  0.00189219  0.30057269  1
  S  S27  1  0.26398558  0.00811663  0.69868776  1
  S  S28  1  0.17194274  0.51635517  0.44491726  1
  S  S29  1  0.81238112  0.52985963  0.53501371  1
  S  S30  1  0.42918122  0.47932228  0.79596117  1
  S  S31  1  0.55759187  0.50020665  0.17725899  1
  S  S32  1  0.91901010  0.52338029  0.98596983  1
  S  S33  1  0.08610525  0.46961385  0.02708539  1
  S  S34  1  0.66170509  0.55989284  0.88415121  1
  S  S35  1  0.32698097  0.47325934  0.10224233  1
  S  S36  1  0.58539579  0.98137358  0.63524452  1
  S  S37  1  0.39962429  0.99460257  0.34276221  1
  S  S38  1  0.24446524  0.49716364  0.31297133  1
  S  S39  1  0.76282510  0.50221530  0.69113845  1
  S  S40  1  0.66261740  0.01584762  0.43899977  1
  S  S41  1  0.32853214  0.95886974  0.55060669  1
