# generated using pymatgen
data_Pr2Mn3(SbS3)4
_symmetry_space_group_name_H-M   'P 1'
_cell_length_a   20.02960800
_cell_length_b   3.90410600
_cell_length_c   14.95364829
_cell_angle_alpha   90.00000000
_cell_angle_beta   126.33350609
_cell_angle_gamma   90.00000000
_symmetry_Int_Tables_number   1
_chemical_formula_structural   Pr2Mn3(SbS3)4
_chemical_formula_sum   'Pr4 Mn6 Sb8 S24'
_cell_volume   942.00006694
_cell_formula_units_Z   2
loop_
 _symmetry_equiv_pos_site_id
 _symmetry_equiv_pos_as_xyz
  1  'x, y, z'
loop_
 _atom_site_type_symbol
 _atom_site_label
 _atom_site_symmetry_multiplicity
 _atom_site_fract_x
 _atom_site_fract_y
 _atom_site_fract_z
 _atom_site_occupancy
  Pr  Pr0  1  0.27116222  0.49900971  0.87733034  1
  Pr  Pr1  1  0.72819636  0.51725322  0.12666152  1
  Pr  Pr2  1  0.76399946  0.02419210  0.87085493  1
  Pr  Pr3  1  0.23089795  0.95387195  0.12902968  1
  Mn  Mn4  1  0.29982612  0.44753442  0.61241611  1
  Mn  Mn5  1  0.68789181  0.45795126  0.36172623  1
  Mn  Mn6  1  0.00104046  0.96873720  0.00892277  1
  Mn  Mn7  1  0.79311357  0.01073199  0.61812374  1
  Mn  Mn8  1  0.20285158  0.02007850  0.37559439  1
  Mn  Mn9  1  0.48627713  0.46351457  0.98367933  1
  Sb  Sb10  1  0.89333655  0.96226926  0.44799492  1
  Sb  Sb11  1  0.11477252  0.98385555  0.54970789  1
  Sb  Sb12  1  0.04169549  0.52573504  0.83410888  1
  Sb  Sb13  1  0.96897646  0.48827085  0.19267692  1
  Sb  Sb14  1  0.40011567  0.49915221  0.45027789  1
  Sb  Sb15  1  0.61217548  0.48511195  0.54630748  1
  Sb  Sb16  1  0.52671469  0.95920851  0.79632236  1
  Sb  Sb17  1  0.46659447  0.02738170  0.18184202  1
  S  S18  1  0.92926634  0.95944128  0.79989249  1
  S  S19  1  0.06542780  0.99503514  0.19295945  1
  S  S20  1  0.41655746  0.98771516  0.98207878  1
  S  S21  1  0.58096452  0.01939774  0.99749103  1
  S  S22  1  0.16577472  0.99269762  0.90045656  1
  S  S23  1  0.82895353  0.97393060  0.10763298  1
  S  S24  1  0.09209278  0.48287695  0.64244539  1
  S  S25  1  0.90903271  0.50307488  0.35143813  1
  S  S26  1  0.73398715  0.00225509  0.30054087  1
  S  S27  1  0.26401100  0.00752435  0.69884807  1
  S  S28  1  0.17186734  0.51543319  0.44478371  1
  S  S29  1  0.81260197  0.52859502  0.53496982  1
  S  S30  1  0.42938966  0.47833627  0.79627305  1
  S  S31  1  0.55771466  0.50058704  0.17743051  1
  S  S32  1  0.91934526  0.52236077  0.98626408  1
  S  S33  1  0.08603629  0.47048690  0.02701688  1
  S  S34  1  0.66161515  0.55969098  0.88415746  1
  S  S35  1  0.32716502  0.47289471  0.10242366  1
  S  S36  1  0.58538113  0.98238677  0.63509454  1
  S  S37  1  0.39966791  0.99431026  0.34287779  1
  S  S38  1  0.24474623  0.49746733  0.31330979  1
  S  S39  1  0.76301154  0.50232227  0.69130445  1
  S  S40  1  0.66276504  0.01674634  0.43902834  1
  S  S41  1  0.32859953  0.95850680  0.55065059  1
