# generated using pymatgen
data_Pr2Mn3(SbS3)4
_symmetry_space_group_name_H-M   'P 1'
_cell_length_a   20.02960800
_cell_length_b   3.90410600
_cell_length_c   14.95364829
_cell_angle_alpha   90.00000000
_cell_angle_beta   126.33350609
_cell_angle_gamma   90.00000000
_symmetry_Int_Tables_number   1
_chemical_formula_structural   Pr2Mn3(SbS3)4
_chemical_formula_sum   'Pr4 Mn6 Sb8 S24'
_cell_volume   942.00006694
_cell_formula_units_Z   2
loop_
 _symmetry_equiv_pos_site_id
 _symmetry_equiv_pos_as_xyz
  1  'x, y, z'
loop_
 _atom_site_type_symbol
 _atom_site_label
 _atom_site_symmetry_multiplicity
 _atom_site_fract_x
 _atom_site_fract_y
 _atom_site_fract_z
 _atom_site_occupancy
  Pr  Pr0  1  0.27128753  0.49830210  0.87746607  1
  Pr  Pr1  1  0.72818875  0.51685036  0.12661871  1
  Pr  Pr2  1  0.76405536  0.02383621  0.87081276  1
  Pr  Pr3  1  0.23101375  0.95415998  0.12917702  1
  Mn  Mn4  1  0.30009486  0.44723432  0.61254061  1
  Mn  Mn5  1  0.68794948  0.45807871  0.36157607  1
  Mn  Mn6  1  0.00120568  0.96886955  0.00914070  1
  Mn  Mn7  1  0.79300086  0.01099157  0.61800267  1
  Mn  Mn8  1  0.20295467  0.02085784  0.37580476  1
  Mn  Mn9  1  0.48653031  0.46336111  0.98400686  1
  Sb  Sb10  1  0.89324198  0.96196605  0.44794821  1
  Sb  Sb11  1  0.11458510  0.98389540  0.54952174  1
  Sb  Sb12  1  0.04178427  0.52659069  0.83418909  1
  Sb  Sb13  1  0.96900347  0.48828551  0.19274963  1
  Sb  Sb14  1  0.40013153  0.49934107  0.45011109  1
  Sb  Sb15  1  0.61215601  0.48512346  0.54630183  1
  Sb  Sb16  1  0.52650540  0.95863952  0.79595337  1
  Sb  Sb17  1  0.46665391  0.02700397  0.18184653  1
  S  S18  1  0.92934432  0.96025476  0.79999065  1
  S  S19  1  0.06526516  0.99480844  0.19262618  1
  S  S20  1  0.41654072  0.98784565  0.98217064  1
  S  S21  1  0.58098452  0.02019638  0.99744687  1
  S  S22  1  0.16547312  0.99216271  0.90025777  1
  S  S23  1  0.82902961  0.97384929  0.10762361  1
  S  S24  1  0.09219197  0.48348230  0.64258913  1
  S  S25  1  0.90858011  0.50348104  0.35117608  1
  S  S26  1  0.73406924  0.00233679  0.30066073  1
  S  S27  1  0.26405807  0.00758690  0.69898044  1
  S  S28  1  0.17184817  0.51480356  0.44457710  1
  S  S29  1  0.81284689  0.52715830  0.53500482  1
  S  S30  1  0.42948979  0.47730165  0.79649371  1
  S  S31  1  0.55790056  0.50060282  0.17774404  1
  S  S32  1  0.91964364  0.52156066  0.98660518  1
  S  S33  1  0.08601800  0.47147316  0.02699121  1
  S  S34  1  0.66152171  0.55950592  0.88408798  1
  S  S35  1  0.32731342  0.47327509  0.10265598  1
  S  S36  1  0.58525511  0.98364555  0.63489106  1
  S  S37  1  0.39965058  0.99364373  0.34290367  1
  S  S38  1  0.24500572  0.49806864  0.31363178  1
  S  S39  1  0.76314922  0.50252422  0.69149878  1
  S  S40  1  0.66292366  0.01765831  0.43912808  1
  S  S41  1  0.32868423  0.95821401  0.55073213  1
