# generated using pymatgen
data_Pr2Mn3(SbS3)4
_symmetry_space_group_name_H-M   'P 1'
_cell_length_a   20.02960800
_cell_length_b   3.90410600
_cell_length_c   14.95364829
_cell_angle_alpha   90.00000000
_cell_angle_beta   126.33350609
_cell_angle_gamma   90.00000000
_symmetry_Int_Tables_number   1
_chemical_formula_structural   Pr2Mn3(SbS3)4
_chemical_formula_sum   'Pr4 Mn6 Sb8 S24'
_cell_volume   942.00006694
_cell_formula_units_Z   2
loop_
 _symmetry_equiv_pos_site_id
 _symmetry_equiv_pos_as_xyz
  1  'x, y, z'
loop_
 _atom_site_type_symbol
 _atom_site_label
 _atom_site_symmetry_multiplicity
 _atom_site_fract_x
 _atom_site_fract_y
 _atom_site_fract_z
 _atom_site_occupancy
  Pr  Pr0  1  0.27146992  0.49741636  0.87765896  1
  Pr  Pr1  1  0.72816616  0.51618399  0.12653613  1
  Pr  Pr2  1  0.76417948  0.02335925  0.87081926  1
  Pr  Pr3  1  0.23110605  0.95445932  0.12931367  1
  Mn  Mn4  1  0.30034149  0.44687585  0.61261949  1
  Mn  Mn5  1  0.68802078  0.45870005  0.36138397  1
  Mn  Mn6  1  0.00147302  0.96874058  0.00935970  1
  Mn  Mn7  1  0.79289332  0.01145180  0.61803162  1
  Mn  Mn8  1  0.20311271  0.02127266  0.37608946  1
  Mn  Mn9  1  0.48680963  0.46318650  0.98443853  1
  Sb  Sb10  1  0.89319876  0.96173238  0.44794377  1
  Sb  Sb11  1  0.11442612  0.98379350  0.54932569  1
  Sb  Sb12  1  0.04184685  0.52725299  0.83427994  1
  Sb  Sb13  1  0.96904165  0.48815742  0.19287460  1
  Sb  Sb14  1  0.40019739  0.49941293  0.45002891  1
  Sb  Sb15  1  0.61214209  0.48497675  0.54638054  1
  Sb  Sb16  1  0.52633273  0.95822554  0.79561984  1
  Sb  Sb17  1  0.46674944  0.02676816  0.18187896  1
  S  S18  1  0.92942551  0.96117499  0.80006800  1
  S  S19  1  0.06507884  0.99481169  0.19233326  1
  S  S20  1  0.41665777  0.98748903  0.98219798  1
  S  S21  1  0.58089724  0.02114994  0.99751263  1
  S  S22  1  0.16525249  0.99184050  0.90003477  1
  S  S23  1  0.82909740  0.97353846  0.10767415  1
  S  S24  1  0.09247323  0.48354972  0.64272485  1
  S  S25  1  0.90830246  0.50421205  0.35105549  1
  S  S26  1  0.73408733  0.00231375  0.30068662  1
  S  S27  1  0.26401275  0.00770263  0.69897568  1
  S  S28  1  0.17182225  0.51426105  0.44433667  1
  S  S29  1  0.81296545  0.52586320  0.53488953  1
  S  S30  1  0.42952825  0.47626504  0.79651055  1
  S  S31  1  0.55813462  0.50102433  0.17801844  1
  S  S32  1  0.91988255  0.52084459  0.98702044  1
  S  S33  1  0.08589814  0.47186642  0.02687567  1
  S  S34  1  0.66139567  0.55908474  0.88406227  1
  S  S35  1  0.32746065  0.47385634  0.10296507  1
  S  S36  1  0.58515411  0.98439780  0.63475089  1
  S  S37  1  0.39961311  0.99277662  0.34297330  1
  S  S38  1  0.24522221  0.49904246  0.31397254  1
  S  S39  1  0.76328686  0.50277510  0.69159730  1
  S  S40  1  0.66303274  0.01814998  0.43915514  1
  S  S41  1  0.32882957  0.95804116  0.55069601  1
