# generated using pymatgen
data_Pr2Mn3(SbS3)4
_symmetry_space_group_name_H-M   'P 1'
_cell_length_a   20.02960800
_cell_length_b   3.90410600
_cell_length_c   14.95364829
_cell_angle_alpha   90.00000000
_cell_angle_beta   126.33350609
_cell_angle_gamma   90.00000000
_symmetry_Int_Tables_number   1
_chemical_formula_structural   Pr2Mn3(SbS3)4
_chemical_formula_sum   'Pr4 Mn6 Sb8 S24'
_cell_volume   942.00006694
_cell_formula_units_Z   2
loop_
 _symmetry_equiv_pos_site_id
 _symmetry_equiv_pos_as_xyz
  1  'x, y, z'
loop_
 _atom_site_type_symbol
 _atom_site_label
 _atom_site_symmetry_multiplicity
 _atom_site_fract_x
 _atom_site_fract_y
 _atom_site_fract_z
 _atom_site_occupancy
  Pr  Pr0  1  0.27167423  0.49651349  0.87789428  1
  Pr  Pr1  1  0.72813451  0.51555116  0.12641823  1
  Pr  Pr2  1  0.76423058  0.02304224  0.87083764  1
  Pr  Pr3  1  0.23118503  0.95493391  0.12945397  1
  Mn  Mn4  1  0.30058533  0.44603275  0.61262880  1
  Mn  Mn5  1  0.68811946  0.45912637  0.36129897  1
  Mn  Mn6  1  0.00173548  0.96837825  0.00953496  1
  Mn  Mn7  1  0.79276348  0.01154593  0.61804733  1
  Mn  Mn8  1  0.20319557  0.02171997  0.37627136  1
  Mn  Mn9  1  0.48707932  0.46298839  0.98484162  1
  Sb  Sb10  1  0.89313641  0.96133958  0.44791686  1
  Sb  Sb11  1  0.11423562  0.98375752  0.54912267  1
  Sb  Sb12  1  0.04196973  0.52807543  0.83439704  1
  Sb  Sb13  1  0.96904060  0.48805276  0.19288936  1
  Sb  Sb14  1  0.40030612  0.49956396  0.45000217  1
  Sb  Sb15  1  0.61210745  0.48497953  0.54638010  1
  Sb  Sb16  1  0.52611475  0.95778338  0.79524086  1
  Sb  Sb17  1  0.46677417  0.02660631  0.18190269  1
  S  S18  1  0.92940890  0.96201340  0.80007230  1
  S  S19  1  0.06498210  0.99507255  0.19205266  1
  S  S20  1  0.41680400  0.98671749  0.98233563  1
  S  S21  1  0.58084416  0.02216141  0.99766610  1
  S  S22  1  0.16495595  0.99245265  0.89972263  1
  S  S23  1  0.82908359  0.97347312  0.10761050  1
  S  S24  1  0.09276251  0.48393014  0.64289291  1
  S  S25  1  0.90800829  0.50462080  0.35080958  1
  S  S26  1  0.73410013  0.00230551  0.30062600  1
  S  S27  1  0.26397676  0.00839868  0.69899445  1
  S  S28  1  0.17188117  0.51401009  0.44440245  1
  S  S29  1  0.81312100  0.52458575  0.53483315  1
  S  S30  1  0.42954169  0.47512381  0.79650739  1
  S  S31  1  0.55836064  0.50171225  0.17830499  1
  S  S32  1  0.92006979  0.52034568  0.98735842  1
  S  S33  1  0.08585492  0.47198704  0.02678311  1
  S  S34  1  0.66123649  0.55866753  0.88396966  1
  S  S35  1  0.32765388  0.47407567  0.10327447  1
  S  S36  1  0.58500162  0.98528069  0.63442490  1
  S  S37  1  0.39957865  0.99178857  0.34288445  1
  S  S38  1  0.24541212  0.50021084  0.31423075  1
  S  S39  1  0.76337619  0.50293516  0.69155970  1
  S  S40  1  0.66322912  0.01811001  0.43925572  1
  S  S41  1  0.32893187  0.95796607  0.55052439  1
