# generated using pymatgen
data_Pr2Mn3(SbS3)4
_symmetry_space_group_name_H-M   'P 1'
_cell_length_a   20.02960800
_cell_length_b   3.90410600
_cell_length_c   14.95364829
_cell_angle_alpha   90.00000000
_cell_angle_beta   126.33350609
_cell_angle_gamma   90.00000000
_symmetry_Int_Tables_number   1
_chemical_formula_structural   Pr2Mn3(SbS3)4
_chemical_formula_sum   'Pr4 Mn6 Sb8 S24'
_cell_volume   942.00006694
_cell_formula_units_Z   2
loop_
 _symmetry_equiv_pos_site_id
 _symmetry_equiv_pos_as_xyz
  1  'x, y, z'
loop_
 _atom_site_type_symbol
 _atom_site_label
 _atom_site_symmetry_multiplicity
 _atom_site_fract_x
 _atom_site_fract_y
 _atom_site_fract_z
 _atom_site_occupancy
  Pr  Pr0  1  0.27190186  0.49591692  0.87817268  1
  Pr  Pr1  1  0.72803468  0.51516772  0.12623673  1
  Pr  Pr2  1  0.76426731  0.02277841  0.87080416  1
  Pr  Pr3  1  0.23124678  0.95533730  0.12964990  1
  Mn  Mn4  1  0.30089169  0.44553035  0.61276335  1
  Mn  Mn5  1  0.68827671  0.45921808  0.36123581  1
  Mn  Mn6  1  0.00203992  0.96777066  0.00980319  1
  Mn  Mn7  1  0.79266310  0.01135857  0.61813045  1
  Mn  Mn8  1  0.20325639  0.02243499  0.37652095  1
  Mn  Mn9  1  0.48743393  0.46254794  0.98518946  1
  Sb  Sb10  1  0.89312917  0.96093290  0.44791647  1
  Sb  Sb11  1  0.11405682  0.98389903  0.54894483  1
  Sb  Sb12  1  0.04204708  0.52871488  0.83442283  1
  Sb  Sb13  1  0.96900721  0.48802901  0.19285209  1
  Sb  Sb14  1  0.40048268  0.49967024  0.45006431  1
  Sb  Sb15  1  0.61198767  0.48495004  0.54633179  1
  Sb  Sb16  1  0.52590764  0.95737371  0.79496457  1
  Sb  Sb17  1  0.46678700  0.02639315  0.18187198  1
  S  S18  1  0.92945165  0.96268003  0.80010008  1
  S  S19  1  0.06486656  0.99581042  0.19188348  1
  S  S20  1  0.41697836  0.98580596  0.98243235  1
  S  S21  1  0.58072949  0.02274704  0.99779644  1
  S  S22  1  0.16465487  0.99324542  0.89925702  1
  S  S23  1  0.82899015  0.97335340  0.10750232  1
  S  S24  1  0.09302136  0.48438958  0.64303725  1
  S  S25  1  0.90782578  0.50477349  0.35060232  1
  S  S26  1  0.73406492  0.00287827  0.30046139  1
  S  S27  1  0.26405220  0.00870500  0.69909376  1
  S  S28  1  0.17182249  0.51354765  0.44444848  1
  S  S29  1  0.81320197  0.52291441  0.53467320  1
  S  S30  1  0.42974676  0.47433327  0.79670897  1
  S  S31  1  0.55859575  0.50272295  0.17863081  1
  S  S32  1  0.92022262  0.52002289  0.98755760  1
  S  S33  1  0.08577500  0.47195328  0.02684615  1
  S  S34  1  0.66114042  0.55755292  0.88401554  1
  S  S35  1  0.32781821  0.47464626  0.10355040  1
  S  S36  1  0.58491721  0.98585649  0.63417927  1
  S  S37  1  0.39972099  0.99064968  0.34290545  1
  S  S38  1  0.24565916  0.50101394  0.31447685  1
  S  S39  1  0.76329917  0.50305240  0.69143975  1
  S  S40  1  0.66323061  0.01761672  0.43913560  1
  S  S41  1  0.32897800  0.95788014  0.55028109  1
