# generated using pymatgen
data_Pr2Mn3(SbS3)4
_symmetry_space_group_name_H-M   'P 1'
_cell_length_a   20.02960800
_cell_length_b   3.90410600
_cell_length_c   14.95364829
_cell_angle_alpha   90.00000000
_cell_angle_beta   126.33350609
_cell_angle_gamma   90.00000000
_symmetry_Int_Tables_number   1
_chemical_formula_structural   Pr2Mn3(SbS3)4
_chemical_formula_sum   'Pr4 Mn6 Sb8 S24'
_cell_volume   942.00006694
_cell_formula_units_Z   2
loop_
 _symmetry_equiv_pos_site_id
 _symmetry_equiv_pos_as_xyz
  1  'x, y, z'
loop_
 _atom_site_type_symbol
 _atom_site_label
 _atom_site_symmetry_multiplicity
 _atom_site_fract_x
 _atom_site_fract_y
 _atom_site_fract_z
 _atom_site_occupancy
  Pr  Pr0  1  0.27208888  0.49541090  0.87834199  1
  Pr  Pr1  1  0.72798427  0.51484250  0.12614701  1
  Pr  Pr2  1  0.76434604  0.02269242  0.87080477  1
  Pr  Pr3  1  0.23132066  0.95544506  0.12990721  1
  Mn  Mn4  1  0.30114762  0.44547406  0.61281970  1
  Mn  Mn5  1  0.68844446  0.45923104  0.36117716  1
  Mn  Mn6  1  0.00236227  0.96714155  0.01004246  1
  Mn  Mn7  1  0.79260479  0.01137555  0.61809941  1
  Mn  Mn8  1  0.20333665  0.02300529  0.37689928  1
  Mn  Mn9  1  0.48770790  0.46222119  0.98549596  1
  Sb  Sb10  1  0.89315315  0.96062402  0.44788656  1
  Sb  Sb11  1  0.11388574  0.98412164  0.54876234  1
  Sb  Sb12  1  0.04211119  0.52905442  0.83447809  1
  Sb  Sb13  1  0.96894481  0.48787571  0.19278074  1
  Sb  Sb14  1  0.40059023  0.49977493  0.45002795  1
  Sb  Sb15  1  0.61183205  0.48476299  0.54625944  1
  Sb  Sb16  1  0.52568643  0.95703638  0.79473312  1
  Sb  Sb17  1  0.46681039  0.02586309  0.18173718  1
  S  S18  1  0.92934365  0.96393365  0.80001930  1
  S  S19  1  0.06457346  0.99619048  0.19156375  1
  S  S20  1  0.41708283  0.98545072  0.98237683  1
  S  S21  1  0.58066494  0.02302339  0.99801602  1
  S  S22  1  0.16457537  0.99370039  0.89903136  1
  S  S23  1  0.82888859  0.97372468  0.10736362  1
  S  S24  1  0.09327476  0.48463501  0.64316216  1
  S  S25  1  0.90769633  0.50461659  0.35053317  1
  S  S26  1  0.73407644  0.00346099  0.30035824  1
  S  S27  1  0.26427909  0.00879898  0.69929293  1
  S  S28  1  0.17166239  0.51338663  0.44440271  1
  S  S29  1  0.81332941  0.52175464  0.53452522  1
  S  S30  1  0.42990576  0.47391065  0.79687300  1
  S  S31  1  0.55884326  0.50327874  0.17893868  1
  S  S32  1  0.92027376  0.51960422  0.98759401  1
  S  S33  1  0.08568627  0.47204140  0.02674186  1
  S  S34  1  0.66119878  0.55635486  0.88407281  1
  S  S35  1  0.32800927  0.47507412  0.10380086  1
  S  S36  1  0.58498762  0.98693058  0.63406150  1
  S  S37  1  0.39999774  0.99047903  0.34299086  1
  S  S38  1  0.24587019  0.50166515  0.31469099  1
  S  S39  1  0.76318729  0.50323622  0.69131118  1
  S  S40  1  0.66332445  0.01704041  0.43907814  1
  S  S41  1  0.32904987  0.95758220  0.54999902  1
