# generated using pymatgen
data_Pr2Mn3(SbS3)4
_symmetry_space_group_name_H-M   'P 1'
_cell_length_a   20.02960800
_cell_length_b   3.90410600
_cell_length_c   14.95364829
_cell_angle_alpha   90.00000000
_cell_angle_beta   126.33350609
_cell_angle_gamma   90.00000000
_symmetry_Int_Tables_number   1
_chemical_formula_structural   Pr2Mn3(SbS3)4
_chemical_formula_sum   'Pr4 Mn6 Sb8 S24'
_cell_volume   942.00006694
_cell_formula_units_Z   2
loop_
 _symmetry_equiv_pos_site_id
 _symmetry_equiv_pos_as_xyz
  1  'x, y, z'
loop_
 _atom_site_type_symbol
 _atom_site_label
 _atom_site_symmetry_multiplicity
 _atom_site_fract_x
 _atom_site_fract_y
 _atom_site_fract_z
 _atom_site_occupancy
  Pr  Pr0  1  0.27228268  0.49518500  0.87849670  1
  Pr  Pr1  1  0.72793969  0.51413345  0.12605234  1
  Pr  Pr2  1  0.76440567  0.02253470  0.87081275  1
  Pr  Pr3  1  0.23133302  0.95539724  0.13012973  1
  Mn  Mn4  1  0.30145157  0.44538552  0.61290956  1
  Mn  Mn5  1  0.68857597  0.45950575  0.36094990  1
  Mn  Mn6  1  0.00266840  0.96687345  0.01023405  1
  Mn  Mn7  1  0.79257274  0.01144542  0.61806803  1
  Mn  Mn8  1  0.20338283  0.02387210  0.37725505  1
  Mn  Mn9  1  0.48791232  0.46197407  0.98576392  1
  Sb  Sb10  1  0.89316773  0.96018296  0.44787422  1
  Sb  Sb11  1  0.11380826  0.98423378  0.54867435  1
  Sb  Sb12  1  0.04214978  0.52936170  0.83446810  1
  Sb  Sb13  1  0.96888805  0.48756424  0.19266689  1
  Sb  Sb14  1  0.40066323  0.49981738  0.44998896  1
  Sb  Sb15  1  0.61164053  0.48465824  0.54610470  1
  Sb  Sb16  1  0.52546478  0.95687086  0.79454112  1
  Sb  Sb17  1  0.46681318  0.02546124  0.18158573  1
  S  S18  1  0.92925916  0.96550640  0.80002561  1
  S  S19  1  0.06436272  0.99601377  0.19125856  1
  S  S20  1  0.41717634  0.98541379  0.98227352  1
  S  S21  1  0.58059752  0.02315716  0.99820666  1
  S  S22  1  0.16443743  0.99379188  0.89871307  1
  S  S23  1  0.82895005  0.97449134  0.10733915  1
  S  S24  1  0.09332099  0.48452813  0.64307733  1
  S  S25  1  0.90754428  0.50414015  0.35040318  1
  S  S26  1  0.73413230  0.00376004  0.30013945  1
  S  S27  1  0.26455208  0.00841927  0.69958210  1
  S  S28  1  0.17155612  0.51319278  0.44437763  1
  S  S29  1  0.81343604  0.52071527  0.53438415  1
  S  S30  1  0.43004359  0.47385904  0.79698166  1
  S  S31  1  0.55897405  0.50390076  0.17910782  1
  S  S32  1  0.92020204  0.51909715  0.98751261  1
  S  S33  1  0.08563202  0.47155279  0.02658913  1
  S  S34  1  0.66116558  0.55546823  0.88405777  1
  S  S35  1  0.32833368  0.47575681  0.10413232  1
  S  S36  1  0.58503967  0.98773918  0.63387713  1
  S  S37  1  0.40023273  0.99041162  0.34298933  1
  S  S38  1  0.24596183  0.50257380  0.31472187  1
  S  S39  1  0.76303349  0.50335352  0.69103234  1
  S  S40  1  0.66343364  0.01680279  0.43895992  1
  S  S41  1  0.32920090  0.95745206  0.54986569  1
