# generated using pymatgen
data_Pr2Mn3(SbS3)4
_symmetry_space_group_name_H-M   'P 1'
_cell_length_a   20.02960800
_cell_length_b   3.90410600
_cell_length_c   14.95364829
_cell_angle_alpha   90.00000000
_cell_angle_beta   126.33350609
_cell_angle_gamma   90.00000000
_symmetry_Int_Tables_number   1
_chemical_formula_structural   Pr2Mn3(SbS3)4
_chemical_formula_sum   'Pr4 Mn6 Sb8 S24'
_cell_volume   942.00006694
_cell_formula_units_Z   2
loop_
 _symmetry_equiv_pos_site_id
 _symmetry_equiv_pos_as_xyz
  1  'x, y, z'
loop_
 _atom_site_type_symbol
 _atom_site_label
 _atom_site_symmetry_multiplicity
 _atom_site_fract_x
 _atom_site_fract_y
 _atom_site_fract_z
 _atom_site_occupancy
  Pr  Pr0  1  0.26169160  0.49325762  0.86598979  1
  Pr  Pr1  1  0.73986531  0.50432080  0.13766672  1
  Pr  Pr2  1  0.76113479  0.00820104  0.86205969  1
  Pr  Pr3  1  0.23915217  0.99075713  0.13888200  1
  Mn  Mn4  1  0.29880719  0.50833534  0.61902838  1
  Mn  Mn5  1  0.69789501  0.50258166  0.38097454  1
  Mn  Mn6  1  0.00175107  0.00009485  0.99917752  1
  Mn  Mn7  1  0.80278327  0.99403927  0.61631327  1
  Mn  Mn8  1  0.19886026  0.98282268  0.37861693  1
  Mn  Mn9  1  0.50192791  0.48548520  0.99858486  1
  Sb  Sb10  1  0.89454667  0.01027640  0.45415911  1
  Sb  Sb11  1  0.10798900  0.98560274  0.55114677  1
  Sb  Sb12  1  0.03808757  0.48730100  0.81537684  1
  Sb  Sb13  1  0.96180682  0.50795494  0.18793574  1
  Sb  Sb14  1  0.39488741  0.48746693  0.45625416  1
  Sb  Sb15  1  0.60698041  0.50201352  0.54926578  1
  Sb  Sb16  1  0.53697332  0.00214447  0.81443093  1
  Sb  Sb17  1  0.46230464  0.00073246  0.18210230  1
  S  S18  1  0.93807939  0.98401779  0.79881717  1
  S  S19  1  0.05898120  0.00016523  0.19084057  1
  S  S20  1  0.40439961  0.98319953  0.97889595  1
  S  S21  1  0.59462890  0.99598923  0.01580620  1
  S  S22  1  0.17137039  0.98560867  0.90324249  1
  S  S23  1  0.82776134  0.01315815  0.10523519  1
  S  S24  1  0.08571166  0.49103524  0.64601750  1
  S  S25  1  0.91222386  0.48307935  0.35670825  1
  S  S26  1  0.74353321  0.95873140  0.29640888  1
  S  S27  1  0.25555133  0.00510537  0.70032223  1
  S  S28  1  0.16057767  0.49266032  0.44614053  1
  S  S29  1  0.83076330  0.49252008  0.54757652  1
  S  S30  1  0.43570745  0.50948271  0.79840884  1
  S  S31  1  0.56026904  0.49746746  0.19471279  1
  S  S32  1  0.90145542  0.47759538  0.97645478  1
  S  S33  1  0.09114046  0.48242038  0.01759039  1
  S  S34  1  0.66554373  0.50300452  0.89601887  1
  S  S35  1  0.33248069  0.51138404  0.10241681  1
  S  S36  1  0.59183160  0.01573280  0.64961282  1
  S  S37  1  0.41302902  0.98433309  0.35776440  1
  S  S38  1  0.24290228  0.47360467  0.29681820  1
  S  S39  1  0.76433483  0.50611476  0.70301724  1
  S  S40  1  0.66433458  0.00629209  0.46126544  1
  S  S41  1  0.33457100  0.98707400  0.54173808  1
