# generated using pymatgen
data_Pr2Mn3(SbS3)4
_symmetry_space_group_name_H-M   'P 1'
_cell_length_a   20.02960800
_cell_length_b   3.90410600
_cell_length_c   14.95364829
_cell_angle_alpha   90.00000000
_cell_angle_beta   126.33350609
_cell_angle_gamma   90.00000000
_symmetry_Int_Tables_number   1
_chemical_formula_structural   Pr2Mn3(SbS3)4
_chemical_formula_sum   'Pr4 Mn6 Sb8 S24'
_cell_volume   942.00006694
_cell_formula_units_Z   2
loop_
 _symmetry_equiv_pos_site_id
 _symmetry_equiv_pos_as_xyz
  1  'x, y, z'
loop_
 _atom_site_type_symbol
 _atom_site_label
 _atom_site_symmetry_multiplicity
 _atom_site_fract_x
 _atom_site_fract_y
 _atom_site_fract_z
 _atom_site_occupancy
  Pr  Pr0  1  0.27247592  0.49536654  0.87869474  1
  Pr  Pr1  1  0.72789260  0.51348105  0.12592962  1
  Pr  Pr2  1  0.76446976  0.02267580  0.87077599  1
  Pr  Pr3  1  0.23135190  0.95546718  0.13037638  1
  Mn  Mn4  1  0.30178075  0.44501915  0.61312077  1
  Mn  Mn5  1  0.68867454  0.45974656  0.36077197  1
  Mn  Mn6  1  0.00303231  0.96651223  0.01051075  1
  Mn  Mn7  1  0.79261648  0.01187121  0.61814006  1
  Mn  Mn8  1  0.20344726  0.02476451  0.37765714  1
  Mn  Mn9  1  0.48798405  0.46152347  0.98589961  1
  Sb  Sb10  1  0.89319836  0.95988363  0.44784226  1
  Sb  Sb11  1  0.11373379  0.98431671  0.54853640  1
  Sb  Sb12  1  0.04215398  0.52962745  0.83439895  1
  Sb  Sb13  1  0.96887390  0.48730403  0.19261614  1
  Sb  Sb14  1  0.40073670  0.49992411  0.44987855  1
  Sb  Sb15  1  0.61142826  0.48437815  0.54595642  1
  Sb  Sb16  1  0.52528727  0.95700214  0.79440237  1
  Sb  Sb17  1  0.46681988  0.02522664  0.18147020  1
  S  S18  1  0.92929357  0.96714586  0.80012850  1
  S  S19  1  0.06412133  0.99587397  0.19105710  1
  S  S20  1  0.41718029  0.98542621  0.98193238  1
  S  S21  1  0.58049639  0.02337477  0.99839415  1
  S  S22  1  0.16421959  0.99420440  0.89832156  1
  S  S23  1  0.82905379  0.97509212  0.10738968  1
  S  S24  1  0.09352420  0.48428929  0.64307460  1
  S  S25  1  0.90748166  0.50380671  0.35029206  1
  S  S26  1  0.73425114  0.00378656  0.29994102  1
  S  S27  1  0.26480032  0.00784713  0.69976044  1
  S  S28  1  0.17152181  0.51314208  0.44429428  1
  S  S29  1  0.81340479  0.51956892  0.53419116  1
  S  S30  1  0.43020435  0.47369338  0.79724263  1
  S  S31  1  0.55912314  0.50382388  0.17953889  1
  S  S32  1  0.92007621  0.51859250  0.98750085  1
  S  S33  1  0.08567254  0.47110631  0.02663551  1
  S  S34  1  0.66110459  0.55422755  0.88393252  1
  S  S35  1  0.32852182  0.47672695  0.10436223  1
  S  S36  1  0.58512799  0.98834172  0.63362386  1
  S  S37  1  0.40049858  0.99081736  0.34298283  1
  S  S38  1  0.24599528  0.50345499  0.31461742  1
  S  S39  1  0.76287610  0.50267807  0.69070200  1
  S  S40  1  0.66355954  0.01622646  0.43879695  1
  S  S41  1  0.32931873  0.95729578  0.54976045  1
