# generated using pymatgen
data_Pr2Mn3(SbS3)4
_symmetry_space_group_name_H-M   'P 1'
_cell_length_a   20.02960800
_cell_length_b   3.90410600
_cell_length_c   14.95364829
_cell_angle_alpha   90.00000000
_cell_angle_beta   126.33350609
_cell_angle_gamma   90.00000000
_symmetry_Int_Tables_number   1
_chemical_formula_structural   Pr2Mn3(SbS3)4
_chemical_formula_sum   'Pr4 Mn6 Sb8 S24'
_cell_volume   942.00006694
_cell_formula_units_Z   2
loop_
 _symmetry_equiv_pos_site_id
 _symmetry_equiv_pos_as_xyz
  1  'x, y, z'
loop_
 _atom_site_type_symbol
 _atom_site_label
 _atom_site_symmetry_multiplicity
 _atom_site_fract_x
 _atom_site_fract_y
 _atom_site_fract_z
 _atom_site_occupancy
  Pr  Pr0  1  0.27268584  0.49548772  0.87891503  1
  Pr  Pr1  1  0.72786768  0.51299414  0.12580059  1
  Pr  Pr2  1  0.76451002  0.02286708  0.87078251  1
  Pr  Pr3  1  0.23136413  0.95577603  0.13061228  1
  Mn  Mn4  1  0.30214699  0.44469981  0.61342032  1
  Mn  Mn5  1  0.68861731  0.46037075  0.36048138  1
  Mn  Mn6  1  0.00323649  0.96624166  0.01065723  1
  Mn  Mn7  1  0.79269579  0.01211393  0.61813402  1
  Mn  Mn8  1  0.20345888  0.02549875  0.37803385  1
  Mn  Mn9  1  0.48812568  0.46100161  0.98598871  1
  Sb  Sb10  1  0.89322309  0.95954602  0.44785791  1
  Sb  Sb11  1  0.11370238  0.98444071  0.54836811  1
  Sb  Sb12  1  0.04214313  0.52980526  0.83432102  1
  Sb  Sb13  1  0.96889002  0.48714218  0.19253232  1
  Sb  Sb14  1  0.40086785  0.50008976  0.44981529  1
  Sb  Sb15  1  0.61122857  0.48400401  0.54575791  1
  Sb  Sb16  1  0.52518781  0.95730378  0.79426842  1
  Sb  Sb17  1  0.46680483  0.02503213  0.18137022  1
  S  S18  1  0.92932046  0.96888654  0.80024233  1
  S  S19  1  0.06386013  0.99574898  0.19091537  1
  S  S20  1  0.41716384  0.98544156  0.98154956  1
  S  S21  1  0.58027996  0.02454700  0.99853679  1
  S  S22  1  0.16412788  0.99451906  0.89797601  1
  S  S23  1  0.82917043  0.97563490  0.10728431  1
  S  S24  1  0.09376252  0.48474883  0.64315465  1
  S  S25  1  0.90742920  0.50325702  0.35018902  1
  S  S26  1  0.73444745  0.00320649  0.29986770  1
  S  S27  1  0.26499120  0.00778311  0.69986115  1
  S  S28  1  0.17148962  0.51358846  0.44421988  1
  S  S29  1  0.81336869  0.51885808  0.53410194  1
  S  S30  1  0.43037736  0.47351776  0.79750164  1
  S  S31  1  0.55920876  0.50355418  0.17990388  1
  S  S32  1  0.91991641  0.51837793  0.98741773  1
  S  S33  1  0.08573247  0.47091154  0.02668451  1
  S  S34  1  0.66101662  0.55294362  0.88391836  1
  S  S35  1  0.32860420  0.47855359  0.10455125  1
  S  S36  1  0.58515588  0.98862810  0.63329436  1
  S  S37  1  0.40078128  0.99104898  0.34306475  1
  S  S38  1  0.24610041  0.50431567  0.31454647  1
  S  S39  1  0.76269977  0.50225219  0.69042612  1
  S  S40  1  0.66373440  0.01536832  0.43870039  1
  S  S41  1  0.32932565  0.95706884  0.54951940  1
