# generated using pymatgen
data_Pr2Mn3(SbS3)4
_symmetry_space_group_name_H-M   'P 1'
_cell_length_a   20.02960800
_cell_length_b   3.90410600
_cell_length_c   14.95364829
_cell_angle_alpha   90.00000000
_cell_angle_beta   126.33350609
_cell_angle_gamma   90.00000000
_symmetry_Int_Tables_number   1
_chemical_formula_structural   Pr2Mn3(SbS3)4
_chemical_formula_sum   'Pr4 Mn6 Sb8 S24'
_cell_volume   942.00006694
_cell_formula_units_Z   2
loop_
 _symmetry_equiv_pos_site_id
 _symmetry_equiv_pos_as_xyz
  1  'x, y, z'
loop_
 _atom_site_type_symbol
 _atom_site_label
 _atom_site_symmetry_multiplicity
 _atom_site_fract_x
 _atom_site_fract_y
 _atom_site_fract_z
 _atom_site_occupancy
  Pr  Pr0  1  0.27287485  0.49556004  0.87915277  1
  Pr  Pr1  1  0.72779076  0.51264892  0.12561214  1
  Pr  Pr2  1  0.76456367  0.02325449  0.87083945  1
  Pr  Pr3  1  0.23138860  0.95599416  0.13083037  1
  Mn  Mn4  1  0.30249729  0.44481605  0.61367985  1
  Mn  Mn5  1  0.68855438  0.46081115  0.36011848  1
  Mn  Mn6  1  0.00351879  0.96556141  0.01090027  1
  Mn  Mn7  1  0.79284278  0.01251740  0.61808801  1
  Mn  Mn8  1  0.20339558  0.02640617  0.37826343  1
  Mn  Mn9  1  0.48824307  0.46053772  0.98618821  1
  Sb  Sb10  1  0.89329531  0.95941123  0.44792281  1
  Sb  Sb11  1  0.11361000  0.98474070  0.54819085  1
  Sb  Sb12  1  0.04219856  0.53014980  0.83428816  1
  Sb  Sb13  1  0.96885350  0.48703627  0.19236304  1
  Sb  Sb14  1  0.40096467  0.50036015  0.44970617  1
  Sb  Sb15  1  0.61095469  0.48352660  0.54557543  1
  Sb  Sb16  1  0.52510651  0.95733234  0.79411858  1
  Sb  Sb17  1  0.46685298  0.02486177  0.18132672  1
  S  S18  1  0.92911228  0.97084636  0.80018744  1
  S  S19  1  0.06354333  0.99575043  0.19081211  1
  S  S20  1  0.41722934  0.98604059  0.98135868  1
  S  S21  1  0.58000227  0.02545819  0.99875194  1
  S  S22  1  0.16406619  0.99478759  0.89763769  1
  S  S23  1  0.82919913  0.97639344  0.10723872  1
  S  S24  1  0.09387274  0.48537196  0.64311787  1
  S  S25  1  0.90734972  0.50264925  0.35013273  1
  S  S26  1  0.73468575  0.00275121  0.29968544  1
  S  S27  1  0.26515645  0.00758976  0.69990480  1
  S  S28  1  0.17145985  0.51387049  0.44410883  1
  S  S29  1  0.81329383  0.51802407  0.53390019  1
  S  S30  1  0.43060071  0.47338052  0.79773934  1
  S  S31  1  0.55929277  0.50379923  0.18036170  1
  S  S32  1  0.91974781  0.51845572  0.98740348  1
  S  S33  1  0.08587233  0.47050107  0.02677513  1
  S  S34  1  0.66101590  0.55165666  0.88406207  1
  S  S35  1  0.32868745  0.47965105  0.10473503  1
  S  S36  1  0.58535608  0.98842656  0.63308388  1
  S  S37  1  0.40108934  0.99102629  0.34311654  1
  S  S38  1  0.24618988  0.50526872  0.31448317  1
  S  S39  1  0.76244105  0.50208445  0.68999405  1
  S  S40  1  0.66400788  0.01490001  0.43872608  1
  S  S41  1  0.32935300  0.95687201  0.54926653  1
