# generated using pymatgen
data_Pr2Mn3(SbS3)4
_symmetry_space_group_name_H-M   'P 1'
_cell_length_a   20.02960800
_cell_length_b   3.90410600
_cell_length_c   14.95364829
_cell_angle_alpha   90.00000000
_cell_angle_beta   126.33350609
_cell_angle_gamma   90.00000000
_symmetry_Int_Tables_number   1
_chemical_formula_structural   Pr2Mn3(SbS3)4
_chemical_formula_sum   'Pr4 Mn6 Sb8 S24'
_cell_volume   942.00006694
_cell_formula_units_Z   2
loop_
 _symmetry_equiv_pos_site_id
 _symmetry_equiv_pos_as_xyz
  1  'x, y, z'
loop_
 _atom_site_type_symbol
 _atom_site_label
 _atom_site_symmetry_multiplicity
 _atom_site_fract_x
 _atom_site_fract_y
 _atom_site_fract_z
 _atom_site_occupancy
  Pr  Pr0  1  0.27311219  0.49557332  0.87946598  1
  Pr  Pr1  1  0.72773347  0.51239177  0.12547816  1
  Pr  Pr2  1  0.76466335  0.02360088  0.87097666  1
  Pr  Pr3  1  0.23140082  0.95642739  0.13101665  1
  Mn  Mn4  1  0.30284069  0.44471731  0.61393689  1
  Mn  Mn5  1  0.68853635  0.46117347  0.35984246  1
  Mn  Mn6  1  0.00365950  0.96502160  0.01103728  1
  Mn  Mn7  1  0.79303268  0.01321309  0.61804501  1
  Mn  Mn8  1  0.20343684  0.02753332  0.37860188  1
  Mn  Mn9  1  0.48837140  0.46031094  0.98647282  1
  Sb  Sb10  1  0.89328951  0.95934119  0.44792314  1
  Sb  Sb11  1  0.11352694  0.98508499  0.54802502  1
  Sb  Sb12  1  0.04227177  0.53052673  0.83432202  1
  Sb  Sb13  1  0.96887304  0.48683606  0.19221295  1
  Sb  Sb14  1  0.40101209  0.50088601  0.44958322  1
  Sb  Sb15  1  0.61072071  0.48302774  0.54539812  1
  Sb  Sb16  1  0.52504672  0.95723727  0.79402657  1
  Sb  Sb17  1  0.46687577  0.02469400  0.18125483  1
  S  S18  1  0.92893521  0.97238216  0.80010804  1
  S  S19  1  0.06319549  0.99588342  0.19066764  1
  S  S20  1  0.41711402  0.98667614  0.98107403  1
  S  S21  1  0.57973913  0.02630258  0.99898754  1
  S  S22  1  0.16391901  0.99500473  0.89732490  1
  S  S23  1  0.82927278  0.97663342  0.10728920  1
  S  S24  1  0.09398565  0.48536840  0.64289024  1
  S  S25  1  0.90724226  0.50236603  0.35007490  1
  S  S26  1  0.73478583  0.00238089  0.29955241  1
  S  S27  1  0.26536897  0.00741062  0.70008846  1
  S  S28  1  0.17145788  0.51416911  0.44397531  1
  S  S29  1  0.81308405  0.51706559  0.53367770  1
  S  S30  1  0.43082601  0.47304141  0.79791313  1
  S  S31  1  0.55914875  0.50371178  0.18066454  1
  S  S32  1  0.91962582  0.51832109  0.98739237  1
  S  S33  1  0.08596490  0.47019352  0.02675758  1
  S  S34  1  0.66095501  0.55024056  0.88413120  1
  S  S35  1  0.32884070  0.48042210  0.10506335  1
  S  S36  1  0.58554938  0.98864864  0.63293826  1
  S  S37  1  0.40142603  0.99109234  0.34318897  1
  S  S38  1  0.24620420  0.50611722  0.31432365  1
  S  S39  1  0.76222321  0.50162907  0.68962910  1
  S  S40  1  0.66425828  0.01465312  0.43879457  1
  S  S41  1  0.32940168  0.95682908  0.54917723  1
