# generated using pymatgen
data_Pr2Mn3(SbS3)4
_symmetry_space_group_name_H-M   'P 1'
_cell_length_a   20.02960800
_cell_length_b   3.90410600
_cell_length_c   14.95364829
_cell_angle_alpha   90.00000000
_cell_angle_beta   126.33350609
_cell_angle_gamma   90.00000000
_symmetry_Int_Tables_number   1
_chemical_formula_structural   Pr2Mn3(SbS3)4
_chemical_formula_sum   'Pr4 Mn6 Sb8 S24'
_cell_volume   942.00006694
_cell_formula_units_Z   2
loop_
 _symmetry_equiv_pos_site_id
 _symmetry_equiv_pos_as_xyz
  1  'x, y, z'
loop_
 _atom_site_type_symbol
 _atom_site_label
 _atom_site_symmetry_multiplicity
 _atom_site_fract_x
 _atom_site_fract_y
 _atom_site_fract_z
 _atom_site_occupancy
  Pr  Pr0  1  0.27329132  0.49562515  0.87973396  1
  Pr  Pr1  1  0.72764872  0.51209920  0.12532007  1
  Pr  Pr2  1  0.76469281  0.02403449  0.87114843  1
  Pr  Pr3  1  0.23143038  0.95671806  0.13121473  1
  Mn  Mn4  1  0.30314084  0.44464335  0.61418491  1
  Mn  Mn5  1  0.68856138  0.46145672  0.35972656  1
  Mn  Mn6  1  0.00385835  0.96466097  0.01114212  1
  Mn  Mn7  1  0.79326597  0.01414194  0.61803944  1
  Mn  Mn8  1  0.20349276  0.02836941  0.37876008  1
  Mn  Mn9  1  0.48845076  0.46005634  0.98677636  1
  Sb  Sb10  1  0.89329903  0.95910234  0.44789352  1
  Sb  Sb11  1  0.11348172  0.98545763  0.54790879  1
  Sb  Sb12  1  0.04228587  0.53060450  0.83433297  1
  Sb  Sb13  1  0.96888334  0.48679251  0.19205332  1
  Sb  Sb14  1  0.40104103  0.50144770  0.44948588  1
  Sb  Sb15  1  0.61045245  0.48230095  0.54520043  1
  Sb  Sb16  1  0.52499623  0.95679205  0.79392750  1
  Sb  Sb17  1  0.46694557  0.02441614  0.18125057  1
  S  S18  1  0.92866176  0.97377898  0.79997863  1
  S  S19  1  0.06299367  0.99581594  0.19075617  1
  S  S20  1  0.41690722  0.98694637  0.98074704  1
  S  S21  1  0.57952591  0.02642269  0.99930136  1
  S  S22  1  0.16394339  0.99480105  0.89708100  1
  S  S23  1  0.82930831  0.97698804  0.10730232  1
  S  S24  1  0.09411659  0.48577536  0.64270102  1
  S  S25  1  0.90728250  0.50198220  0.35015460  1
  S  S26  1  0.73485965  0.00191686  0.29945382  1
  S  S27  1  0.26553996  0.00693425  0.70028831  1
  S  S28  1  0.17155517  0.51487216  0.44380870  1
  S  S29  1  0.81293363  0.51662792  0.53356615  1
  S  S30  1  0.43096464  0.47291074  0.79795060  1
  S  S31  1  0.55898106  0.50425418  0.18090054  1
  S  S32  1  0.91949982  0.51746466  0.98748980  1
  S  S33  1  0.08604273  0.46971569  0.02679450  1
  S  S34  1  0.66090241  0.54922406  0.88421934  1
  S  S35  1  0.32897238  0.48060517  0.10530488  1
  S  S36  1  0.58566862  0.98926146  0.63279490  1
  S  S37  1  0.40170998  0.99157201  0.34322021  1
  S  S38  1  0.24625313  0.50733965  0.31418611  1
  S  S39  1  0.76202907  0.50147188  0.68944528  1
  S  S40  1  0.66452110  0.01366228  0.43892704  1
  S  S41  1  0.32942628  0.95687672  0.54901751  1
