# generated using pymatgen
data_Pr2Mn3(SbS3)4
_symmetry_space_group_name_H-M   'P 1'
_cell_length_a   20.02960800
_cell_length_b   3.90410600
_cell_length_c   14.95364829
_cell_angle_alpha   90.00000000
_cell_angle_beta   126.33350609
_cell_angle_gamma   90.00000000
_symmetry_Int_Tables_number   1
_chemical_formula_structural   Pr2Mn3(SbS3)4
_chemical_formula_sum   'Pr4 Mn6 Sb8 S24'
_cell_volume   942.00006694
_cell_formula_units_Z   2
loop_
 _symmetry_equiv_pos_site_id
 _symmetry_equiv_pos_as_xyz
  1  'x, y, z'
loop_
 _atom_site_type_symbol
 _atom_site_label
 _atom_site_symmetry_multiplicity
 _atom_site_fract_x
 _atom_site_fract_y
 _atom_site_fract_z
 _atom_site_occupancy
  Pr  Pr0  1  0.27342007  0.49563870  0.87993016  1
  Pr  Pr1  1  0.72751788  0.51196104  0.12512935  1
  Pr  Pr2  1  0.76480004  0.02456559  0.87144354  1
  Pr  Pr3  1  0.23151397  0.95686004  0.13140212  1
  Mn  Mn4  1  0.30341995  0.44450602  0.61435364  1
  Mn  Mn5  1  0.68862075  0.46126399  0.35963381  1
  Mn  Mn6  1  0.00397938  0.96425877  0.01123430  1
  Mn  Mn7  1  0.79350801  0.01504504  0.61809885  1
  Mn  Mn8  1  0.20356416  0.02927944  0.37888542  1
  Mn  Mn9  1  0.48851645  0.45989252  0.98711033  1
  Sb  Sb10  1  0.89330729  0.95890941  0.44785930  1
  Sb  Sb11  1  0.11345366  0.98570148  0.54773788  1
  Sb  Sb12  1  0.04238028  0.53060459  0.83439770  1
  Sb  Sb13  1  0.96883063  0.48696239  0.19183065  1
  Sb  Sb14  1  0.40100141  0.50202187  0.44935334  1
  Sb  Sb15  1  0.61022392  0.48167802  0.54500748  1
  Sb  Sb16  1  0.52494788  0.95638869  0.79383989  1
  Sb  Sb17  1  0.46697936  0.02411966  0.18126280  1
  S  S18  1  0.92844299  0.97443233  0.79984821  1
  S  S19  1  0.06266319  0.99544578  0.19078093  1
  S  S20  1  0.41666071  0.98659925  0.98029282  1
  S  S21  1  0.57930780  0.02654798  0.99961370  1
  S  S22  1  0.16399956  0.99497652  0.89695722  1
  S  S23  1  0.82935544  0.97754519  0.10718046  1
  S  S24  1  0.09413641  0.48588174  0.64250757  1
  S  S25  1  0.90728527  0.50200361  0.35023134  1
  S  S26  1  0.73491189  0.00144313  0.29935209  1
  S  S27  1  0.26579029  0.00637179  0.70052328  1
  S  S28  1  0.17172289  0.51505828  0.44373686  1
  S  S29  1  0.81286083  0.51622563  0.53350132  1
  S  S30  1  0.43109029  0.47334336  0.79798329  1
  S  S31  1  0.55874670  0.50499946  0.18110755  1
  S  S32  1  0.91940950  0.51648169  0.98745189  1
  S  S33  1  0.08617349  0.46935981  0.02681417  1
  S  S34  1  0.66075250  0.54805347  0.88422958  1
  S  S35  1  0.32913215  0.48080007  0.10562660  1
  S  S36  1  0.58583251  0.99017552  0.63285852  1
  S  S37  1  0.40199208  0.99212470  0.34315874  1
  S  S38  1  0.24628232  0.50795763  0.31393513  1
  S  S39  1  0.76181265  0.50139442  0.68940273  1
  S  S40  1  0.66474442  0.01238916  0.43911215  1
  S  S41  1  0.32937882  0.95700387  0.54878848  1
