# generated using pymatgen
data_Pr2Mn3(SbS3)4
_symmetry_space_group_name_H-M   'P 1'
_cell_length_a   20.02960800
_cell_length_b   3.90410600
_cell_length_c   14.95364829
_cell_angle_alpha   90.00000000
_cell_angle_beta   126.33350609
_cell_angle_gamma   90.00000000
_symmetry_Int_Tables_number   1
_chemical_formula_structural   Pr2Mn3(SbS3)4
_chemical_formula_sum   'Pr4 Mn6 Sb8 S24'
_cell_volume   942.00006694
_cell_formula_units_Z   2
loop_
 _symmetry_equiv_pos_site_id
 _symmetry_equiv_pos_as_xyz
  1  'x, y, z'
loop_
 _atom_site_type_symbol
 _atom_site_label
 _atom_site_symmetry_multiplicity
 _atom_site_fract_x
 _atom_site_fract_y
 _atom_site_fract_z
 _atom_site_occupancy
  Pr  Pr0  1  0.27355680  0.49575184  0.88009119  1
  Pr  Pr1  1  0.72743514  0.51190778  0.12495920  1
  Pr  Pr2  1  0.76488877  0.02495624  0.87166505  1
  Pr  Pr3  1  0.23164887  0.95724777  0.13158279  1
  Mn  Mn4  1  0.30370889  0.44444779  0.61462203  1
  Mn  Mn5  1  0.68867848  0.46089534  0.35948974  1
  Mn  Mn6  1  0.00415709  0.96432639  0.01137161  1
  Mn  Mn7  1  0.79361581  0.01585969  0.61811459  1
  Mn  Mn8  1  0.20368432  0.02998943  0.37906378  1
  Mn  Mn9  1  0.48859106  0.45970536  0.98740370  1
  Sb  Sb10  1  0.89325693  0.95853613  0.44776224  1
  Sb  Sb11  1  0.11342180  0.98549004  0.54749926  1
  Sb  Sb12  1  0.04245887  0.53035623  0.83440074  1
  Sb  Sb13  1  0.96881950  0.48709571  0.19173783  1
  Sb  Sb14  1  0.40099435  0.50262696  0.44927290  1
  Sb  Sb15  1  0.61004868  0.48097457  0.54484435  1
  Sb  Sb16  1  0.52492174  0.95600711  0.79373783  1
  Sb  Sb17  1  0.46707947  0.02401478  0.18132082  1
  S  S18  1  0.92824108  0.97514275  0.79965558  1
  S  S19  1  0.06234620  0.99493604  0.19081612  1
  S  S20  1  0.41633370  0.98615906  0.97974518  1
  S  S21  1  0.57918425  0.02678296  0.99983364  1
  S  S22  1  0.16395312  0.99546545  0.89657603  1
  S  S23  1  0.82936985  0.97807020  0.10682175  1
  S  S24  1  0.09405095  0.48563374  0.64224820  1
  S  S25  1  0.90737658  0.50132442  0.35031027  1
  S  S26  1  0.73497819  0.00120441  0.29937663  1
  S  S27  1  0.26602614  0.00562379  0.70071552  1
  S  S28  1  0.17182064  0.51528071  0.44361569  1
  S  S29  1  0.81287700  0.51596780  0.53356701  1
  S  S30  1  0.43114942  0.47317076  0.79794654  1
  S  S31  1  0.55845680  0.50601256  0.18120950  1
  S  S32  1  0.91918961  0.51547684  0.98736937  1
  S  S33  1  0.08630257  0.46926750  0.02693305  1
  S  S34  1  0.66054148  0.54700531  0.88411714  1
  S  S35  1  0.32941420  0.48044915  0.10595238  1
  S  S36  1  0.58597363  0.99097310  0.63307309  1
  S  S37  1  0.40229996  0.99240879  0.34316631  1
  S  S38  1  0.24629706  0.50807825  0.31384562  1
  S  S39  1  0.76155986  0.50115111  0.68934566  1
  S  S40  1  0.66493670  0.01074538  0.43935124  1
  S  S41  1  0.32925254  0.95657541  0.54848163  1
