# generated using pymatgen
data_Pr2Mn3(SbS3)4
_symmetry_space_group_name_H-M   'P 1'
_cell_length_a   20.02960800
_cell_length_b   3.90410600
_cell_length_c   14.95364829
_cell_angle_alpha   90.00000000
_cell_angle_beta   126.33350609
_cell_angle_gamma   90.00000000
_symmetry_Int_Tables_number   1
_chemical_formula_structural   Pr2Mn3(SbS3)4
_chemical_formula_sum   'Pr4 Mn6 Sb8 S24'
_cell_volume   942.00006694
_cell_formula_units_Z   2
loop_
 _symmetry_equiv_pos_site_id
 _symmetry_equiv_pos_as_xyz
  1  'x, y, z'
loop_
 _atom_site_type_symbol
 _atom_site_label
 _atom_site_symmetry_multiplicity
 _atom_site_fract_x
 _atom_site_fract_y
 _atom_site_fract_z
 _atom_site_occupancy
  Pr  Pr0  1  0.27366447  0.49581837  0.88030434  1
  Pr  Pr1  1  0.72731180  0.51191218  0.12479820  1
  Pr  Pr2  1  0.76491003  0.02542876  0.87177631  1
  Pr  Pr3  1  0.23177888  0.95753253  0.13172353  1
  Mn  Mn4  1  0.30397466  0.44409130  0.61478309  1
  Mn  Mn5  1  0.68870157  0.46060605  0.35947351  1
  Mn  Mn6  1  0.00428846  0.96430686  0.01146489  1
  Mn  Mn7  1  0.79369309  0.01641670  0.61825044  1
  Mn  Mn8  1  0.20378429  0.03059004  0.37917912  1
  Mn  Mn9  1  0.48860629  0.45992649  0.98753445  1
  Sb  Sb10  1  0.89317999  0.95813302  0.44766728  1
  Sb  Sb11  1  0.11345611  0.98545738  0.54737788  1
  Sb  Sb12  1  0.04253204  0.53000398  0.83437189  1
  Sb  Sb13  1  0.96883072  0.48709928  0.19166696  1
  Sb  Sb14  1  0.40099282  0.50314942  0.44923789  1
  Sb  Sb15  1  0.60986866  0.48045018  0.54466508  1
  Sb  Sb16  1  0.52483915  0.95593508  0.79358157  1
  Sb  Sb17  1  0.46717152  0.02396603  0.18136355  1
  S  S18  1  0.92800430  0.97606309  0.79956819  1
  S  S19  1  0.06204252  0.99416501  0.19080294  1
  S  S20  1  0.41597949  0.98608366  0.97911695  1
  S  S21  1  0.57903728  0.02689692  0.99993769  1
  S  S22  1  0.16392960  0.99662992  0.89638109  1
  S  S23  1  0.82941784  0.97870100  0.10648873  1
  S  S24  1  0.09403388  0.48531742  0.64207182  1
  S  S25  1  0.90748541  0.50099293  0.35045793  1
  S  S26  1  0.73514339  0.00107534  0.29953306  1
  S  S27  1  0.26614604  0.00406617  0.70087640  1
  S  S28  1  0.17189255  0.51536873  0.44342645  1
  S  S29  1  0.81290511  0.51582487  0.53364473  1
  S  S30  1  0.43117246  0.47292967  0.79788836  1
  S  S31  1  0.55823637  0.50706553  0.18125158  1
  S  S32  1  0.91908142  0.51449900  0.98743384  1
  S  S33  1  0.08649803  0.46937389  0.02706002  1
  S  S34  1  0.66027536  0.54530466  0.88399140  1
  S  S35  1  0.32979268  0.48026271  0.10635665  1
  S  S36  1  0.58610667  0.99209950  0.63333446  1
  S  S37  1  0.40267638  0.99245047  0.34332915  1
  S  S38  1  0.24628723  0.50824062  0.31389798  1
  S  S39  1  0.76138304  0.50082541  0.68919816  1
  S  S40  1  0.66509930  0.00929432  0.43938405  1
  S  S41  1  0.32920646  0.95633446  0.54834477  1
