# generated using pymatgen
data_Pr2Mn3(SbS3)4
_symmetry_space_group_name_H-M   'P 1'
_cell_length_a   20.02960800
_cell_length_b   3.90410600
_cell_length_c   14.95364829
_cell_angle_alpha   90.00000000
_cell_angle_beta   126.33350609
_cell_angle_gamma   90.00000000
_symmetry_Int_Tables_number   1
_chemical_formula_structural   Pr2Mn3(SbS3)4
_chemical_formula_sum   'Pr4 Mn6 Sb8 S24'
_cell_volume   942.00006694
_cell_formula_units_Z   2
loop_
 _symmetry_equiv_pos_site_id
 _symmetry_equiv_pos_as_xyz
  1  'x, y, z'
loop_
 _atom_site_type_symbol
 _atom_site_label
 _atom_site_symmetry_multiplicity
 _atom_site_fract_x
 _atom_site_fract_y
 _atom_site_fract_z
 _atom_site_occupancy
  Pr  Pr0  1  0.27377535  0.49588461  0.88048180  1
  Pr  Pr1  1  0.72718735  0.51191850  0.12460588  1
  Pr  Pr2  1  0.76492864  0.02591973  0.87192586  1
  Pr  Pr3  1  0.23192748  0.95776354  0.13189632  1
  Mn  Mn4  1  0.30424599  0.44357974  0.61503838  1
  Mn  Mn5  1  0.68875504  0.46020594  0.35946748  1
  Mn  Mn6  1  0.00440859  0.96431920  0.01157609  1
  Mn  Mn7  1  0.79381305  0.01687451  0.61850634  1
  Mn  Mn8  1  0.20397986  0.03152300  0.37935072  1
  Mn  Mn9  1  0.48866459  0.46036351  0.98760510  1
  Sb  Sb10  1  0.89313300  0.95801561  0.44756017  1
  Sb  Sb11  1  0.11350607  0.98539587  0.54728738  1
  Sb  Sb12  1  0.04256704  0.52984977  0.83425436  1
  Sb  Sb13  1  0.96885349  0.48694599  0.19162190  1
  Sb  Sb14  1  0.40099262  0.50357844  0.44928270  1
  Sb  Sb15  1  0.60973554  0.47984504  0.54456194  1
  Sb  Sb16  1  0.52467776  0.95573234  0.79334299  1
  Sb  Sb17  1  0.46727397  0.02419381  0.18144360  1
  S  S18  1  0.92784270  0.97724717  0.79956349  1
  S  S19  1  0.06175000  0.99286422  0.19077571  1
  S  S20  1  0.41573724  0.98594593  0.97866331  1
  S  S21  1  0.57890757  0.02685083  0.00011257  1
  S  S22  1  0.16397332  0.99747142  0.89629484  1
  S  S23  1  0.82943889  0.97896144  0.10606173  1
  S  S24  1  0.09410067  0.48545664  0.64196396  1
  S  S25  1  0.90762412  0.50086967  0.35064234  1
  S  S26  1  0.73525451  0.00119613  0.29969666  1
  S  S27  1  0.26634160  0.00232889  0.70106016  1
  S  S28  1  0.17201804  0.51485493  0.44326081  1
  S  S29  1  0.81292754  0.51585167  0.53374418  1
  S  S30  1  0.43121680  0.47284015  0.79784546  1
  S  S31  1  0.55801691  0.50768288  0.18128832  1
  S  S32  1  0.91891601  0.51389583  0.98740768  1
  S  S33  1  0.08657954  0.46945377  0.02716869  1
  S  S34  1  0.66006251  0.54372034  0.88402162  1
  S  S35  1  0.33004275  0.47965314  0.10652543  1
  S  S36  1  0.58621376  0.99278840  0.63357967  1
  S  S37  1  0.40302734  0.99261570  0.34360390  1
  S  S38  1  0.24633578  0.50807814  0.31420260  1
  S  S39  1  0.76126548  0.50070990  0.68912876  1
  S  S40  1  0.66508704  0.00844112  0.43928921  1
  S  S41  1  0.32917957  0.95560064  0.54828964  1
