# generated using pymatgen
data_Pr2Mn3(SbS3)4
_symmetry_space_group_name_H-M   'P 1'
_cell_length_a   20.02960800
_cell_length_b   3.90410600
_cell_length_c   14.95364829
_cell_angle_alpha   90.00000000
_cell_angle_beta   126.33350609
_cell_angle_gamma   90.00000000
_symmetry_Int_Tables_number   1
_chemical_formula_structural   Pr2Mn3(SbS3)4
_chemical_formula_sum   'Pr4 Mn6 Sb8 S24'
_cell_volume   942.00006694
_cell_formula_units_Z   2
loop_
 _symmetry_equiv_pos_site_id
 _symmetry_equiv_pos_as_xyz
  1  'x, y, z'
loop_
 _atom_site_type_symbol
 _atom_site_label
 _atom_site_symmetry_multiplicity
 _atom_site_fract_x
 _atom_site_fract_y
 _atom_site_fract_z
 _atom_site_occupancy
  Pr  Pr0  1  0.27390310  0.49571936  0.88063828  1
  Pr  Pr1  1  0.72702030  0.51195561  0.12440607  1
  Pr  Pr2  1  0.76496252  0.02624904  0.87205505  1
  Pr  Pr3  1  0.23205329  0.95807088  0.13199143  1
  Mn  Mn4  1  0.30444145  0.44269518  0.61517015  1
  Mn  Mn5  1  0.68878313  0.45969114  0.35948015  1
  Mn  Mn6  1  0.00439623  0.96404479  0.01162662  1
  Mn  Mn7  1  0.79399336  0.01733771  0.61876033  1
  Mn  Mn8  1  0.20418185  0.03239737  0.37947058  1
  Mn  Mn9  1  0.48865719  0.46132792  0.98764587  1
  Sb  Sb10  1  0.89309470  0.95799443  0.44737914  1
  Sb  Sb11  1  0.11352984  0.98543507  0.54720382  1
  Sb  Sb12  1  0.04261618  0.52972112  0.83416091  1
  Sb  Sb13  1  0.96885669  0.48700298  0.19151467  1
  Sb  Sb14  1  0.40097802  0.50413971  0.44926352  1
  Sb  Sb15  1  0.60966087  0.47937504  0.54450239  1
  Sb  Sb16  1  0.52451937  0.95536573  0.79311578  1
  Sb  Sb17  1  0.46739404  0.02450839  0.18147494  1
  S  S18  1  0.92773099  0.97824431  0.79953176  1
  S  S19  1  0.06158459  0.99160840  0.19072249  1
  S  S20  1  0.41546807  0.98572239  0.97821825  1
  S  S21  1  0.57885192  0.02709235  0.00028632  1
  S  S22  1  0.16396526  0.99848785  0.89604397  1
  S  S23  1  0.82947991  0.97931901  0.10561599  1
  S  S24  1  0.09411120  0.48532088  0.64188804  1
  S  S25  1  0.90794276  0.50087419  0.35097768  1
  S  S26  1  0.73533890  0.00167651  0.29985507  1
  S  S27  1  0.26644719  0.00070206  0.70114349  1
  S  S28  1  0.17207270  0.51409267  0.44304556  1
  S  S29  1  0.81292926  0.51573967  0.53377403  1
  S  S30  1  0.43136768  0.47298613  0.79780853  1
  S  S31  1  0.55790424  0.50788472  0.18142435  1
  S  S32  1  0.91876656  0.51346474  0.98749830  1
  S  S33  1  0.08681264  0.46928046  0.02731436  1
  S  S34  1  0.65983037  0.54180431  0.88407922  1
  S  S35  1  0.33027608  0.47851222  0.10670363  1
  S  S36  1  0.58635626  0.99365732  0.63392101  1
  S  S37  1  0.40340753  0.99289088  0.34386782  1
  S  S38  1  0.24634760  0.50794800  0.31431588  1
  S  S39  1  0.76121401  0.50023410  0.68916484  1
  S  S40  1  0.66506086  0.00755988  0.43916129  1
  S  S41  1  0.32922749  0.95513601  0.54823039  1
