# generated using pymatgen
data_Pr2Mn3(SbS3)4
_symmetry_space_group_name_H-M   'P 1'
_cell_length_a   20.02960800
_cell_length_b   3.90410600
_cell_length_c   14.95364829
_cell_angle_alpha   90.00000000
_cell_angle_beta   126.33350609
_cell_angle_gamma   90.00000000
_symmetry_Int_Tables_number   1
_chemical_formula_structural   Pr2Mn3(SbS3)4
_chemical_formula_sum   'Pr4 Mn6 Sb8 S24'
_cell_volume   942.00006694
_cell_formula_units_Z   2
loop_
 _symmetry_equiv_pos_site_id
 _symmetry_equiv_pos_as_xyz
  1  'x, y, z'
loop_
 _atom_site_type_symbol
 _atom_site_label
 _atom_site_symmetry_multiplicity
 _atom_site_fract_x
 _atom_site_fract_y
 _atom_site_fract_z
 _atom_site_occupancy
  Pr  Pr0  1  0.26176983  0.49270291  0.86607384  1
  Pr  Pr1  1  0.73968407  0.50491937  0.13760573  1
  Pr  Pr2  1  0.76119027  0.00834819  0.86211204  1
  Pr  Pr3  1  0.23904261  0.99088925  0.13893326  1
  Mn  Mn4  1  0.29880783  0.50793394  0.61889121  1
  Mn  Mn5  1  0.69781102  0.50350865  0.38104050  1
  Mn  Mn6  1  0.00180548  0.00004106  0.99894999  1
  Mn  Mn7  1  0.80289695  0.99423260  0.61610487  1
  Mn  Mn8  1  0.19888443  0.98284538  0.37873668  1
  Mn  Mn9  1  0.50214511  0.48540231  0.99854545  1
  Sb  Sb10  1  0.89448162  0.01037969  0.45420154  1
  Sb  Sb11  1  0.10813825  0.98472988  0.55125745  1
  Sb  Sb12  1  0.03807806  0.48699176  0.81539480  1
  Sb  Sb13  1  0.96173755  0.50882258  0.18787589  1
  Sb  Sb14  1  0.39494379  0.48756172  0.45635808  1
  Sb  Sb15  1  0.60708864  0.50205577  0.54939616  1
  Sb  Sb16  1  0.53684513  0.00234408  0.81446117  1
  Sb  Sb17  1  0.46219478  0.00090698  0.18181938  1
  S  S18  1  0.93783864  0.98322184  0.79866889  1
  S  S19  1  0.05916706  0.00069318  0.19081459  1
  S  S20  1  0.40457189  0.98450255  0.97873380  1
  S  S21  1  0.59441600  0.99566104  0.01577558  1
  S  S22  1  0.17144537  0.98528987  0.90316719  1
  S  S23  1  0.82798293  0.01385207  0.10548995  1
  S  S24  1  0.08539433  0.49082044  0.64582987  1
  S  S25  1  0.91244376  0.48306855  0.35740470  1
  S  S26  1  0.74360777  0.95766010  0.29649320  1
  S  S27  1  0.25539832  0.00490301  0.70044828  1
  S  S28  1  0.16076803  0.49314742  0.44603024  1
  S  S29  1  0.83060033  0.49220560  0.54757820  1
  S  S30  1  0.43543181  0.51020311  0.79828430  1
  S  S31  1  0.56014105  0.49853626  0.19408204  1
  S  S32  1  0.90146565  0.47797971  0.97630417  1
  S  S33  1  0.09076076  0.48227214  0.01746715  1
  S  S34  1  0.66563748  0.50205796  0.89625604  1
  S  S35  1  0.33227169  0.51251419  0.10195187  1
  S  S36  1  0.59205062  0.01550664  0.64972296  1
  S  S37  1  0.41319461  0.98404307  0.35794474  1
  S  S38  1  0.24307456  0.47308034  0.29721358  1
  S  S39  1  0.76413186  0.50639004  0.70265166  1
  S  S40  1  0.66462534  0.00685385  0.46145191  1
  S  S41  1  0.33415173  0.98607251  0.54176934  1
