# generated using pymatgen
data_Pr2Mn3(SbS3)4
_symmetry_space_group_name_H-M   'P 1'
_cell_length_a   20.02960800
_cell_length_b   3.90410600
_cell_length_c   14.95364829
_cell_angle_alpha   90.00000000
_cell_angle_beta   126.33350609
_cell_angle_gamma   90.00000000
_symmetry_Int_Tables_number   1
_chemical_formula_structural   Pr2Mn3(SbS3)4
_chemical_formula_sum   'Pr4 Mn6 Sb8 S24'
_cell_volume   942.00006694
_cell_formula_units_Z   2
loop_
 _symmetry_equiv_pos_site_id
 _symmetry_equiv_pos_as_xyz
  1  'x, y, z'
loop_
 _atom_site_type_symbol
 _atom_site_label
 _atom_site_symmetry_multiplicity
 _atom_site_fract_x
 _atom_site_fract_y
 _atom_site_fract_z
 _atom_site_occupancy
  Pr  Pr0  1  0.27398640  0.49547588  0.88076111  1
  Pr  Pr1  1  0.72690669  0.51203390  0.12422084  1
  Pr  Pr2  1  0.76496582  0.02648140  0.87215324  1
  Pr  Pr3  1  0.23213081  0.95848821  0.13203194  1
  Mn  Mn4  1  0.30453912  0.44187318  0.61525666  1
  Mn  Mn5  1  0.68874555  0.45959537  0.35945094  1
  Mn  Mn6  1  0.00433828  0.96404491  0.01161058  1
  Mn  Mn7  1  0.79417434  0.01788691  0.61897491  1
  Mn  Mn8  1  0.20436172  0.03284615  0.37967530  1
  Mn  Mn9  1  0.48864187  0.46185480  0.98766272  1
  Sb  Sb10  1  0.89305574  0.95786840  0.44710471  1
  Sb  Sb11  1  0.11361058  0.98571571  0.54719209  1
  Sb  Sb12  1  0.04262697  0.52962028  0.83402970  1
  Sb  Sb13  1  0.96886482  0.48712393  0.19138547  1
  Sb  Sb14  1  0.40091097  0.50445089  0.44920106  1
  Sb  Sb15  1  0.60952144  0.47930370  0.54434531  1
  Sb  Sb16  1  0.52442487  0.95506170  0.79292572  1
  Sb  Sb17  1  0.46749085  0.02472310  0.18152743  1
  S  S18  1  0.92761736  0.97926341  0.79938386  1
  S  S19  1  0.06146047  0.99041696  0.19069449  1
  S  S20  1  0.41511926  0.98488408  0.97780337  1
  S  S21  1  0.57880932  0.02766341  0.00044982  1
  S  S22  1  0.16393710  0.99913280  0.89577950  1
  S  S23  1  0.82958088  0.98010511  0.10512823  1
  S  S24  1  0.09404989  0.48555013  0.64176129  1
  S  S25  1  0.90826299  0.50094344  0.35129330  1
  S  S26  1  0.73533895  0.00181444  0.30003756  1
  S  S27  1  0.26652313  0.99911086  0.70120386  1
  S  S28  1  0.17215825  0.51337328  0.44287813  1
  S  S29  1  0.81291031  0.51523852  0.53373056  1
  S  S30  1  0.43156479  0.47322957  0.79774757  1
  S  S31  1  0.55782501  0.50770209  0.18169073  1
  S  S32  1  0.91857406  0.51335818  0.98756311  1
  S  S33  1  0.08702581  0.46873700  0.02744632  1
  S  S34  1  0.65966497  0.54029820  0.88407192  1
  S  S35  1  0.33049657  0.47767232  0.10688690  1
  S  S36  1  0.58650625  0.99474614  0.63416497  1
  S  S37  1  0.40377643  0.99322478  0.34400208  1
  S  S38  1  0.24625590  0.50804282  0.31426421  1
  S  S39  1  0.76110682  0.49972632  0.68914572  1
  S  S40  1  0.66501727  0.00668999  0.43904640  1
  S  S41  1  0.32922656  0.95472256  0.54810151  1
