# generated using pymatgen
data_Pr2Mn3(SbS3)4
_symmetry_space_group_name_H-M   'P 1'
_cell_length_a   20.02960800
_cell_length_b   3.90410600
_cell_length_c   14.95364829
_cell_angle_alpha   90.00000000
_cell_angle_beta   126.33350609
_cell_angle_gamma   90.00000000
_symmetry_Int_Tables_number   1
_chemical_formula_structural   Pr2Mn3(SbS3)4
_chemical_formula_sum   'Pr4 Mn6 Sb8 S24'
_cell_volume   942.00006694
_cell_formula_units_Z   2
loop_
 _symmetry_equiv_pos_site_id
 _symmetry_equiv_pos_as_xyz
  1  'x, y, z'
loop_
 _atom_site_type_symbol
 _atom_site_label
 _atom_site_symmetry_multiplicity
 _atom_site_fract_x
 _atom_site_fract_y
 _atom_site_fract_z
 _atom_site_occupancy
  Pr  Pr0  1  0.27407054  0.49531378  0.88082932  1
  Pr  Pr1  1  0.72676911  0.51211434  0.12399497  1
  Pr  Pr2  1  0.76499084  0.02640609  0.87220639  1
  Pr  Pr3  1  0.23219021  0.95887386  0.13201842  1
  Mn  Mn4  1  0.30467387  0.44115957  0.61552239  1
  Mn  Mn5  1  0.68873642  0.45907723  0.35932360  1
  Mn  Mn6  1  0.00432671  0.96421569  0.01161841  1
  Mn  Mn7  1  0.79441979  0.01846444  0.61926489  1
  Mn  Mn8  1  0.20449936  0.03324215  0.37983158  1
  Mn  Mn9  1  0.48857919  0.46224185  0.98776705  1
  Sb  Sb10  1  0.89305568  0.95779227  0.44695374  1
  Sb  Sb11  1  0.11368144  0.98579496  0.54718428  1
  Sb  Sb12  1  0.04265985  0.52940254  0.83390433  1
  Sb  Sb13  1  0.96886849  0.48711970  0.19127892  1
  Sb  Sb14  1  0.40078680  0.50477001  0.44909543  1
  Sb  Sb15  1  0.60938974  0.47919445  0.54423658  1
  Sb  Sb16  1  0.52443345  0.95474963  0.79280021  1
  Sb  Sb17  1  0.46757871  0.02455483  0.18165030  1
  S  S18  1  0.92760715  0.98004663  0.79929435  1
  S  S19  1  0.06132797  0.98960094  0.19076336  1
  S  S20  1  0.41473977  0.98428265  0.97737867  1
  S  S21  1  0.57863805  0.02801962  0.00047817  1
  S  S22  1  0.16384092  0.00034090  0.89536745  1
  S  S23  1  0.82967775  0.98118671  0.10456282  1
  S  S24  1  0.09395539  0.48575734  0.64164700  1
  S  S25  1  0.90869008  0.50076262  0.35159859  1
  S  S26  1  0.73538754  0.00158391  0.30011289  1
  S  S27  1  0.26657422  0.99740685  0.70124526  1
  S  S28  1  0.17214643  0.51213063  0.44259631  1
  S  S29  1  0.81293634  0.51515141  0.53364820  1
  S  S30  1  0.43170826  0.47316712  0.79765003  1
  S  S31  1  0.55776382  0.50794889  0.18185480  1
  S  S32  1  0.91838420  0.51360115  0.98771490  1
  S  S33  1  0.08728912  0.46848727  0.02754098  1
  S  S34  1  0.65937264  0.53897481  0.88399034  1
  S  S35  1  0.33077585  0.47696774  0.10713975  1
  S  S36  1  0.58685966  0.99593139  0.63449064  1
  S  S37  1  0.40413697  0.99371418  0.34409345  1
  S  S38  1  0.24627284  0.50831976  0.31424373  1
  S  S39  1  0.76107090  0.49932808  0.68928609  1
  S  S40  1  0.66491370  0.00584584  0.43878286  1
  S  S41  1  0.32924725  0.95469179  0.54788019  1
