# generated using pymatgen
data_Pr2Mn3(SbS3)4
_symmetry_space_group_name_H-M   'P 1'
_cell_length_a   20.02960800
_cell_length_b   3.90410600
_cell_length_c   14.95364829
_cell_angle_alpha   90.00000000
_cell_angle_beta   126.33350609
_cell_angle_gamma   90.00000000
_symmetry_Int_Tables_number   1
_chemical_formula_structural   Pr2Mn3(SbS3)4
_chemical_formula_sum   'Pr4 Mn6 Sb8 S24'
_cell_volume   942.00006694
_cell_formula_units_Z   2
loop_
 _symmetry_equiv_pos_site_id
 _symmetry_equiv_pos_as_xyz
  1  'x, y, z'
loop_
 _atom_site_type_symbol
 _atom_site_label
 _atom_site_symmetry_multiplicity
 _atom_site_fract_x
 _atom_site_fract_y
 _atom_site_fract_z
 _atom_site_occupancy
  Pr  Pr0  1  0.27414053  0.49538839  0.88089398  1
  Pr  Pr1  1  0.72671226  0.51208755  0.12381799  1
  Pr  Pr2  1  0.76501491  0.02635226  0.87222748  1
  Pr  Pr3  1  0.23223361  0.95930300  0.13197550  1
  Mn  Mn4  1  0.30473697  0.44051417  0.61573601  1
  Mn  Mn5  1  0.68884927  0.45846290  0.35937121  1
  Mn  Mn6  1  0.00426118  0.96420326  0.01168388  1
  Mn  Mn7  1  0.79465524  0.01891035  0.61966671  1
  Mn  Mn8  1  0.20466662  0.03372012  0.37997783  1
  Mn  Mn9  1  0.48859043  0.46293095  0.98787457  1
  Sb  Sb10  1  0.89307189  0.95789714  0.44681946  1
  Sb  Sb11  1  0.11372352  0.98574685  0.54717883  1
  Sb  Sb12  1  0.04264276  0.52926424  0.83376243  1
  Sb  Sb13  1  0.96878300  0.48711243  0.19107295  1
  Sb  Sb14  1  0.40073690  0.50523028  0.44907683  1
  Sb  Sb15  1  0.60928860  0.47899933  0.54422956  1
  Sb  Sb16  1  0.52451606  0.95453047  0.79278455  1
  Sb  Sb17  1  0.46769227  0.02433653  0.18177302  1
  S  S18  1  0.92753520  0.98116495  0.79917201  1
  S  S19  1  0.06116329  0.98910151  0.19072605  1
  S  S20  1  0.41433115  0.98377611  0.97692852  1
  S  S21  1  0.57838417  0.02813653  0.00047982  1
  S  S22  1  0.16371835  0.00110559  0.89497604  1
  S  S23  1  0.82973319  0.98224895  0.10407995  1
  S  S24  1  0.09387689  0.48600859  0.64156312  1
  S  S25  1  0.90918350  0.50104026  0.35201313  1
  S  S26  1  0.73537645  0.00112950  0.30022974  1
  S  S27  1  0.26667284  0.99611148  0.70136889  1
  S  S28  1  0.17218200  0.51085272  0.44226905  1
  S  S29  1  0.81300486  0.51503551  0.53369140  1
  S  S30  1  0.43168920  0.47334232  0.79745347  1
  S  S31  1  0.55777805  0.50837223  0.18199142  1
  S  S32  1  0.91823009  0.51424295  0.98780947  1
  S  S33  1  0.08774377  0.46853142  0.02789160  1
  S  S34  1  0.65921392  0.53799923  0.88398101  1
  S  S35  1  0.33108955  0.47714863  0.10751650  1
  S  S36  1  0.58712043  0.99706024  0.63466182  1
  S  S37  1  0.40451765  0.99394856  0.34426611  1
  S  S38  1  0.24632141  0.50883416  0.31446355  1
  S  S39  1  0.76118086  0.49925430  0.68964773  1
  S  S40  1  0.66485696  0.00514457  0.43865773  1
  S  S41  1  0.32927090  0.95482936  0.54763483  1
