# generated using pymatgen
data_Pr2Mn3(SbS3)4
_symmetry_space_group_name_H-M   'P 1'
_cell_length_a   20.02960800
_cell_length_b   3.90410600
_cell_length_c   14.95364829
_cell_angle_alpha   90.00000000
_cell_angle_beta   126.33350609
_cell_angle_gamma   90.00000000
_symmetry_Int_Tables_number   1
_chemical_formula_structural   Pr2Mn3(SbS3)4
_chemical_formula_sum   'Pr4 Mn6 Sb8 S24'
_cell_volume   942.00006694
_cell_formula_units_Z   2
loop_
 _symmetry_equiv_pos_site_id
 _symmetry_equiv_pos_as_xyz
  1  'x, y, z'
loop_
 _atom_site_type_symbol
 _atom_site_label
 _atom_site_symmetry_multiplicity
 _atom_site_fract_x
 _atom_site_fract_y
 _atom_site_fract_z
 _atom_site_occupancy
  Pr  Pr0  1  0.27417595  0.49530078  0.88090607  1
  Pr  Pr1  1  0.72667058  0.51172636  0.12367963  1
  Pr  Pr2  1  0.76499885  0.02641616  0.87220025  1
  Pr  Pr3  1  0.23221452  0.95999193  0.13184392  1
  Mn  Mn4  1  0.30483454  0.44021592  0.61595283  1
  Mn  Mn5  1  0.68881299  0.45788452  0.35930133  1
  Mn  Mn6  1  0.00420251  0.96428690  0.01179614  1
  Mn  Mn7  1  0.79477546  0.01866585  0.62000061  1
  Mn  Mn8  1  0.20495269  0.03436550  0.38014874  1
  Mn  Mn9  1  0.48868115  0.46343366  0.98812022  1
  Sb  Sb10  1  0.89302466  0.95773457  0.44669944  1
  Sb  Sb11  1  0.11378460  0.98577078  0.54706399  1
  Sb  Sb12  1  0.04261287  0.52919270  0.83365899  1
  Sb  Sb13  1  0.96866465  0.48731746  0.19086303  1
  Sb  Sb14  1  0.40072056  0.50574679  0.44910403  1
  Sb  Sb15  1  0.60920593  0.47901003  0.54430162  1
  Sb  Sb16  1  0.52459326  0.95426442  0.79280979  1
  Sb  Sb17  1  0.46785804  0.02396311  0.18194015  1
  S  S18  1  0.92742294  0.98256973  0.79902189  1
  S  S19  1  0.06102570  0.98853656  0.19071134  1
  S  S20  1  0.41403273  0.98362369  0.97652626  1
  S  S21  1  0.57813472  0.02833716  0.00051272  1
  S  S22  1  0.16355045  0.00173585  0.89467406  1
  S  S23  1  0.82977258  0.98269621  0.10373310  1
  S  S24  1  0.09375468  0.48618310  0.64133212  1
  S  S25  1  0.90965495  0.50096500  0.35241138  1
  S  S26  1  0.73533560  0.00060060  0.30022167  1
  S  S27  1  0.26665475  0.99524565  0.70133638  1
  S  S28  1  0.17227424  0.51000176  0.44208826  1
  S  S29  1  0.81311990  0.51517809  0.53386417  1
  S  S30  1  0.43176397  0.47276851  0.79732959  1
  S  S31  1  0.55780185  0.50832062  0.18206471  1
  S  S32  1  0.91801388  0.51451359  0.98783326  1
  S  S33  1  0.08799295  0.46798366  0.02805493  1
  S  S34  1  0.65907863  0.53746985  0.88383434  1
  S  S35  1  0.33139275  0.47750529  0.10790878  1
  S  S36  1  0.58717913  0.99780575  0.63476533  1
  S  S37  1  0.40494043  0.99457467  0.34439581  1
  S  S38  1  0.24639999  0.50940857  0.31474199  1
  S  S39  1  0.76135701  0.49875948  0.68994427  1
  S  S40  1  0.66485886  0.00470154  0.43866966  1
  S  S41  1  0.32919981  0.95542650  0.54742321  1
