# generated using pymatgen
data_Pr2Mn3(SbS3)4
_symmetry_space_group_name_H-M   'P 1'
_cell_length_a   20.02960800
_cell_length_b   3.90410600
_cell_length_c   14.95364829
_cell_angle_alpha   90.00000000
_cell_angle_beta   126.33350609
_cell_angle_gamma   90.00000000
_symmetry_Int_Tables_number   1
_chemical_formula_structural   Pr2Mn3(SbS3)4
_chemical_formula_sum   'Pr4 Mn6 Sb8 S24'
_cell_volume   942.00006694
_cell_formula_units_Z   2
loop_
 _symmetry_equiv_pos_site_id
 _symmetry_equiv_pos_as_xyz
  1  'x, y, z'
loop_
 _atom_site_type_symbol
 _atom_site_label
 _atom_site_symmetry_multiplicity
 _atom_site_fract_x
 _atom_site_fract_y
 _atom_site_fract_z
 _atom_site_occupancy
  Pr  Pr0  1  0.27417452  0.49500904  0.88085846  1
  Pr  Pr1  1  0.72667134  0.51162898  0.12361433  1
  Pr  Pr2  1  0.76492160  0.02623989  0.87219529  1
  Pr  Pr3  1  0.23222136  0.96068401  0.13173937  1
  Mn  Mn4  1  0.30493964  0.44005363  0.61621342  1
  Mn  Mn5  1  0.68883776  0.45734756  0.35939073  1
  Mn  Mn6  1  0.00413120  0.96401107  0.01180203  1
  Mn  Mn7  1  0.79484850  0.01809118  0.62038830  1
  Mn  Mn8  1  0.20522919  0.03488187  0.38032350  1
  Mn  Mn9  1  0.48872113  0.46344698  0.98828189  1
  Sb  Sb10  1  0.89295014  0.95771471  0.44649465  1
  Sb  Sb11  1  0.11388344  0.98575153  0.54699607  1
  Sb  Sb12  1  0.04259714  0.52910611  0.83352073  1
  Sb  Sb13  1  0.96859401  0.48738035  0.19074104  1
  Sb  Sb14  1  0.40065413  0.50658805  0.44909828  1
  Sb  Sb15  1  0.60915343  0.47921822  0.54435286  1
  Sb  Sb16  1  0.52465774  0.95381380  0.79287578  1
  Sb  Sb17  1  0.46800361  0.02359785  0.18210680  1
  S  S18  1  0.92722735  0.98378196  0.79879670  1
  S  S19  1  0.06084263  0.98803166  0.19062913  1
  S  S20  1  0.41379066  0.98313353  0.97600123  1
  S  S21  1  0.57806037  0.02925730  0.00062969  1
  S  S22  1  0.16335980  0.00286811  0.89442177  1
  S  S23  1  0.82982010  0.98308287  0.10342297  1
  S  S24  1  0.09363959  0.48597980  0.64102579  1
  S  S25  1  0.90997722  0.50097208  0.35267404  1
  S  S26  1  0.73540461  0.00001164  0.30024584  1
  S  S27  1  0.26665097  0.99425254  0.70134943  1
  S  S28  1  0.17236593  0.50903887  0.44203105  1
  S  S29  1  0.81320502  0.51574724  0.53401752  1
  S  S30  1  0.43187332  0.47169845  0.79715062  1
  S  S31  1  0.55789884  0.50855649  0.18213746  1
  S  S32  1  0.91774275  0.51475684  0.98781751  1
  S  S33  1  0.08818921  0.46759892  0.02811187  1
  S  S34  1  0.65906061  0.53682119  0.88388788  1
  S  S35  1  0.33159141  0.47781358  0.10821504  1
  S  S36  1  0.58733665  0.99845163  0.63502392  1
  S  S37  1  0.40534814  0.99482162  0.34438026  1
  S  S38  1  0.24650841  0.50977696  0.31497975  1
  S  S39  1  0.76158154  0.49877026  0.69031273  1
  S  S40  1  0.66487927  0.00391601  0.43872889  1
  S  S41  1  0.32918301  0.95581801  0.54716595  1
