# generated using pymatgen
data_Pr2Mn3(SbS3)4
_symmetry_space_group_name_H-M   'P 1'
_cell_length_a   20.02960800
_cell_length_b   3.90410600
_cell_length_c   14.95364829
_cell_angle_alpha   90.00000000
_cell_angle_beta   126.33350609
_cell_angle_gamma   90.00000000
_symmetry_Int_Tables_number   1
_chemical_formula_structural   Pr2Mn3(SbS3)4
_chemical_formula_sum   'Pr4 Mn6 Sb8 S24'
_cell_volume   942.00006694
_cell_formula_units_Z   2
loop_
 _symmetry_equiv_pos_site_id
 _symmetry_equiv_pos_as_xyz
  1  'x, y, z'
loop_
 _atom_site_type_symbol
 _atom_site_label
 _atom_site_symmetry_multiplicity
 _atom_site_fract_x
 _atom_site_fract_y
 _atom_site_fract_z
 _atom_site_occupancy
  Pr  Pr0  1  0.27414930  0.49467084  0.88075130  1
  Pr  Pr1  1  0.72661315  0.51156125  0.12350125  1
  Pr  Pr2  1  0.76483841  0.02603651  0.87219045  1
  Pr  Pr3  1  0.23222954  0.96114941  0.13164156  1
  Mn  Mn4  1  0.30502241  0.43982019  0.61643197  1
  Mn  Mn5  1  0.68886087  0.45671233  0.35947400  1
  Mn  Mn6  1  0.00408803  0.96344071  0.01182140  1
  Mn  Mn7  1  0.79497449  0.01809782  0.62081825  1
  Mn  Mn8  1  0.20535124  0.03551289  0.38044747  1
  Mn  Mn9  1  0.48878203  0.46401866  0.98836582  1
  Sb  Sb10  1  0.89292376  0.95765762  0.44637752  1
  Sb  Sb11  1  0.11400142  0.98582343  0.54694099  1
  Sb  Sb12  1  0.04258509  0.52901810  0.83340594  1
  Sb  Sb13  1  0.96855978  0.48752777  0.19068215  1
  Sb  Sb14  1  0.40060721  0.50724229  0.44907005  1
  Sb  Sb15  1  0.60907076  0.47949558  0.54439191  1
  Sb  Sb16  1  0.52470746  0.95339483  0.79295321  1
  Sb  Sb17  1  0.46819831  0.02332843  0.18227467  1
  S  S18  1  0.92706442  0.98485219  0.79868981  1
  S  S19  1  0.06063044  0.98815667  0.19054086  1
  S  S20  1  0.41371524  0.98258598  0.97570168  1
  S  S21  1  0.57797097  0.02994824  0.00071673  1
  S  S22  1  0.16319765  0.00397657  0.89412701  1
  S  S23  1  0.82976268  0.98344981  0.10310103  1
  S  S24  1  0.09355098  0.48584833  0.64060507  1
  S  S25  1  0.91029274  0.50115588  0.35307568  1
  S  S26  1  0.73541473  0.99951896  0.30009418  1
  S  S27  1  0.26653185  0.99276339  0.70118517  1
  S  S28  1  0.17236137  0.50789374  0.44191552  1
  S  S29  1  0.81325549  0.51590138  0.53409935  1
  S  S30  1  0.43195389  0.47098285  0.79689967  1
  S  S31  1  0.55800525  0.50854660  0.18212988  1
  S  S32  1  0.91756206  0.51504695  0.98787283  1
  S  S33  1  0.08842377  0.46683578  0.02823292  1
  S  S34  1  0.65926051  0.53670433  0.88418881  1
  S  S35  1  0.33175725  0.47832220  0.10852150  1
  S  S36  1  0.58749907  0.99875707  0.63521941  1
  S  S37  1  0.40560880  0.99491313  0.34424688  1
  S  S38  1  0.24667164  0.50957571  0.31525625  1
  S  S39  1  0.76168737  0.49903603  0.69063199  1
  S  S40  1  0.66502092  0.00264577  0.43879926  1
  S  S41  1  0.32919414  0.95523497  0.54694723  1
