# generated using pymatgen
data_Pr2Mn3(SbS3)4
_symmetry_space_group_name_H-M   'P 1'
_cell_length_a   20.02960800
_cell_length_b   3.90410600
_cell_length_c   14.95364829
_cell_angle_alpha   90.00000000
_cell_angle_beta   126.33350609
_cell_angle_gamma   90.00000000
_symmetry_Int_Tables_number   1
_chemical_formula_structural   Pr2Mn3(SbS3)4
_chemical_formula_sum   'Pr4 Mn6 Sb8 S24'
_cell_volume   942.00006694
_cell_formula_units_Z   2
loop_
 _symmetry_equiv_pos_site_id
 _symmetry_equiv_pos_as_xyz
  1  'x, y, z'
loop_
 _atom_site_type_symbol
 _atom_site_label
 _atom_site_symmetry_multiplicity
 _atom_site_fract_x
 _atom_site_fract_y
 _atom_site_fract_z
 _atom_site_occupancy
  Pr  Pr0  1  0.27406538  0.49428449  0.88058536  1
  Pr  Pr1  1  0.72653982  0.51149610  0.12335805  1
  Pr  Pr2  1  0.76478067  0.02564455  0.87220845  1
  Pr  Pr3  1  0.23222109  0.96174859  0.13150612  1
  Mn  Mn4  1  0.30501877  0.43986881  0.61660099  1
  Mn  Mn5  1  0.68875538  0.45619383  0.35953343  1
  Mn  Mn6  1  0.00407094  0.96334936  0.01186427  1
  Mn  Mn7  1  0.79509891  0.01821198  0.62116790  1
  Mn  Mn8  1  0.20538278  0.03569124  0.38035339  1
  Mn  Mn9  1  0.48875239  0.46446150  0.98838516  1
  Sb  Sb10  1  0.89285194  0.95752599  0.44624278  1
  Sb  Sb11  1  0.11409906  0.98588799  0.54687481  1
  Sb  Sb12  1  0.04259983  0.52900508  0.83332069  1
  Sb  Sb13  1  0.96850614  0.48778467  0.19061481  1
  Sb  Sb14  1  0.40058362  0.50797324  0.44906106  1
  Sb  Sb15  1  0.60908728  0.47980472  0.54451635  1
  Sb  Sb16  1  0.52481761  0.95283569  0.79302759  1
  Sb  Sb17  1  0.46838538  0.02327326  0.18239914  1
  S  S18  1  0.92699823  0.98611094  0.79850417  1
  S  S19  1  0.06068866  0.98810949  0.19070111  1
  S  S20  1  0.41377254  0.98164679  0.97553276  1
  S  S21  1  0.57786385  0.03031963  0.00080057  1
  S  S22  1  0.16320701  0.00499596  0.89401879  1
  S  S23  1  0.82962922  0.98358565  0.10290453  1
  S  S24  1  0.09356510  0.48527592  0.64031333  1
  S  S25  1  0.91062936  0.50171254  0.35355845  1
  S  S26  1  0.73539316  0.99949961  0.29990418  1
  S  S27  1  0.26642263  0.99160066  0.70096934  1
  S  S28  1  0.17224595  0.50682813  0.44170308  1
  S  S29  1  0.81334799  0.51623123  0.53415399  1
  S  S30  1  0.43200905  0.47032426  0.79664465  1
  S  S31  1  0.55808219  0.50827002  0.18205625  1
  S  S32  1  0.91744297  0.51523249  0.98792945  1
  S  S33  1  0.08863739  0.46591275  0.02846090  1
  S  S34  1  0.65945720  0.53678577  0.88447961  1
  S  S35  1  0.33193626  0.47839541  0.10892083  1
  S  S36  1  0.58750330  0.99912100  0.63515877  1
  S  S37  1  0.40590946  0.99468480  0.34401161  1
  S  S38  1  0.24687436  0.50947855  0.31554439  1
  S  S39  1  0.76188291  0.49942175  0.69106263  1
  S  S40  1  0.66506559  0.00121237  0.43867498  1
  S  S41  1  0.32906390  0.95453364  0.54660920  1
