# generated using pymatgen
data_Pr2Mn3(SbS3)4
_symmetry_space_group_name_H-M   'P 1'
_cell_length_a   20.02960800
_cell_length_b   3.90410600
_cell_length_c   14.95364829
_cell_angle_alpha   90.00000000
_cell_angle_beta   126.33350609
_cell_angle_gamma   90.00000000
_symmetry_Int_Tables_number   1
_chemical_formula_structural   Pr2Mn3(SbS3)4
_chemical_formula_sum   'Pr4 Mn6 Sb8 S24'
_cell_volume   942.00006694
_cell_formula_units_Z   2
loop_
 _symmetry_equiv_pos_site_id
 _symmetry_equiv_pos_as_xyz
  1  'x, y, z'
loop_
 _atom_site_type_symbol
 _atom_site_label
 _atom_site_symmetry_multiplicity
 _atom_site_fract_x
 _atom_site_fract_y
 _atom_site_fract_z
 _atom_site_occupancy
  Pr  Pr0  1  0.27389305  0.49403453  0.88044986  1
  Pr  Pr1  1  0.72648825  0.51134574  0.12327620  1
  Pr  Pr2  1  0.76475110  0.02541648  0.87216015  1
  Pr  Pr3  1  0.23227353  0.96215673  0.13142485  1
  Mn  Mn4  1  0.30511361  0.43965520  0.61682800  1
  Mn  Mn5  1  0.68861525  0.45602136  0.35943222  1
  Mn  Mn6  1  0.00410402  0.96323163  0.01191581  1
  Mn  Mn7  1  0.79523025  0.01857593  0.62161426  1
  Mn  Mn8  1  0.20547279  0.03564286  0.38039437  1
  Mn  Mn9  1  0.48872106  0.46489415  0.98839753  1
  Sb  Sb10  1  0.89276183  0.95746211  0.44605131  1
  Sb  Sb11  1  0.11422120  0.98586303  0.54683602  1
  Sb  Sb12  1  0.04266769  0.52895723  0.83327787  1
  Sb  Sb13  1  0.96842249  0.48806540  0.19057464  1
  Sb  Sb14  1  0.40051052  0.50881454  0.44898768  1
  Sb  Sb15  1  0.60916935  0.48012815  0.54463782  1
  Sb  Sb16  1  0.52493317  0.95239663  0.79316827  1
  Sb  Sb17  1  0.46851419  0.02334099  0.18251248  1
  S  S18  1  0.92692615  0.98740577  0.79828542  1
  S  S19  1  0.06074252  0.98796857  0.19078103  1
  S  S20  1  0.41366657  0.98084186  0.97515052  1
  S  S21  1  0.57768543  0.03057277  0.00089204  1
  S  S22  1  0.16325859  0.00606932  0.89408513  1
  S  S23  1  0.82954469  0.98389940  0.10283234  1
  S  S24  1  0.09358778  0.48434423  0.64000971  1
  S  S25  1  0.91082593  0.50188844  0.35377043  1
  S  S26  1  0.73541133  0.99903492  0.29984982  1
  S  S27  1  0.26632950  0.99039785  0.70070787  1
  S  S28  1  0.17212531  0.50597456  0.44136075  1
  S  S29  1  0.81351505  0.51714624  0.53423986  1
  S  S30  1  0.43206915  0.46931152  0.79620644  1
  S  S31  1  0.55817701  0.50861095  0.18196648  1
  S  S32  1  0.91730877  0.51543200  0.98795843  1
  S  S33  1  0.08877911  0.46540317  0.02868200  1
  S  S34  1  0.65962455  0.53694562  0.88477706  1
  S  S35  1  0.33197702  0.47853253  0.10925242  1
  S  S36  1  0.58747096  0.99921656  0.63493564  1
  S  S37  1  0.40604531  0.99413133  0.34350378  1
  S  S38  1  0.24698487  0.50934908  0.31570829  1
  S  S39  1  0.76202649  0.49990309  0.69153213  1
  S  S40  1  0.66502431  0.99969935  0.43852146  1
  S  S41  1  0.32904347  0.95361636  0.54634507  1
