# generated using pymatgen
data_Pr2Mn3(SbS3)4
_symmetry_space_group_name_H-M   'P 1'
_cell_length_a   20.02960800
_cell_length_b   3.90410600
_cell_length_c   14.95364829
_cell_angle_alpha   90.00000000
_cell_angle_beta   126.33350609
_cell_angle_gamma   90.00000000
_symmetry_Int_Tables_number   1
_chemical_formula_structural   Pr2Mn3(SbS3)4
_chemical_formula_sum   'Pr4 Mn6 Sb8 S24'
_cell_volume   942.00006694
_cell_formula_units_Z   2
loop_
 _symmetry_equiv_pos_site_id
 _symmetry_equiv_pos_as_xyz
  1  'x, y, z'
loop_
 _atom_site_type_symbol
 _atom_site_label
 _atom_site_symmetry_multiplicity
 _atom_site_fract_x
 _atom_site_fract_y
 _atom_site_fract_z
 _atom_site_occupancy
  Pr  Pr0  1  0.27372227  0.49376206  0.88032473  1
  Pr  Pr1  1  0.72643008  0.51143575  0.12317241  1
  Pr  Pr2  1  0.76474927  0.02507975  0.87214520  1
  Pr  Pr3  1  0.23229408  0.96232860  0.13132617  1
  Mn  Mn4  1  0.30513920  0.43920489  0.61701125  1
  Mn  Mn5  1  0.68842477  0.45593586  0.35917847  1
  Mn  Mn6  1  0.00407614  0.96342301  0.01190542  1
  Mn  Mn7  1  0.79526791  0.01857164  0.62202982  1
  Mn  Mn8  1  0.20557526  0.03624875  0.38050608  1
  Mn  Mn9  1  0.48867838  0.46559778  0.98844690  1
  Sb  Sb10  1  0.89266563  0.95747670  0.44590326  1
  Sb  Sb11  1  0.11434800  0.98585275  0.54679814  1
  Sb  Sb12  1  0.04271408  0.52870740  0.83315235  1
  Sb  Sb13  1  0.96836679  0.48830562  0.19055336  1
  Sb  Sb14  1  0.40039863  0.50971471  0.44889874  1
  Sb  Sb15  1  0.60921292  0.48051998  0.54472679  1
  Sb  Sb16  1  0.52499854  0.95199067  0.79332879  1
  Sb  Sb17  1  0.46862096  0.02351283  0.18262408  1
  S  S18  1  0.92685924  0.98839294  0.79805233  1
  S  S19  1  0.06086878  0.98748069  0.19100605  1
  S  S20  1  0.41347883  0.98053126  0.97489671  1
  S  S21  1  0.57753476  0.03104947  0.00090135  1
  S  S22  1  0.16331213  0.00685882  0.89424998  1
  S  S23  1  0.82950004  0.98432949  0.10284841  1
  S  S24  1  0.09356800  0.48353330  0.63973794  1
  S  S25  1  0.91099959  0.50112195  0.35407902  1
  S  S26  1  0.73545189  0.99890089  0.29989701  1
  S  S27  1  0.26627205  0.98904047  0.70049237  1
  S  S28  1  0.17201297  0.50494578  0.44110739  1
  S  S29  1  0.81371786  0.51803348  0.53435791  1
  S  S30  1  0.43220439  0.46825232  0.79577965  1
  S  S31  1  0.55821571  0.50841205  0.18188311  1
  S  S32  1  0.91725399  0.51580138  0.98806273  1
  S  S33  1  0.08894130  0.46491885  0.02902749  1
  S  S34  1  0.65982174  0.53699119  0.88515127  1
  S  S35  1  0.33206334  0.47899651  0.10964673  1
  S  S36  1  0.58759732  0.99923357  0.63489740  1
  S  S37  1  0.40620013  0.99363587  0.34311863  1
  S  S38  1  0.24703095  0.50866119  0.31596575  1
  S  S39  1  0.76210862  0.50017794  0.69191126  1
  S  S40  1  0.66503388  0.99832290  0.43832571  1
  S  S41  1  0.32898014  0.95266594  0.54622054  1
