# generated using pymatgen
data_Pr2Mn3(SbS3)4
_symmetry_space_group_name_H-M   'P 1'
_cell_length_a   20.02960800
_cell_length_b   3.90410600
_cell_length_c   14.95364829
_cell_angle_alpha   90.00000000
_cell_angle_beta   126.33350609
_cell_angle_gamma   90.00000000
_symmetry_Int_Tables_number   1
_chemical_formula_structural   Pr2Mn3(SbS3)4
_chemical_formula_sum   'Pr4 Mn6 Sb8 S24'
_cell_volume   942.00006694
_cell_formula_units_Z   2
loop_
 _symmetry_equiv_pos_site_id
 _symmetry_equiv_pos_as_xyz
  1  'x, y, z'
loop_
 _atom_site_type_symbol
 _atom_site_label
 _atom_site_symmetry_multiplicity
 _atom_site_fract_x
 _atom_site_fract_y
 _atom_site_fract_z
 _atom_site_occupancy
  Pr  Pr0  1  0.27358637  0.49340945  0.88020016  1
  Pr  Pr1  1  0.72636358  0.51147401  0.12303414  1
  Pr  Pr2  1  0.76476028  0.02479447  0.87219384  1
  Pr  Pr3  1  0.23225423  0.96232528  0.13120998  1
  Mn  Mn4  1  0.30516512  0.43896712  0.61717725  1
  Mn  Mn5  1  0.68823739  0.45610730  0.35893679  1
  Mn  Mn6  1  0.00406960  0.96331754  0.01197396  1
  Mn  Mn7  1  0.79529614  0.01872799  0.62225832  1
  Mn  Mn8  1  0.20571323  0.03694015  0.38068388  1
  Mn  Mn9  1  0.48862022  0.46603303  0.98851815  1
  Sb  Sb10  1  0.89254554  0.95773830  0.44577756  1
  Sb  Sb11  1  0.11444481  0.98592023  0.54676381  1
  Sb  Sb12  1  0.04276616  0.52844622  0.83305401  1
  Sb  Sb13  1  0.96828492  0.48844635  0.19060048  1
  Sb  Sb14  1  0.40034242  0.51071382  0.44888427  1
  Sb  Sb15  1  0.60929317  0.48068118  0.54481565  1
  Sb  Sb16  1  0.52502223  0.95159436  0.79345290  1
  Sb  Sb17  1  0.46871782  0.02375332  0.18264626  1
  S  S18  1  0.92663817  0.98914051  0.79749965  1
  S  S19  1  0.06088926  0.98678366  0.19114067  1
  S  S20  1  0.41331536  0.98036291  0.97468865  1
  S  S21  1  0.57727181  0.03068210  0.00081472  1
  S  S22  1  0.16333491  0.00767421  0.89441109  1
  S  S23  1  0.82935875  0.98475488  0.10295493  1
  S  S24  1  0.09352663  0.48242134  0.63940937  1
  S  S25  1  0.91117952  0.50037496  0.35451761  1
  S  S26  1  0.73554697  0.99925041  0.29998859  1
  S  S27  1  0.26632137  0.98805758  0.70033306  1
  S  S28  1  0.17193336  0.50436544  0.44076958  1
  S  S29  1  0.81391733  0.51850727  0.53447364  1
  S  S30  1  0.43232542  0.46739456  0.79543955  1
  S  S31  1  0.55825645  0.50834684  0.18181264  1
  S  S32  1  0.91716672  0.51626931  0.98814222  1
  S  S33  1  0.08907891  0.46441825  0.02928786  1
  S  S34  1  0.66007659  0.53678864  0.88556766  1
  S  S35  1  0.33222606  0.47954889  0.11002162  1
  S  S36  1  0.58779715  0.99959281  0.63495363  1
  S  S37  1  0.40627833  0.99304085  0.34260185  1
  S  S38  1  0.24711781  0.50796909  0.31615838  1
  S  S39  1  0.76223795  0.50064006  0.69232413  1
  S  S40  1  0.66499641  0.99673075  0.43821227  1
  S  S41  1  0.32886066  0.95092437  0.54599907  1
