# generated using pymatgen
data_Pr2Mn3(SbS3)4
_symmetry_space_group_name_H-M   'P 1'
_cell_length_a   20.02960800
_cell_length_b   3.90410600
_cell_length_c   14.95364829
_cell_angle_alpha   90.00000000
_cell_angle_beta   126.33350609
_cell_angle_gamma   90.00000000
_symmetry_Int_Tables_number   1
_chemical_formula_structural   Pr2Mn3(SbS3)4
_chemical_formula_sum   'Pr4 Mn6 Sb8 S24'
_cell_volume   942.00006694
_cell_formula_units_Z   2
loop_
 _symmetry_equiv_pos_site_id
 _symmetry_equiv_pos_as_xyz
  1  'x, y, z'
loop_
 _atom_site_type_symbol
 _atom_site_label
 _atom_site_symmetry_multiplicity
 _atom_site_fract_x
 _atom_site_fract_y
 _atom_site_fract_z
 _atom_site_occupancy
  Pr  Pr0  1  0.26187072  0.49213556  0.86622301  1
  Pr  Pr1  1  0.73949952  0.50540359  0.13748214  1
  Pr  Pr2  1  0.76119598  0.00813522  0.86210304  1
  Pr  Pr3  1  0.23900559  0.99113586  0.13911294  1
  Mn  Mn4  1  0.29880718  0.50753014  0.61877888  1
  Mn  Mn5  1  0.69767806  0.50474036  0.38097749  1
  Mn  Mn6  1  0.00180866  0.99986060  0.99875286  1
  Mn  Mn7  1  0.80296616  0.99459605  0.61576648  1
  Mn  Mn8  1  0.19883014  0.98255442  0.37875931  1
  Mn  Mn9  1  0.50232518  0.48543989  0.99849208  1
  Sb  Sb10  1  0.89446620  0.01032411  0.45423276  1
  Sb  Sb11  1  0.10823422  0.98412263  0.55133359  1
  Sb  Sb12  1  0.03806001  0.48698189  0.81533501  1
  Sb  Sb13  1  0.96166329  0.50974696  0.18782866  1
  Sb  Sb14  1  0.39503229  0.48751854  0.45654501  1
  Sb  Sb15  1  0.60712049  0.50225844  0.54947406  1
  Sb  Sb16  1  0.53665429  0.00254670  0.81451595  1
  Sb  Sb17  1  0.46213403  0.00101442  0.18160789  1
  S  S18  1  0.93752288  0.98234425  0.79843955  1
  S  S19  1  0.05942570  0.00103177  0.19104389  1
  S  S20  1  0.40485635  0.98546681  0.97867398  1
  S  S21  1  0.59415084  0.99562327  0.01572461  1
  S  S22  1  0.17144084  0.98550428  0.90293566  1
  S  S23  1  0.82813121  0.01424332  0.10577249  1
  S  S24  1  0.08517797  0.49077273  0.64544555  1
  S  S25  1  0.91276123  0.48297848  0.35815113  1
  S  S26  1  0.74370082  0.95607617  0.29649718  1
  S  S27  1  0.25538290  0.00458425  0.70059846  1
  S  S28  1  0.16097137  0.49381594  0.44592289  1
  S  S29  1  0.83055922  0.49234836  0.54759655  1
  S  S30  1  0.43542574  0.51050902  0.79833921  1
  S  S31  1  0.56000028  0.49940860  0.19348458  1
  S  S32  1  0.90145189  0.47796248  0.97618853  1
  S  S33  1  0.09046664  0.48203158  0.01736529  1
  S  S34  1  0.66558415  0.50130495  0.89626062  1
  S  S35  1  0.33217585  0.51355370  0.10174135  1
  S  S36  1  0.59213429  0.01554446  0.64974549  1
  S  S37  1  0.41330130  0.98337164  0.35804446  1
  S  S38  1  0.24326891  0.47262577  0.29750410  1
  S  S39  1  0.76383628  0.50667172  0.70234422  1
  S  S40  1  0.66489458  0.00743014  0.46152221  1
  S  S41  1  0.33370930  0.98500763  0.54193096  1
