# generated using pymatgen
data_Pr2Mn3(SbS3)4
_symmetry_space_group_name_H-M   'P 1'
_cell_length_a   20.02960800
_cell_length_b   3.90410600
_cell_length_c   14.95364829
_cell_angle_alpha   90.00000000
_cell_angle_beta   126.33350609
_cell_angle_gamma   90.00000000
_symmetry_Int_Tables_number   1
_chemical_formula_structural   Pr2Mn3(SbS3)4
_chemical_formula_sum   'Pr4 Mn6 Sb8 S24'
_cell_volume   942.00006694
_cell_formula_units_Z   2
loop_
 _symmetry_equiv_pos_site_id
 _symmetry_equiv_pos_as_xyz
  1  'x, y, z'
loop_
 _atom_site_type_symbol
 _atom_site_label
 _atom_site_symmetry_multiplicity
 _atom_site_fract_x
 _atom_site_fract_y
 _atom_site_fract_z
 _atom_site_occupancy
  Pr  Pr0  1  0.27348715  0.49323097  0.88012236  1
  Pr  Pr1  1  0.72626338  0.51141009  0.12291897  1
  Pr  Pr2  1  0.76475276  0.02465227  0.87224729  1
  Pr  Pr3  1  0.23223301  0.96207331  0.13116214  1
  Mn  Mn4  1  0.30515797  0.43880852  0.61726633  1
  Mn  Mn5  1  0.68803635  0.45637020  0.35869827  1
  Mn  Mn6  1  0.00413600  0.96305638  0.01210934  1
  Mn  Mn7  1  0.79520420  0.01870150  0.62240221  1
  Mn  Mn8  1  0.20590359  0.03742786  0.38088454  1
  Mn  Mn9  1  0.48852890  0.46651400  0.98857860  1
  Sb  Sb10  1  0.89243406  0.95799451  0.44562334  1
  Sb  Sb11  1  0.11457082  0.98582126  0.54668233  1
  Sb  Sb12  1  0.04274578  0.52821541  0.83288869  1
  Sb  Sb13  1  0.96820350  0.48863176  0.19061636  1
  Sb  Sb14  1  0.40032816  0.51182974  0.44889232  1
  Sb  Sb15  1  0.60931238  0.48051798  0.54487315  1
  Sb  Sb16  1  0.52507160  0.95128455  0.79363252  1
  Sb  Sb17  1  0.46885678  0.02425720  0.18269812  1
  S  S18  1  0.92640875  0.98993609  0.79697092  1
  S  S19  1  0.06097735  0.98578250  0.19142339  1
  S  S20  1  0.41314898  0.98033083  0.97451952  1
  S  S21  1  0.57695820  0.03033108  0.00063768  1
  S  S22  1  0.16357899  0.00832121  0.89465773  1
  S  S23  1  0.82936951  0.98508033  0.10327846  1
  S  S24  1  0.09350703  0.48184504  0.63918415  1
  S  S25  1  0.91123187  0.49961012  0.35480745  1
  S  S26  1  0.73570530  0.99981330  0.30024648  1
  S  S27  1  0.26623064  0.98685946  0.70014032  1
  S  S28  1  0.17193165  0.50326746  0.44055699  1
  S  S29  1  0.81402337  0.51890022  0.53442940  1
  S  S30  1  0.43226214  0.46620675  0.79486913  1
  S  S31  1  0.55823140  0.50874851  0.18181662  1
  S  S32  1  0.91712740  0.51689954  0.98833025  1
  S  S33  1  0.08920399  0.46435970  0.02946041  1
  S  S34  1  0.66028719  0.53629288  0.88598689  1
  S  S35  1  0.33238804  0.48080318  0.11042547  1
  S  S36  1  0.58792851  0.00035474  0.63490044  1
  S  S37  1  0.40635442  0.99251489  0.34224372  1
  S  S38  1  0.24715132  0.50726631  0.31619265  1
  S  S39  1  0.76244048  0.50156375  0.69279589  1
  S  S40  1  0.66501088  0.99534702  0.43821577  1
  S  S41  1  0.32882191  0.94959980  0.54596129  1
