# generated using pymatgen
data_Pr2Mn3(SbS3)4
_symmetry_space_group_name_H-M   'P 1'
_cell_length_a   20.02960800
_cell_length_b   3.90410600
_cell_length_c   14.95364829
_cell_angle_alpha   90.00000000
_cell_angle_beta   126.33350609
_cell_angle_gamma   90.00000000
_symmetry_Int_Tables_number   1
_chemical_formula_structural   Pr2Mn3(SbS3)4
_chemical_formula_sum   'Pr4 Mn6 Sb8 S24'
_cell_volume   942.00006694
_cell_formula_units_Z   2
loop_
 _symmetry_equiv_pos_site_id
 _symmetry_equiv_pos_as_xyz
  1  'x, y, z'
loop_
 _atom_site_type_symbol
 _atom_site_label
 _atom_site_symmetry_multiplicity
 _atom_site_fract_x
 _atom_site_fract_y
 _atom_site_fract_z
 _atom_site_occupancy
  Pr  Pr0  1  0.27341890  0.49322385  0.88000629  1
  Pr  Pr1  1  0.72617492  0.51135392  0.12276485  1
  Pr  Pr2  1  0.76476087  0.02443922  0.87232730  1
  Pr  Pr3  1  0.23219693  0.96165532  0.13116203  1
  Mn  Mn4  1  0.30517331  0.43848885  0.61728074  1
  Mn  Mn5  1  0.68789495  0.45653303  0.35853120  1
  Mn  Mn6  1  0.00419030  0.96301883  0.01213739  1
  Mn  Mn7  1  0.79514865  0.01869577  0.62250464  1
  Mn  Mn8  1  0.20612565  0.03799726  0.38117150  1
  Mn  Mn9  1  0.48839908  0.46694055  0.98860849  1
  Sb  Sb10  1  0.89229820  0.95788329  0.44550033  1
  Sb  Sb11  1  0.11467596  0.98588946  0.54667756  1
  Sb  Sb12  1  0.04266616  0.52821458  0.83270144  1
  Sb  Sb13  1  0.96819179  0.48868427  0.19066533  1
  Sb  Sb14  1  0.40036912  0.51274549  0.44899903  1
  Sb  Sb15  1  0.60931836  0.48044875  0.54495127  1
  Sb  Sb16  1  0.52509984  0.95134681  0.79382779  1
  Sb  Sb17  1  0.46901086  0.02486290  0.18269768  1
  S  S18  1  0.92607639  0.99085464  0.79636555  1
  S  S19  1  0.06106397  0.98460988  0.19168327  1
  S  S20  1  0.41296829  0.98037076  0.97441340  1
  S  S21  1  0.57686617  0.02950190  0.00069000  1
  S  S22  1  0.16387280  0.00908390  0.89494660  1
  S  S23  1  0.82942124  0.98527533  0.10375498  1
  S  S24  1  0.09330766  0.48101947  0.63889770  1
  S  S25  1  0.91120431  0.49874860  0.35491540  1
  S  S26  1  0.73583923  0.00056400  0.30046848  1
  S  S27  1  0.26607779  0.98636132  0.69995217  1
  S  S28  1  0.17192916  0.50211674  0.44037265  1
  S  S29  1  0.81418091  0.51855849  0.53443479  1
  S  S30  1  0.43220546  0.46525016  0.79444667  1
  S  S31  1  0.55806253  0.50888841  0.18176223  1
  S  S32  1  0.91700806  0.51707653  0.98835584  1
  S  S33  1  0.08931753  0.46472827  0.02953997  1
  S  S34  1  0.66049558  0.53557171  0.88643103  1
  S  S35  1  0.33253130  0.48204764  0.11082304  1
  S  S36  1  0.58814821  0.00099936  0.63486074  1
  S  S37  1  0.40651997  0.99192704  0.34193664  1
  S  S38  1  0.24724529  0.50630825  0.31645629  1
  S  S39  1  0.76270047  0.50180861  0.69327265  1
  S  S40  1  0.66498027  0.99399979  0.43818495  1
  S  S41  1  0.32878311  0.94863898  0.54596320  1
