# generated using pymatgen
data_Pr2Mn3(SbS3)4
_symmetry_space_group_name_H-M   'P 1'
_cell_length_a   20.02960800
_cell_length_b   3.90410600
_cell_length_c   14.95364829
_cell_angle_alpha   90.00000000
_cell_angle_beta   126.33350609
_cell_angle_gamma   90.00000000
_symmetry_Int_Tables_number   1
_chemical_formula_structural   Pr2Mn3(SbS3)4
_chemical_formula_sum   'Pr4 Mn6 Sb8 S24'
_cell_volume   942.00006694
_cell_formula_units_Z   2
loop_
 _symmetry_equiv_pos_site_id
 _symmetry_equiv_pos_as_xyz
  1  'x, y, z'
loop_
 _atom_site_type_symbol
 _atom_site_label
 _atom_site_symmetry_multiplicity
 _atom_site_fract_x
 _atom_site_fract_y
 _atom_site_fract_z
 _atom_site_occupancy
  Pr  Pr0  1  0.27333576  0.49315429  0.87992651  1
  Pr  Pr1  1  0.72613253  0.51140685  0.12266317  1
  Pr  Pr2  1  0.76474022  0.02448287  0.87235860  1
  Pr  Pr3  1  0.23217234  0.96138132  0.13119567  1
  Mn  Mn4  1  0.30533869  0.43803212  0.61740540  1
  Mn  Mn5  1  0.68771968  0.45683812  0.35835422  1
  Mn  Mn6  1  0.00431249  0.96300574  0.01217221  1
  Mn  Mn7  1  0.79515341  0.01880995  0.62271881  1
  Mn  Mn8  1  0.20627513  0.03877823  0.38147994  1
  Mn  Mn9  1  0.48823740  0.46738982  0.98854091  1
  Sb  Sb10  1  0.89217177  0.95781556  0.44528782  1
  Sb  Sb11  1  0.11481225  0.98582573  0.54668913  1
  Sb  Sb12  1  0.04259897  0.52826386  0.83255606  1
  Sb  Sb13  1  0.96821474  0.48894397  0.19081809  1
  Sb  Sb14  1  0.40047033  0.51355839  0.44914531  1
  Sb  Sb15  1  0.60935677  0.48041221  0.54501939  1
  Sb  Sb16  1  0.52516261  0.95154977  0.79401820  1
  Sb  Sb17  1  0.46918996  0.02557375  0.18281731  1
  S  S18  1  0.92585756  0.99187033  0.79581902  1
  S  S19  1  0.06106374  0.98383850  0.19192629  1
  S  S20  1  0.41271484  0.98050368  0.97409867  1
  S  S21  1  0.57677617  0.02873131  0.00071918  1
  S  S22  1  0.16420063  0.00984460  0.89530695  1
  S  S23  1  0.82949572  0.98532886  0.10434754  1
  S  S24  1  0.09314609  0.48036423  0.63878921  1
  S  S25  1  0.91128499  0.49783084  0.35499745  1
  S  S26  1  0.73594080  0.00112015  0.30054487  1
  S  S27  1  0.26584512  0.98582158  0.69974787  1
  S  S28  1  0.17205540  0.50109326  0.44031440  1
  S  S29  1  0.81439757  0.51817555  0.53459310  1
  S  S30  1  0.43212908  0.46490754  0.79391696  1
  S  S31  1  0.55776900  0.50839039  0.18142822  1
  S  S32  1  0.91699713  0.51678672  0.98852844  1
  S  S33  1  0.08944024  0.46529030  0.02959435  1
  S  S34  1  0.66071422  0.53513392  0.88676689  1
  S  S35  1  0.33259595  0.48345347  0.11104424  1
  S  S36  1  0.58836616  0.00145382  0.63485163  1
  S  S37  1  0.40673608  0.99118388  0.34157405  1
  S  S38  1  0.24724577  0.50527860  0.31671593  1
  S  S39  1  0.76294188  0.50204906  0.69365852  1
  S  S40  1  0.66480964  0.99321493  0.43799139  1
  S  S41  1  0.32869327  0.94823923  0.54578114  1
