# generated using pymatgen
data_Pr2Mn3(SbS3)4
_symmetry_space_group_name_H-M   'P 1'
_cell_length_a   20.02960800
_cell_length_b   3.90410600
_cell_length_c   14.95364829
_cell_angle_alpha   90.00000000
_cell_angle_beta   126.33350609
_cell_angle_gamma   90.00000000
_symmetry_Int_Tables_number   1
_chemical_formula_structural   Pr2Mn3(SbS3)4
_chemical_formula_sum   'Pr4 Mn6 Sb8 S24'
_cell_volume   942.00006694
_cell_formula_units_Z   2
loop_
 _symmetry_equiv_pos_site_id
 _symmetry_equiv_pos_as_xyz
  1  'x, y, z'
loop_
 _atom_site_type_symbol
 _atom_site_label
 _atom_site_symmetry_multiplicity
 _atom_site_fract_x
 _atom_site_fract_y
 _atom_site_fract_z
 _atom_site_occupancy
  Pr  Pr0  1  0.27324750  0.49317580  0.87991112  1
  Pr  Pr1  1  0.72610042  0.51152798  0.12258109  1
  Pr  Pr2  1  0.76470364  0.02443066  0.87233511  1
  Pr  Pr3  1  0.23215014  0.96123769  0.13121680  1
  Mn  Mn4  1  0.30553949  0.43776878  0.61752193  1
  Mn  Mn5  1  0.68758638  0.45722184  0.35816613  1
  Mn  Mn6  1  0.00439535  0.96255251  0.01222964  1
  Mn  Mn7  1  0.79516630  0.01858141  0.62285374  1
  Mn  Mn8  1  0.20646591  0.03957907  0.38186175  1
  Mn  Mn9  1  0.48800863  0.46791990  0.98836104  1
  Sb  Sb10  1  0.89207849  0.95758878  0.44516897  1
  Sb  Sb11  1  0.11494204  0.98570786  0.54676261  1
  Sb  Sb12  1  0.04252966  0.52822521  0.83235483  1
  Sb  Sb13  1  0.96828980  0.48929186  0.19096311  1
  Sb  Sb14  1  0.40057449  0.51445968  0.44934976  1
  Sb  Sb15  1  0.60935090  0.48039409  0.54500282  1
  Sb  Sb16  1  0.52515892  0.95172774  0.79414242  1
  Sb  Sb17  1  0.46931174  0.02620114  0.18292713  1
  S  S18  1  0.92577611  0.99301464  0.79538474  1
  S  S19  1  0.06115360  0.98305252  0.19228763  1
  S  S20  1  0.41250360  0.98080634  0.97385881  1
  S  S21  1  0.57662866  0.02764147  0.00068184  1
  S  S22  1  0.16456840  0.01088979  0.89572880  1
  S  S23  1  0.82949649  0.98535634  0.10485385  1
  S  S24  1  0.09320620  0.47951223  0.63874173  1
  S  S25  1  0.91130797  0.49718861  0.35510775  1
  S  S26  1  0.73598241  0.00189525  0.30057065  1
  S  S27  1  0.26560764  0.98545201  0.69952565  1
  S  S28  1  0.17212201  0.50040636  0.44028907  1
  S  S29  1  0.81450154  0.51738744  0.53466653  1
  S  S30  1  0.43228360  0.46441998  0.79349787  1
  S  S31  1  0.55755051  0.50810400  0.18117114  1
  S  S32  1  0.91704448  0.51660737  0.98874056  1
  S  S33  1  0.08949259  0.46581166  0.02968867  1
  S  S34  1  0.66091944  0.53477932  0.88706715  1
  S  S35  1  0.33263375  0.48463838  0.11119475  1
  S  S36  1  0.58862062  0.00185575  0.63489000  1
  S  S37  1  0.40704566  0.99107016  0.34129507  1
  S  S38  1  0.24731617  0.50428174  0.31692718  1
  S  S39  1  0.76317902  0.50239733  0.69395180  1
  S  S40  1  0.66471326  0.99273694  0.43798603  1
  S  S41  1  0.32864985  0.94784240  0.54554268  1
