# generated using pymatgen
data_Pr2Mn3(SbS3)4
_symmetry_space_group_name_H-M   'P 1'
_cell_length_a   20.02960800
_cell_length_b   3.90410600
_cell_length_c   14.95364829
_cell_angle_alpha   90.00000000
_cell_angle_beta   126.33350609
_cell_angle_gamma   90.00000000
_symmetry_Int_Tables_number   1
_chemical_formula_structural   Pr2Mn3(SbS3)4
_chemical_formula_sum   'Pr4 Mn6 Sb8 S24'
_cell_volume   942.00006694
_cell_formula_units_Z   2
loop_
 _symmetry_equiv_pos_site_id
 _symmetry_equiv_pos_as_xyz
  1  'x, y, z'
loop_
 _atom_site_type_symbol
 _atom_site_label
 _atom_site_symmetry_multiplicity
 _atom_site_fract_x
 _atom_site_fract_y
 _atom_site_fract_z
 _atom_site_occupancy
  Pr  Pr0  1  0.27319190  0.49299117  0.87985421  1
  Pr  Pr1  1  0.72604483  0.51159567  0.12250196  1
  Pr  Pr2  1  0.76470079  0.02415242  0.87233307  1
  Pr  Pr3  1  0.23215100  0.96113174  0.13131159  1
  Mn  Mn4  1  0.30562640  0.43777768  0.61756097  1
  Mn  Mn5  1  0.68749694  0.45730183  0.35804551  1
  Mn  Mn6  1  0.00458906  0.96199643  0.01240154  1
  Mn  Mn7  1  0.79516247  0.01804779  0.62298102  1
  Mn  Mn8  1  0.20653937  0.04039648  0.38218724  1
  Mn  Mn9  1  0.48777106  0.46819543  0.98819333  1
  Sb  Sb10  1  0.89204083  0.95760976  0.44515393  1
  Sb  Sb11  1  0.11500262  0.98561387  0.54674021  1
  Sb  Sb12  1  0.04246239  0.52796616  0.83215734  1
  Sb  Sb13  1  0.96830220  0.48970039  0.19108661  1
  Sb  Sb14  1  0.40070397  0.51502505  0.44950007  1
  Sb  Sb15  1  0.60930592  0.48047508  0.54494408  1
  Sb  Sb16  1  0.52521084  0.95196326  0.79430643  1
  Sb  Sb17  1  0.46941570  0.02650602  0.18302083  1
  S  S18  1  0.92559350  0.99440432  0.79496477  1
  S  S19  1  0.06120499  0.98242651  0.19260179  1
  S  S20  1  0.41230009  0.98137268  0.97367439  1
  S  S21  1  0.57644709  0.02660195  0.00077206  1
  S  S22  1  0.16485624  0.01170700  0.89613900  1
  S  S23  1  0.82940195  0.98490209  0.10532463  1
  S  S24  1  0.09315872  0.47908748  0.63862509  1
  S  S25  1  0.91137676  0.49658970  0.35526230  1
  S  S26  1  0.73596504  0.00247407  0.30050394  1
  S  S27  1  0.26551742  0.98517585  0.69956646  1
  S  S28  1  0.17225601  0.50012762  0.44038309  1
  S  S29  1  0.81457992  0.51657715  0.53468625  1
  S  S30  1  0.43241293  0.46404808  0.79306652  1
  S  S31  1  0.55733907  0.50833539  0.18087239  1
  S  S32  1  0.91709386  0.51629438  0.98894886  1
  S  S33  1  0.08943087  0.46566823  0.02970070  1
  S  S34  1  0.66116446  0.53409147  0.88740008  1
  S  S35  1  0.33263714  0.48601080  0.11142226  1
  S  S36  1  0.58883606  0.00233642  0.63499765  1
  S  S37  1  0.40726174  0.99114388  0.34093879  1
  S  S38  1  0.24733596  0.50300974  0.31705651  1
  S  S39  1  0.76326764  0.50251872  0.69415100  1
  S  S40  1  0.66460746  0.99248341  0.43805477  1
  S  S41  1  0.32857718  0.94768402  0.54526800  1
