# generated using pymatgen
data_Pr2Mn3(SbS3)4
_symmetry_space_group_name_H-M   'P 1'
_cell_length_a   20.02960800
_cell_length_b   3.90410600
_cell_length_c   14.95364829
_cell_angle_alpha   90.00000000
_cell_angle_beta   126.33350609
_cell_angle_gamma   90.00000000
_symmetry_Int_Tables_number   1
_chemical_formula_structural   Pr2Mn3(SbS3)4
_chemical_formula_sum   'Pr4 Mn6 Sb8 S24'
_cell_volume   942.00006694
_cell_formula_units_Z   2
loop_
 _symmetry_equiv_pos_site_id
 _symmetry_equiv_pos_as_xyz
  1  'x, y, z'
loop_
 _atom_site_type_symbol
 _atom_site_label
 _atom_site_symmetry_multiplicity
 _atom_site_fract_x
 _atom_site_fract_y
 _atom_site_fract_z
 _atom_site_occupancy
  Pr  Pr0  1  0.27309323  0.49288441  0.87976672  1
  Pr  Pr1  1  0.72598795  0.51182419  0.12242570  1
  Pr  Pr2  1  0.76475695  0.02389442  0.87244516  1
  Pr  Pr3  1  0.23216412  0.96102726  0.13136319  1
  Mn  Mn4  1  0.30562588  0.43782128  0.61750316  1
  Mn  Mn5  1  0.68743509  0.45749855  0.35799319  1
  Mn  Mn6  1  0.00476039  0.96173869  0.01251191  1
  Mn  Mn7  1  0.79514433  0.01777547  0.62306083  1
  Mn  Mn8  1  0.20661623  0.04129502  0.38251043  1
  Mn  Mn9  1  0.48752209  0.46826330  0.98790487  1
  Sb  Sb10  1  0.89199015  0.95760656  0.44515178  1
  Sb  Sb11  1  0.11505285  0.98563557  0.54671182  1
  Sb  Sb12  1  0.04240125  0.52783097  0.83195051  1
  Sb  Sb13  1  0.96831776  0.48998796  0.19116478  1
  Sb  Sb14  1  0.40077434  0.51571745  0.44958045  1
  Sb  Sb15  1  0.60925622  0.48057994  0.54480903  1
  Sb  Sb16  1  0.52524896  0.95219505  0.79444570  1
  Sb  Sb17  1  0.46950802  0.02730723  0.18312605  1
  S  S18  1  0.92550849  0.99558131  0.79461035  1
  S  S19  1  0.06128061  0.98147474  0.19282423  1
  S  S20  1  0.41193874  0.98187752  0.97317833  1
  S  S21  1  0.57628669  0.02552217  0.00081167  1
  S  S22  1  0.16508808  0.01231290  0.89638852  1
  S  S23  1  0.82927315  0.98397545  0.10557079  1
  S  S24  1  0.09314602  0.47944017  0.63858476  1
  S  S25  1  0.91137696  0.49631040  0.35529059  1
  S  S26  1  0.73590601  0.00345183  0.30036815  1
  S  S27  1  0.26546730  0.98504517  0.69960905  1
  S  S28  1  0.17232422  0.50045879  0.44038025  1
  S  S29  1  0.81463058  0.51590459  0.53464294  1
  S  S30  1  0.43255607  0.46420585  0.79273105  1
  S  S31  1  0.55714406  0.50864633  0.18052132  1
  S  S32  1  0.91736988  0.51575300  0.98933077  1
  S  S33  1  0.08926813  0.46560931  0.02961552  1
  S  S34  1  0.66142052  0.53296735  0.88761711  1
  S  S35  1  0.33249769  0.48642769  0.11151157  1
  S  S36  1  0.58911015  0.00287845  0.63527674  1
  S  S37  1  0.40745460  0.99160660  0.34054672  1
  S  S38  1  0.24728245  0.50213675  0.31711874  1
  S  S39  1  0.76319880  0.50263571  0.69429182  1
  S  S40  1  0.66457120  0.99178507  0.43814724  1
  S  S41  1  0.32849569  0.94770377  0.54501836  1
