# generated using pymatgen
data_Pr2Mn3(SbS3)4
_symmetry_space_group_name_H-M   'P 1'
_cell_length_a   20.02960800
_cell_length_b   3.90410600
_cell_length_c   14.95364829
_cell_angle_alpha   90.00000000
_cell_angle_beta   126.33350609
_cell_angle_gamma   90.00000000
_symmetry_Int_Tables_number   1
_chemical_formula_structural   Pr2Mn3(SbS3)4
_chemical_formula_sum   'Pr4 Mn6 Sb8 S24'
_cell_volume   942.00006694
_cell_formula_units_Z   2
loop_
 _symmetry_equiv_pos_site_id
 _symmetry_equiv_pos_as_xyz
  1  'x, y, z'
loop_
 _atom_site_type_symbol
 _atom_site_label
 _atom_site_symmetry_multiplicity
 _atom_site_fract_x
 _atom_site_fract_y
 _atom_site_fract_z
 _atom_site_occupancy
  Pr  Pr0  1  0.27304727  0.49287740  0.87977576  1
  Pr  Pr1  1  0.72596821  0.51200352  0.12235314  1
  Pr  Pr2  1  0.76484558  0.02363773  0.87261953  1
  Pr  Pr3  1  0.23214249  0.96086003  0.13137450  1
  Mn  Mn4  1  0.30553187  0.43813703  0.61737074  1
  Mn  Mn5  1  0.68735061  0.45806095  0.35789943  1
  Mn  Mn6  1  0.00490308  0.96153908  0.01250475  1
  Mn  Mn7  1  0.79516179  0.01780725  0.62309165  1
  Mn  Mn8  1  0.20671811  0.04198330  0.38284701  1
  Mn  Mn9  1  0.48733621  0.46843002  0.98762166  1
  Sb  Sb10  1  0.89191617  0.95742071  0.44510671  1
  Sb  Sb11  1  0.11511721  0.98550787  0.54673880  1
  Sb  Sb12  1  0.04232605  0.52785058  0.83171365  1
  Sb  Sb13  1  0.96835967  0.49004152  0.19121337  1
  Sb  Sb14  1  0.40085152  0.51640882  0.44964819  1
  Sb  Sb15  1  0.60921816  0.48064426  0.54467628  1
  Sb  Sb16  1  0.52528343  0.95227744  0.79460222  1
  Sb  Sb17  1  0.46956000  0.02819538  0.18325810  1
  S  S18  1  0.92533241  0.99651361  0.79430248  1
  S  S19  1  0.06126690  0.98064274  0.19299029  1
  S  S20  1  0.41157827  0.98198251  0.97260935  1
  S  S21  1  0.57606749  0.02428606  0.00083338  1
  S  S22  1  0.16523649  0.01264567  0.89645088  1
  S  S23  1  0.82909587  0.98325705  0.10578963  1
  S  S24  1  0.09334018  0.47947851  0.63867677  1
  S  S25  1  0.91138590  0.49659073  0.35530766  1
  S  S26  1  0.73592472  0.00461605  0.30040575  1
  S  S27  1  0.26549606  0.98456937  0.69981373  1
  S  S28  1  0.17254521  0.50035362  0.44045556  1
  S  S29  1  0.81469937  0.51516339  0.53472736  1
  S  S30  1  0.43262995  0.46432598  0.79219910  1
  S  S31  1  0.55694994  0.50910464  0.18001025  1
  S  S32  1  0.91758830  0.51572220  0.98961426  1
  S  S33  1  0.08903498  0.46615635  0.02969358  1
  S  S34  1  0.66170177  0.53210404  0.88788106  1
  S  S35  1  0.33240885  0.48725870  0.11155825  1
  S  S36  1  0.58942298  0.00354974  0.63541969  1
  S  S37  1  0.40762127  0.99230314  0.34027027  1
  S  S38  1  0.24719785  0.50136852  0.31702815  1
  S  S39  1  0.76329381  0.50305755  0.69447731  1
  S  S40  1  0.66456476  0.99126597  0.43825251  1
  S  S41  1  0.32839260  0.94770485  0.54471526  1
