# generated using pymatgen
data_Pr2Mn3(SbS3)4
_symmetry_space_group_name_H-M   'P 1'
_cell_length_a   20.02960800
_cell_length_b   3.90410600
_cell_length_c   14.95364829
_cell_angle_alpha   90.00000000
_cell_angle_beta   126.33350609
_cell_angle_gamma   90.00000000
_symmetry_Int_Tables_number   1
_chemical_formula_structural   Pr2Mn3(SbS3)4
_chemical_formula_sum   'Pr4 Mn6 Sb8 S24'
_cell_volume   942.00006694
_cell_formula_units_Z   2
loop_
 _symmetry_equiv_pos_site_id
 _symmetry_equiv_pos_as_xyz
  1  'x, y, z'
loop_
 _atom_site_type_symbol
 _atom_site_label
 _atom_site_symmetry_multiplicity
 _atom_site_fract_x
 _atom_site_fract_y
 _atom_site_fract_z
 _atom_site_occupancy
  Pr  Pr0  1  0.27301816  0.49299855  0.87979509  1
  Pr  Pr1  1  0.72604785  0.51197933  0.12241367  1
  Pr  Pr2  1  0.76494605  0.02341454  0.87282349  1
  Pr  Pr3  1  0.23204748  0.96063688  0.13127798  1
  Mn  Mn4  1  0.30548557  0.43844305  0.61730965  1
  Mn  Mn5  1  0.68738428  0.45842919  0.35803859  1
  Mn  Mn6  1  0.00495594  0.96154940  0.01238026  1
  Mn  Mn7  1  0.79521805  0.01775476  0.62323364  1
  Mn  Mn8  1  0.20668171  0.04225151  0.38313169  1
  Mn  Mn9  1  0.48711734  0.46838001  0.98719383  1
  Sb  Sb10  1  0.89185971  0.95721948  0.44502330  1
  Sb  Sb11  1  0.11514202  0.98521184  0.54672862  1
  Sb  Sb12  1  0.04226875  0.52756560  0.83145912  1
  Sb  Sb13  1  0.96841600  0.49014420  0.19134224  1
  Sb  Sb14  1  0.40083200  0.51703245  0.44962506  1
  Sb  Sb15  1  0.60920943  0.48073640  0.54460112  1
  Sb  Sb16  1  0.52526969  0.95258646  0.79472321  1
  Sb  Sb17  1  0.46962397  0.02890494  0.18339768  1
  S  S18  1  0.92521316  0.99803449  0.79408931  1
  S  S19  1  0.06125315  0.97972548  0.19310922  1
  S  S20  1  0.41109139  0.98221343  0.97192076  1
  S  S21  1  0.57584363  0.02302486  0.00087381  1
  S  S22  1  0.16528415  0.01291113  0.89628821  1
  S  S23  1  0.82893330  0.98267841  0.10596613  1
  S  S24  1  0.09338263  0.47909031  0.63859576  1
  S  S25  1  0.91158483  0.49680980  0.35540979  1
  S  S26  1  0.73585931  0.00593513  0.30056047  1
  S  S27  1  0.26554113  0.98388551  0.70002168  1
  S  S28  1  0.17282583  0.50027827  0.44067597  1
  S  S29  1  0.81460606  0.51386874  0.53473660  1
  S  S30  1  0.43273643  0.46438969  0.79183176  1
  S  S31  1  0.55669472  0.50987682  0.17966501  1
  S  S32  1  0.91770871  0.51597099  0.98984121  1
  S  S33  1  0.08875559  0.46664858  0.02967247  1
  S  S34  1  0.66205237  0.53150603  0.88819229  1
  S  S35  1  0.33233764  0.48753834  0.11167698  1
  S  S36  1  0.58970265  0.00384662  0.63552358  1
  S  S37  1  0.40786440  0.99245305  0.34017161  1
  S  S38  1  0.24713771  0.50067634  0.31684888  1
  S  S39  1  0.76346528  0.50291137  0.69484335  1
  S  S40  1  0.66454719  0.99092542  0.43833428  1
  S  S41  1  0.32822060  0.94766456  0.54448930  1
