# generated using pymatgen
data_Pr2Mn3(SbS3)4
_symmetry_space_group_name_H-M   'P 1'
_cell_length_a   20.02960800
_cell_length_b   3.90410600
_cell_length_c   14.95364829
_cell_angle_alpha   90.00000000
_cell_angle_beta   126.33350609
_cell_angle_gamma   90.00000000
_symmetry_Int_Tables_number   1
_chemical_formula_structural   Pr2Mn3(SbS3)4
_chemical_formula_sum   'Pr4 Mn6 Sb8 S24'
_cell_volume   942.00006694
_cell_formula_units_Z   2
loop_
 _symmetry_equiv_pos_site_id
 _symmetry_equiv_pos_as_xyz
  1  'x, y, z'
loop_
 _atom_site_type_symbol
 _atom_site_label
 _atom_site_symmetry_multiplicity
 _atom_site_fract_x
 _atom_site_fract_y
 _atom_site_fract_z
 _atom_site_occupancy
  Pr  Pr0  1  0.27300574  0.49318400  0.87981077  1
  Pr  Pr1  1  0.72615470  0.51216457  0.12247034  1
  Pr  Pr2  1  0.76508618  0.02321795  0.87300493  1
  Pr  Pr3  1  0.23197093  0.96047649  0.13120419  1
  Mn  Mn4  1  0.30544735  0.43858601  0.61728580  1
  Mn  Mn5  1  0.68738032  0.45891194  0.35809931  1
  Mn  Mn6  1  0.00499162  0.96144079  0.01223317  1
  Mn  Mn7  1  0.79520088  0.01798500  0.62327807  1
  Mn  Mn8  1  0.20661832  0.04239851  0.38344210  1
  Mn  Mn9  1  0.48694783  0.46807009  0.98679967  1
  Sb  Sb10  1  0.89175112  0.95730753  0.44488257  1
  Sb  Sb11  1  0.11517078  0.98513924  0.54668305  1
  Sb  Sb12  1  0.04226999  0.52716818  0.83124775  1
  Sb  Sb13  1  0.96852597  0.49022185  0.19160465  1
  Sb  Sb14  1  0.40079825  0.51781235  0.44959383  1
  Sb  Sb15  1  0.60917265  0.48076463  0.54447702  1
  Sb  Sb16  1  0.52521304  0.95304423  0.79480940  1
  Sb  Sb17  1  0.46970621  0.02995989  0.18351355  1
  S  S18  1  0.92517347  0.99980479  0.79391818  1
  S  S19  1  0.06119455  0.97877280  0.19307143  1
  S  S20  1  0.41062783  0.98239021  0.97129116  1
  S  S21  1  0.57564080  0.02241775  0.00095744  1
  S  S22  1  0.16531343  0.01313451  0.89610098  1
  S  S23  1  0.82875228  0.98196114  0.10606752  1
  S  S24  1  0.09331271  0.47911129  0.63853389  1
  S  S25  1  0.91170867  0.49677790  0.35549418  1
  S  S26  1  0.73575367  0.00718090  0.30072752  1
  S  S27  1  0.26563611  0.98340968  0.70013871  1
  S  S28  1  0.17314757  0.49935317  0.44113430  1
  S  S29  1  0.81459045  0.51253280  0.53480426  1
  S  S30  1  0.43282626  0.46472544  0.79158195  1
  S  S31  1  0.55645219  0.51033045  0.17935165  1
  S  S32  1  0.91787176  0.51647747  0.99002780  1
  S  S33  1  0.08850008  0.46732782  0.02958039  1
  S  S34  1  0.66235723  0.53098199  0.88861028  1
  S  S35  1  0.33240672  0.48792473  0.11169903  1
  S  S36  1  0.58993607  0.00372400  0.63556389  1
  S  S37  1  0.40795363  0.99234074  0.33994074  1
  S  S38  1  0.24702558  0.50023981  0.31665377  1
  S  S39  1  0.76362105  0.50276639  0.69522021  1
  S  S40  1  0.66457286  0.99021635  0.43847212  1
  S  S41  1  0.32806911  0.94774123  0.54427807  1
