# generated using pymatgen
data_Pr2Mn3(SbS3)4
_symmetry_space_group_name_H-M   'P 1'
_cell_length_a   20.02960800
_cell_length_b   3.90410600
_cell_length_c   14.95364829
_cell_angle_alpha   90.00000000
_cell_angle_beta   126.33350609
_cell_angle_gamma   90.00000000
_symmetry_Int_Tables_number   1
_chemical_formula_structural   Pr2Mn3(SbS3)4
_chemical_formula_sum   'Pr4 Mn6 Sb8 S24'
_cell_volume   942.00006694
_cell_formula_units_Z   2
loop_
 _symmetry_equiv_pos_site_id
 _symmetry_equiv_pos_as_xyz
  1  'x, y, z'
loop_
 _atom_site_type_symbol
 _atom_site_label
 _atom_site_symmetry_multiplicity
 _atom_site_fract_x
 _atom_site_fract_y
 _atom_site_fract_z
 _atom_site_occupancy
  Pr  Pr0  1  0.27307090  0.49330031  0.87989481  1
  Pr  Pr1  1  0.72622386  0.51221278  0.12251615  1
  Pr  Pr2  1  0.76527262  0.02318164  0.87318228  1
  Pr  Pr3  1  0.23182294  0.96023881  0.13112630  1
  Mn  Mn4  1  0.30539259  0.43888828  0.61723416  1
  Mn  Mn5  1  0.68726059  0.45906496  0.35807788  1
  Mn  Mn6  1  0.00504832  0.96148285  0.01215908  1
  Mn  Mn7  1  0.79519133  0.01838122  0.62321949  1
  Mn  Mn8  1  0.20651951  0.04237597  0.38379461  1
  Mn  Mn9  1  0.48681884  0.46786561  0.98644642  1
  Sb  Sb10  1  0.89168947  0.95741121  0.44476728  1
  Sb  Sb11  1  0.11518044  0.98509409  0.54660760  1
  Sb  Sb12  1  0.04231669  0.52675222  0.83111251  1
  Sb  Sb13  1  0.96865494  0.49008964  0.19183405  1
  Sb  Sb14  1  0.40069639  0.51863232  0.44942555  1
  Sb  Sb15  1  0.60919363  0.48062187  0.54440102  1
  Sb  Sb16  1  0.52513050  0.95336942  0.79481530  1
  Sb  Sb17  1  0.46980566  0.03110187  0.18361566  1
  S  S18  1  0.92516166  0.00158062  0.79372371  1
  S  S19  1  0.06110823  0.97773535  0.19297588  1
  S  S20  1  0.41033335  0.98285140  0.97069506  1
  S  S21  1  0.57537656  0.02176480  0.00106868  1
  S  S22  1  0.16532665  0.01380105  0.89605316  1
  S  S23  1  0.82856081  0.98149589  0.10621962  1
  S  S24  1  0.09337695  0.47945090  0.63876867  1
  S  S25  1  0.91169092  0.49683963  0.35546402  1
  S  S26  1  0.73568775  0.00836814  0.30076874  1
  S  S27  1  0.26570818  0.98324951  0.70022058  1
  S  S28  1  0.17341516  0.49887744  0.44155737  1
  S  S29  1  0.81434740  0.51110419  0.53480101  1
  S  S30  1  0.43294749  0.46540416  0.79119471  1
  S  S31  1  0.55620249  0.51138301  0.17911086  1
  S  S32  1  0.91813779  0.51712808  0.99029094  1
  S  S33  1  0.08837597  0.46857206  0.02965043  1
  S  S34  1  0.66264399  0.53079443  0.88895804  1
  S  S35  1  0.33257750  0.48832624  0.11181857  1
  S  S36  1  0.59025626  0.00354179  0.63571287  1
  S  S37  1  0.40810723  0.99241590  0.33980333  1
  S  S38  1  0.24681472  0.49933637  0.31651877  1
  S  S39  1  0.76369007  0.50258789  0.69544809  1
  S  S40  1  0.66464343  0.98893361  0.43857642  1
  S  S41  1  0.32788609  0.94789893  0.54409900  1
