# generated using pymatgen
data_Pr2Mn3(SbS3)4
_symmetry_space_group_name_H-M   'P 1'
_cell_length_a   20.02960800
_cell_length_b   3.90410600
_cell_length_c   14.95364829
_cell_angle_alpha   90.00000000
_cell_angle_beta   126.33350609
_cell_angle_gamma   90.00000000
_symmetry_Int_Tables_number   1
_chemical_formula_structural   Pr2Mn3(SbS3)4
_chemical_formula_sum   'Pr4 Mn6 Sb8 S24'
_cell_volume   942.00006694
_cell_formula_units_Z   2
loop_
 _symmetry_equiv_pos_site_id
 _symmetry_equiv_pos_as_xyz
  1  'x, y, z'
loop_
 _atom_site_type_symbol
 _atom_site_label
 _atom_site_symmetry_multiplicity
 _atom_site_fract_x
 _atom_site_fract_y
 _atom_site_fract_z
 _atom_site_occupancy
  Pr  Pr0  1  0.26202752  0.49147914  0.86641915  1
  Pr  Pr1  1  0.73936476  0.50582941  0.13744277  1
  Pr  Pr2  1  0.76123371  0.00779548  0.86206997  1
  Pr  Pr3  1  0.23894992  0.99126245  0.13930270  1
  Mn  Mn4  1  0.29876441  0.50716116  0.61866309  1
  Mn  Mn5  1  0.69758221  0.50585789  0.38098243  1
  Mn  Mn6  1  0.00189193  0.99959579  0.99869027  1
  Mn  Mn7  1  0.80306194  0.99480858  0.61546460  1
  Mn  Mn8  1  0.19879529  0.98221153  0.37890972  1
  Mn  Mn9  1  0.50247275  0.48580516  0.99844006  1
  Sb  Sb10  1  0.89443555  0.01002404  0.45429022  1
  Sb  Sb11  1  0.10831950  0.98339055  0.55131352  1
  Sb  Sb12  1  0.03806331  0.48661181  0.81527478  1
  Sb  Sb13  1  0.96161216  0.51072098  0.18774739  1
  Sb  Sb14  1  0.39514665  0.48755836  0.45671618  1
  Sb  Sb15  1  0.60716670  0.50220136  0.54956416  1
  Sb  Sb16  1  0.53660594  0.00278860  0.81468703  1
  Sb  Sb17  1  0.46207913  0.00120908  0.18139494  1
  S  S18  1  0.93718761  0.98157053  0.79833570  1
  S  S19  1  0.05950883  0.00123814  0.19104741  1
  S  S20  1  0.40523525  0.98686027  0.97869988  1
  S  S21  1  0.59392577  0.99599383  0.01574935  1
  S  S22  1  0.17143518  0.98502641  0.90278118  1
  S  S23  1  0.82830407  0.01440418  0.10591513  1
  S  S24  1  0.08492783  0.49083075  0.64501847  1
  S  S25  1  0.91313410  0.48278435  0.35873666  1
  S  S26  1  0.74379288  0.95499496  0.29650982  1
  S  S27  1  0.25538098  0.00346567  0.70077955  1
  S  S28  1  0.16124243  0.49431693  0.44604411  1
  S  S29  1  0.83061793  0.49218753  0.54762425  1
  S  S30  1  0.43538395  0.51068926  0.79838916  1
  S  S31  1  0.56000465  0.50054998  0.19289173  1
  S  S32  1  0.90138822  0.47779304  0.97593745  1
  S  S33  1  0.09021243  0.48151663  0.01722658  1
  S  S34  1  0.66547711  0.50107688  0.89613887  1
  S  S35  1  0.33210227  0.51396036  0.10148313  1
  S  S36  1  0.59226462  0.01564792  0.64975741  1
  S  S37  1  0.41337789  0.98218013  0.35813730  1
  S  S38  1  0.24337414  0.47206498  0.29764811  1
  S  S39  1  0.76351403  0.50645243  0.70198981  1
  S  S40  1  0.66506160  0.00753007  0.46147439  1
  S  S41  1  0.33333208  0.98448243  0.54195850  1
