# generated using pymatgen
data_Pr2Mn3(SbS3)4
_symmetry_space_group_name_H-M   'P 1'
_cell_length_a   20.02960800
_cell_length_b   3.90410600
_cell_length_c   14.95364829
_cell_angle_alpha   90.00000000
_cell_angle_beta   126.33350609
_cell_angle_gamma   90.00000000
_symmetry_Int_Tables_number   1
_chemical_formula_structural   Pr2Mn3(SbS3)4
_chemical_formula_sum   'Pr4 Mn6 Sb8 S24'
_cell_volume   942.00006694
_cell_formula_units_Z   2
loop_
 _symmetry_equiv_pos_site_id
 _symmetry_equiv_pos_as_xyz
  1  'x, y, z'
loop_
 _atom_site_type_symbol
 _atom_site_label
 _atom_site_symmetry_multiplicity
 _atom_site_fract_x
 _atom_site_fract_y
 _atom_site_fract_z
 _atom_site_occupancy
  Pr  Pr0  1  0.27310895  0.49344779  0.87996531  1
  Pr  Pr1  1  0.72627352  0.51236262  0.12251736  1
  Pr  Pr2  1  0.76543417  0.02315551  0.87331274  1
  Pr  Pr3  1  0.23168199  0.95998132  0.13101906  1
  Mn  Mn4  1  0.30523939  0.43960712  0.61719261  1
  Mn  Mn5  1  0.68711831  0.45914132  0.35792348  1
  Mn  Mn6  1  0.00507409  0.96154322  0.01206985  1
  Mn  Mn7  1  0.79518843  0.01893781  0.62313129  1
  Mn  Mn8  1  0.20637906  0.04232450  0.38417498  1
  Mn  Mn9  1  0.48676429  0.46778322  0.98628232  1
  Sb  Sb10  1  0.89157579  0.95758130  0.44467635  1
  Sb  Sb11  1  0.11516963  0.98502262  0.54652020  1
  Sb  Sb12  1  0.04237138  0.52622205  0.83101175  1
  Sb  Sb13  1  0.96871122  0.49016240  0.19199710  1
  Sb  Sb14  1  0.40058872  0.51931648  0.44924354  1
  Sb  Sb15  1  0.60928591  0.48048180  0.54444230  1
  Sb  Sb16  1  0.52504278  0.95360763  0.79478637  1
  Sb  Sb17  1  0.46984731  0.03193414  0.18368351  1
  S  S18  1  0.92518441  0.00338097  0.79354089  1
  S  S19  1  0.06102026  0.97670248  0.19287091  1
  S  S20  1  0.41009353  0.98293823  0.97026349  1
  S  S21  1  0.57503531  0.02174976  0.00099258  1
  S  S22  1  0.16543659  0.01467026  0.89616895  1
  S  S23  1  0.82847194  0.98129463  0.10649791  1
  S  S24  1  0.09343619  0.47981097  0.63890579  1
  S  S25  1  0.91179157  0.49616002  0.35536959  1
  S  S26  1  0.73549513  0.00900768  0.30070489  1
  S  S27  1  0.26580456  0.98309148  0.70023527  1
  S  S28  1  0.17374747  0.49821957  0.44183242  1
  S  S29  1  0.81407579  0.51014651  0.53475898  1
  S  S30  1  0.43305935  0.46627164  0.79068167  1
  S  S31  1  0.55595437  0.51226055  0.17878990  1
  S  S32  1  0.91839501  0.51737971  0.99047776  1
  S  S33  1  0.08829892  0.46947858  0.02981997  1
  S  S34  1  0.66286687  0.53052303  0.88928136  1
  S  S35  1  0.33288030  0.48926858  0.11221334  1
  S  S36  1  0.59047795  0.00299337  0.63577634  1
  S  S37  1  0.40831790  0.99255024  0.33973502  1
  S  S38  1  0.24672216  0.49853581  0.31641960  1
  S  S39  1  0.76387356  0.50264014  0.69579218  1
  S  S40  1  0.66474110  0.98799319  0.43874520  1
  S  S41  1  0.32772526  0.94803984  0.54398090  1
