# generated using pymatgen
data_Pr2Mn3(SbS3)4
_symmetry_space_group_name_H-M   'P 1'
_cell_length_a   20.02960800
_cell_length_b   3.90410600
_cell_length_c   14.95364829
_cell_angle_alpha   90.00000000
_cell_angle_beta   126.33350609
_cell_angle_gamma   90.00000000
_symmetry_Int_Tables_number   1
_chemical_formula_structural   Pr2Mn3(SbS3)4
_chemical_formula_sum   'Pr4 Mn6 Sb8 S24'
_cell_volume   942.00006694
_cell_formula_units_Z   2
loop_
 _symmetry_equiv_pos_site_id
 _symmetry_equiv_pos_as_xyz
  1  'x, y, z'
loop_
 _atom_site_type_symbol
 _atom_site_label
 _atom_site_symmetry_multiplicity
 _atom_site_fract_x
 _atom_site_fract_y
 _atom_site_fract_z
 _atom_site_occupancy
  Pr  Pr0  1  0.27312189  0.49355938  0.87995390  1
  Pr  Pr1  1  0.72628053  0.51275833  0.12248768  1
  Pr  Pr2  1  0.76556689  0.02298609  0.87343070  1
  Pr  Pr3  1  0.23153224  0.95965162  0.13091086  1
  Mn  Mn4  1  0.30520773  0.44015652  0.61739295  1
  Mn  Mn5  1  0.68702603  0.45916103  0.35776238  1
  Mn  Mn6  1  0.00509037  0.96179078  0.01199995  1
  Mn  Mn7  1  0.79510877  0.01914533  0.62297357  1
  Mn  Mn8  1  0.20621827  0.04223690  0.38451581  1
  Mn  Mn9  1  0.48668315  0.46779445  0.98612877  1
  Sb  Sb10  1  0.89148621  0.95780672  0.44461401  1
  Sb  Sb11  1  0.11513415  0.98490301  0.54634715  1
  Sb  Sb12  1  0.04246190  0.52590418  0.83094508  1
  Sb  Sb13  1  0.96873357  0.48995790  0.19217896  1
  Sb  Sb14  1  0.40051633  0.52005687  0.44907761  1
  Sb  Sb15  1  0.60940427  0.48054046  0.54451646  1
  Sb  Sb16  1  0.52489162  0.95397339  0.79465279  1
  Sb  Sb17  1  0.46988063  0.03274830  0.18379126  1
  S  S18  1  0.92518282  0.00506531  0.79341121  1
  S  S19  1  0.06070822  0.97569900  0.19270818  1
  S  S20  1  0.40990491  0.98283331  0.96979635  1
  S  S21  1  0.57492119  0.02152564  0.00107103  1
  S  S22  1  0.16542387  0.01538663  0.89621851  1
  S  S23  1  0.82828294  0.98086310  0.10676391  1
  S  S24  1  0.09357897  0.48013530  0.63897700  1
  S  S25  1  0.91187274  0.49526740  0.35531220  1
  S  S26  1  0.73534493  0.00980790  0.30081219  1
  S  S27  1  0.26584457  0.98282547  0.70016469  1
  S  S28  1  0.17408761  0.49702197  0.44211248  1
  S  S29  1  0.81380094  0.50955147  0.53472377  1
  S  S30  1  0.43329711  0.46713278  0.79048483  1
  S  S31  1  0.55571927  0.51283896  0.17830482  1
  S  S32  1  0.91865562  0.51771106  0.99073036  1
  S  S33  1  0.08815722  0.47031607  0.02994181  1
  S  S34  1  0.66316630  0.53080732  0.88970212  1
  S  S35  1  0.33286388  0.49030103  0.11229623  1
  S  S36  1  0.59073790  0.00199107  0.63582339  1
  S  S37  1  0.40843331  0.99229518  0.33966794  1
  S  S38  1  0.24671229  0.49781356  0.31635528  1
  S  S39  1  0.76403986  0.50281199  0.69622249  1
  S  S40  1  0.66490213  0.98706641  0.43902634  1
  S  S41  1  0.32766163  0.94868723  0.54401129  1
