# generated using pymatgen
data_Pr2Mn3(SbS3)4
_symmetry_space_group_name_H-M   'P 1'
_cell_length_a   20.02960800
_cell_length_b   3.90410600
_cell_length_c   14.95364829
_cell_angle_alpha   90.00000000
_cell_angle_beta   126.33350609
_cell_angle_gamma   90.00000000
_symmetry_Int_Tables_number   1
_chemical_formula_structural   Pr2Mn3(SbS3)4
_chemical_formula_sum   'Pr4 Mn6 Sb8 S24'
_cell_volume   942.00006694
_cell_formula_units_Z   2
loop_
 _symmetry_equiv_pos_site_id
 _symmetry_equiv_pos_as_xyz
  1  'x, y, z'
loop_
 _atom_site_type_symbol
 _atom_site_label
 _atom_site_symmetry_multiplicity
 _atom_site_fract_x
 _atom_site_fract_y
 _atom_site_fract_z
 _atom_site_occupancy
  Pr  Pr0  1  0.27308651  0.49354708  0.87991727  1
  Pr  Pr1  1  0.72628663  0.51282895  0.12254511  1
  Pr  Pr2  1  0.76561674  0.02310839  0.87349339  1
  Pr  Pr3  1  0.23144567  0.95913896  0.13086470  1
  Mn  Mn4  1  0.30515320  0.44042022  0.61760247  1
  Mn  Mn5  1  0.68701196  0.45944866  0.35769723  1
  Mn  Mn6  1  0.00506957  0.96214476  0.01185762  1
  Mn  Mn7  1  0.79506580  0.01927633  0.62289628  1
  Mn  Mn8  1  0.20605300  0.04226146  0.38479196  1
  Mn  Mn9  1  0.48658046  0.46757508  0.98591894  1
  Sb  Sb10  1  0.89141826  0.95812415  0.44461585  1
  Sb  Sb11  1  0.11514773  0.98474852  0.54624504  1
  Sb  Sb12  1  0.04256219  0.52545191  0.83084733  1
  Sb  Sb13  1  0.96877930  0.48960584  0.19239019  1
  Sb  Sb14  1  0.40047052  0.52061939  0.44899254  1
  Sb  Sb15  1  0.60945185  0.48057452  0.54450883  1
  Sb  Sb16  1  0.52475812  0.95459368  0.79458208  1
  Sb  Sb17  1  0.46993343  0.03347594  0.18381579  1
  S  S18  1  0.92518783  0.00678163  0.79336148  1
  S  S19  1  0.06038694  0.97524786  0.19235060  1
  S  S20  1  0.40980860  0.98319371  0.96943221  1
  S  S21  1  0.57478881  0.02150140  0.00104647  1
  S  S22  1  0.16530754  0.01540560  0.89616942  1
  S  S23  1  0.82801995  0.97988972  0.10682231  1
  S  S24  1  0.09370022  0.48007232  0.63901710  1
  S  S25  1  0.91194107  0.49410543  0.35517366  1
  S  S26  1  0.73528796  0.00992841  0.30085501  1
  S  S27  1  0.26590006  0.98235736  0.70017321  1
  S  S28  1  0.17430066  0.49586015  0.44227536  1
  S  S29  1  0.81362789  0.50908061  0.53488824  1
  S  S30  1  0.43338968  0.46867958  0.79008880  1
  S  S31  1  0.55536897  0.51320491  0.17770754  1
  S  S32  1  0.91886783  0.51803969  0.99093335  1
  S  S33  1  0.08809922  0.47110284  0.02993304  1
  S  S34  1  0.66346946  0.53094314  0.89021094  1
  S  S35  1  0.33292737  0.49117174  0.11236033  1
  S  S36  1  0.59092448  0.00181833  0.63580253  1
  S  S37  1  0.40857257  0.99218850  0.33957902  1
  S  S38  1  0.24674771  0.49697793  0.31642870  1
  S  S39  1  0.76415740  0.50300613  0.69655503  1
  S  S40  1  0.66499432  0.98675491  0.43930357  1
  S  S41  1  0.32761583  0.94977580  0.54408229  1
