# generated using pymatgen
data_Pr2Mn3(SbS3)4
_symmetry_space_group_name_H-M   'P 1'
_cell_length_a   20.02960800
_cell_length_b   3.90410600
_cell_length_c   14.95364829
_cell_angle_alpha   90.00000000
_cell_angle_beta   126.33350609
_cell_angle_gamma   90.00000000
_symmetry_Int_Tables_number   1
_chemical_formula_structural   Pr2Mn3(SbS3)4
_chemical_formula_sum   'Pr4 Mn6 Sb8 S24'
_cell_volume   942.00006694
_cell_formula_units_Z   2
loop_
 _symmetry_equiv_pos_site_id
 _symmetry_equiv_pos_as_xyz
  1  'x, y, z'
loop_
 _atom_site_type_symbol
 _atom_site_label
 _atom_site_symmetry_multiplicity
 _atom_site_fract_x
 _atom_site_fract_y
 _atom_site_fract_z
 _atom_site_occupancy
  Pr  Pr0  1  0.27302805  0.49352197  0.87986825  1
  Pr  Pr1  1  0.72627661  0.51283800  0.12265388  1
  Pr  Pr2  1  0.76559383  0.02351571  0.87352515  1
  Pr  Pr3  1  0.23135202  0.95842059  0.13078607  1
  Mn  Mn4  1  0.30512571  0.44047762  0.61781667  1
  Mn  Mn5  1  0.68696152  0.45965492  0.35757622  1
  Mn  Mn6  1  0.00514950  0.96269961  0.01178052  1
  Mn  Mn7  1  0.79496259  0.01938351  0.62277598  1
  Mn  Mn8  1  0.20579276  0.04241848  0.38508398  1
  Mn  Mn9  1  0.48649689  0.46729588  0.98561718  1
  Sb  Sb10  1  0.89138542  0.95836146  0.44458669  1
  Sb  Sb11  1  0.11517241  0.98471727  0.54620650  1
  Sb  Sb12  1  0.04262499  0.52493914  0.83065154  1
  Sb  Sb13  1  0.96881904  0.48917855  0.19265331  1
  Sb  Sb14  1  0.40042156  0.52139397  0.44895240  1
  Sb  Sb15  1  0.60946330  0.48071086  0.54447051  1
  Sb  Sb16  1  0.52461325  0.95507010  0.79452487  1
  Sb  Sb17  1  0.46996861  0.03420985  0.18374553  1
  S  S18  1  0.92517156  0.00854947  0.79319951  1
  S  S19  1  0.06002435  0.97455399  0.19194167  1
  S  S20  1  0.40989822  0.98296377  0.96920693  1
  S  S21  1  0.57472899  0.02108033  0.00119536  1
  S  S22  1  0.16515296  0.01582934  0.89614224  1
  S  S23  1  0.82786374  0.97925541  0.10701446  1
  S  S24  1  0.09380135  0.47982684  0.63898773  1
  S  S25  1  0.91200125  0.49329445  0.35511908  1
  S  S26  1  0.73522532  0.00985669  0.30086350  1
  S  S27  1  0.26603380  0.98197897  0.70022901  1
  S  S28  1  0.17447496  0.49448966  0.44236641  1
  S  S29  1  0.81349060  0.50830663  0.53523655  1
  S  S30  1  0.43340598  0.46975478  0.78963830  1
  S  S31  1  0.55505764  0.51332489  0.17717737  1
  S  S32  1  0.91920414  0.51823583  0.99120324  1
  S  S33  1  0.08810743  0.47185435  0.02997844  1
  S  S34  1  0.66384808  0.53146539  0.89063956  1
  S  S35  1  0.33304438  0.49156533  0.11238581  1
  S  S36  1  0.59117001  0.00185252  0.63586137  1
  S  S37  1  0.40867776  0.99196623  0.33962764  1
  S  S38  1  0.24681417  0.49672732  0.31654376  1
  S  S39  1  0.76413256  0.50301973  0.69679859  1
  S  S40  1  0.66512024  0.98611915  0.43948664  1
  S  S41  1  0.32764481  0.95043096  0.54416100  1
