# generated using pymatgen
data_Pr2Mn3(SbS3)4
_symmetry_space_group_name_H-M   'P 1'
_cell_length_a   20.02960800
_cell_length_b   3.90410600
_cell_length_c   14.95364829
_cell_angle_alpha   90.00000000
_cell_angle_beta   126.33350609
_cell_angle_gamma   90.00000000
_symmetry_Int_Tables_number   1
_chemical_formula_structural   Pr2Mn3(SbS3)4
_chemical_formula_sum   'Pr4 Mn6 Sb8 S24'
_cell_volume   942.00006694
_cell_formula_units_Z   2
loop_
 _symmetry_equiv_pos_site_id
 _symmetry_equiv_pos_as_xyz
  1  'x, y, z'
loop_
 _atom_site_type_symbol
 _atom_site_label
 _atom_site_symmetry_multiplicity
 _atom_site_fract_x
 _atom_site_fract_y
 _atom_site_fract_z
 _atom_site_occupancy
  Pr  Pr0  1  0.27295935  0.49361512  0.87977187  1
  Pr  Pr1  1  0.72626390  0.51262705  0.12275410  1
  Pr  Pr2  1  0.76558907  0.02384431  0.87353317  1
  Pr  Pr3  1  0.23123040  0.95787079  0.13061929  1
  Mn  Mn4  1  0.30499007  0.44047972  0.61787329  1
  Mn  Mn5  1  0.68698270  0.46012804  0.35771474  1
  Mn  Mn6  1  0.00514187  0.96309978  0.01173852  1
  Mn  Mn7  1  0.79489953  0.01936480  0.62266546  1
  Mn  Mn8  1  0.20559014  0.04231327  0.38536244  1
  Mn  Mn9  1  0.48638743  0.46688397  0.98526677  1
  Sb  Sb10  1  0.89133227  0.95850576  0.44453953  1
  Sb  Sb11  1  0.11526536  0.98487081  0.54626628  1
  Sb  Sb12  1  0.04265871  0.52448021  0.83039994  1
  Sb  Sb13  1  0.96879230  0.48854815  0.19279345  1
  Sb  Sb14  1  0.40037385  0.52207191  0.44888419  1
  Sb  Sb15  1  0.60951124  0.48059822  0.54434055  1
  Sb  Sb16  1  0.52450184  0.95537910  0.79444824  1
  Sb  Sb17  1  0.47002042  0.03450040  0.18375426  1
  S  S18  1  0.92515543  0.00969467  0.79310686  1
  S  S19  1  0.05963542  0.97343012  0.19141139  1
  S  S20  1  0.41007646  0.98282609  0.96911121  1
  S  S21  1  0.57471689  0.02048725  0.00147862  1
  S  S22  1  0.16494740  0.01640967  0.89601420  1
  S  S23  1  0.82771240  0.97845734  0.10713286  1
  S  S24  1  0.09390709  0.47926746  0.63901526  1
  S  S25  1  0.91203990  0.49218154  0.35509703  1
  S  S26  1  0.73520459  0.00969387  0.30081206  1
  S  S27  1  0.26634828  0.98186430  0.70053910  1
  S  S28  1  0.17464818  0.49339164  0.44241928  1
  S  S29  1  0.81328544  0.50788217  0.53543401  1
  S  S30  1  0.43343898  0.47095016  0.78930041  1
  S  S31  1  0.55479675  0.51409735  0.17670763  1
  S  S32  1  0.91959116  0.51819627  0.99133388  1
  S  S33  1  0.08814201  0.47274996  0.03009369  1
  S  S34  1  0.66415967  0.53140787  0.89115331  1
  S  S35  1  0.33299925  0.49196356  0.11244290  1
  S  S36  1  0.59144023  0.00184175  0.63602790  1
  S  S37  1  0.40868745  0.99114655  0.33951548  1
  S  S38  1  0.24691040  0.49675574  0.31669845  1
  S  S39  1  0.76407721  0.50285746  0.69698653  1
  S  S40  1  0.66529270  0.98580689  0.43962949  1
  S  S41  1  0.32771225  0.95113574  0.54420999  1
