# generated using pymatgen
data_Pr2Mn3(SbS3)4
_symmetry_space_group_name_H-M   'P 1'
_cell_length_a   20.02960800
_cell_length_b   3.90410600
_cell_length_c   14.95364829
_cell_angle_alpha   90.00000000
_cell_angle_beta   126.33350609
_cell_angle_gamma   90.00000000
_symmetry_Int_Tables_number   1
_chemical_formula_structural   Pr2Mn3(SbS3)4
_chemical_formula_sum   'Pr4 Mn6 Sb8 S24'
_cell_volume   942.00006694
_cell_formula_units_Z   2
loop_
 _symmetry_equiv_pos_site_id
 _symmetry_equiv_pos_as_xyz
  1  'x, y, z'
loop_
 _atom_site_type_symbol
 _atom_site_label
 _atom_site_symmetry_multiplicity
 _atom_site_fract_x
 _atom_site_fract_y
 _atom_site_fract_z
 _atom_site_occupancy
  Pr  Pr0  1  0.27289381  0.49385136  0.87964153  1
  Pr  Pr1  1  0.72627199  0.51219086  0.12288581  1
  Pr  Pr2  1  0.76562631  0.02392532  0.87353491  1
  Pr  Pr3  1  0.23110564  0.95756039  0.13042387  1
  Mn  Mn4  1  0.30484171  0.44073502  0.61788208  1
  Mn  Mn5  1  0.68707032  0.46053227  0.35792023  1
  Mn  Mn6  1  0.00503211  0.96365234  0.01161698  1
  Mn  Mn7  1  0.79492278  0.01903660  0.62257459  1
  Mn  Mn8  1  0.20543996  0.04218398  0.38561815  1
  Mn  Mn9  1  0.48628408  0.46639201  0.98485236  1
  Sb  Sb10  1  0.89126528  0.95877503  0.44447306  1
  Sb  Sb11  1  0.11535669  0.98516832  0.54635129  1
  Sb  Sb12  1  0.04265027  0.52430095  0.83018297  1
  Sb  Sb13  1  0.96877551  0.48782415  0.19294302  1
  Sb  Sb14  1  0.40038438  0.52270320  0.44884187  1
  Sb  Sb15  1  0.60956483  0.48058140  0.54429430  1
  Sb  Sb16  1  0.52437130  0.95558162  0.79432877  1
  Sb  Sb17  1  0.47003500  0.03475556  0.18371714  1
  S  S18  1  0.92512075  0.01056960  0.79299215  1
  S  S19  1  0.05925318  0.97302059  0.19083400  1
  S  S20  1  0.41029187  0.98274002  0.96908828  1
  S  S21  1  0.57475343  0.01990609  0.00172419  1
  S  S22  1  0.16473339  0.01658805  0.89579723  1
  S  S23  1  0.82753858  0.97771528  0.10719222  1
  S  S24  1  0.09393351  0.47870269  0.63892429  1
  S  S25  1  0.91197139  0.49078490  0.35512153  1
  S  S26  1  0.73517346  0.00968235  0.30080971  1
  S  S27  1  0.26675899  0.98166503  0.70101506  1
  S  S28  1  0.17478656  0.49228339  0.44244158  1
  S  S29  1  0.81308523  0.50753960  0.53571020  1
  S  S30  1  0.43347273  0.47201348  0.78908544  1
  S  S31  1  0.55448525  0.51483668  0.17625093  1
  S  S32  1  0.91984738  0.51804507  0.99147805  1
  S  S33  1  0.08820326  0.47401836  0.03014569  1
  S  S34  1  0.66446448  0.53125573  0.89161187  1
  S  S35  1  0.33290031  0.49208327  0.11248444  1
  S  S36  1  0.59171270  0.00229330  0.63617316  1
  S  S37  1  0.40866768  0.99060222  0.33935217  1
  S  S38  1  0.24693732  0.49712179  0.31675712  1
  S  S39  1  0.76408664  0.50288484  0.69725420  1
  S  S40  1  0.66563144  0.98551411  0.43978605  1
  S  S41  1  0.32777659  0.95222258  0.54420393  1
