# generated using pymatgen
data_Pr2Mn3(SbS3)4
_symmetry_space_group_name_H-M   'P 1'
_cell_length_a   20.02960800
_cell_length_b   3.90410600
_cell_length_c   14.95364829
_cell_angle_alpha   90.00000000
_cell_angle_beta   126.33350609
_cell_angle_gamma   90.00000000
_symmetry_Int_Tables_number   1
_chemical_formula_structural   Pr2Mn3(SbS3)4
_chemical_formula_sum   'Pr4 Mn6 Sb8 S24'
_cell_volume   942.00006694
_cell_formula_units_Z   2
loop_
 _symmetry_equiv_pos_site_id
 _symmetry_equiv_pos_as_xyz
  1  'x, y, z'
loop_
 _atom_site_type_symbol
 _atom_site_label
 _atom_site_symmetry_multiplicity
 _atom_site_fract_x
 _atom_site_fract_y
 _atom_site_fract_z
 _atom_site_occupancy
  Pr  Pr0  1  0.27285375  0.49424512  0.87957143  1
  Pr  Pr1  1  0.72625545  0.51187381  0.12300321  1
  Pr  Pr2  1  0.76564608  0.02382532  0.87355492  1
  Pr  Pr3  1  0.23101894  0.95729046  0.13027278  1
  Mn  Mn4  1  0.30472673  0.44116423  0.61787983  1
  Mn  Mn5  1  0.68719031  0.46050313  0.35821123  1
  Mn  Mn6  1  0.00500222  0.96426200  0.01146550  1
  Mn  Mn7  1  0.79493355  0.01875736  0.62244771  1
  Mn  Mn8  1  0.20530161  0.04201521  0.38578986  1
  Mn  Mn9  1  0.48615399  0.46606375  0.98455579  1
  Sb  Sb10  1  0.89115596  0.95907697  0.44440106  1
  Sb  Sb11  1  0.11543422  0.98539061  0.54642732  1
  Sb  Sb12  1  0.04269071  0.52395840  0.83001782  1
  Sb  Sb13  1  0.96882600  0.48738394  0.19313602  1
  Sb  Sb14  1  0.40038351  0.52318634  0.44879406  1
  Sb  Sb15  1  0.60959866  0.48064279  0.54421113  1
  Sb  Sb16  1  0.52424053  0.95600074  0.79420506  1
  Sb  Sb17  1  0.47005561  0.03488478  0.18374521  1
  S  S18  1  0.92516484  0.01102609  0.79278358  1
  S  S19  1  0.05903685  0.97270425  0.19053191  1
  S  S20  1  0.41061996  0.98275479  0.96911445  1
  S  S21  1  0.57473529  0.01959176  0.00196374  1
  S  S22  1  0.16455751  0.01695686  0.89557180  1
  S  S23  1  0.82731177  0.97766214  0.10706783  1
  S  S24  1  0.09397470  0.47784717  0.63888353  1
  S  S25  1  0.91200110  0.48981735  0.35515925  1
  S  S26  1  0.73514153  0.00933424  0.30073931  1
  S  S27  1  0.26705186  0.98181094  0.70130891  1
  S  S28  1  0.17495661  0.49183135  0.44241752  1
  S  S29  1  0.81298265  0.50739045  0.53602929  1
  S  S30  1  0.43354400  0.47299016  0.78895743  1
  S  S31  1  0.55414263  0.51566019  0.17582995  1
  S  S32  1  0.92031687  0.51771708  0.99176980  1
  S  S33  1  0.08814741  0.47489629  0.03022060  1
  S  S34  1  0.66471441  0.53071032  0.89186565  1
  S  S35  1  0.33285540  0.49138986  0.11261284  1
  S  S36  1  0.59202981  0.00233174  0.63636809  1
  S  S37  1  0.40864992  0.99030241  0.33926559  1
  S  S38  1  0.24694722  0.49800649  0.31683231  1
  S  S39  1  0.76407873  0.50278495  0.69747131  1
  S  S40  1  0.66596685  0.98476828  0.43989035  1
  S  S41  1  0.32779417  0.95368200  0.54414617  1
