# generated using pymatgen
data_Pr2Mn3(SbS3)4
_symmetry_space_group_name_H-M   'P 1'
_cell_length_a   20.02960800
_cell_length_b   3.90410600
_cell_length_c   14.95364829
_cell_angle_alpha   90.00000000
_cell_angle_beta   126.33350609
_cell_angle_gamma   90.00000000
_symmetry_Int_Tables_number   1
_chemical_formula_structural   Pr2Mn3(SbS3)4
_chemical_formula_sum   'Pr4 Mn6 Sb8 S24'
_cell_volume   942.00006694
_cell_formula_units_Z   2
loop_
 _symmetry_equiv_pos_site_id
 _symmetry_equiv_pos_as_xyz
  1  'x, y, z'
loop_
 _atom_site_type_symbol
 _atom_site_label
 _atom_site_symmetry_multiplicity
 _atom_site_fract_x
 _atom_site_fract_y
 _atom_site_fract_z
 _atom_site_occupancy
  Pr  Pr0  1  0.27278100  0.49452679  0.87950495  1
  Pr  Pr1  1  0.72624531  0.51144874  0.12307990  1
  Pr  Pr2  1  0.76563796  0.02371084  0.87354583  1
  Pr  Pr3  1  0.23096393  0.95686575  0.13008837  1
  Mn  Mn4  1  0.30453851  0.44153968  0.61789185  1
  Mn  Mn5  1  0.68734126  0.46073787  0.35857644  1
  Mn  Mn6  1  0.00512025  0.96512053  0.01150863  1
  Mn  Mn7  1  0.79496964  0.01818045  0.62245537  1
  Mn  Mn8  1  0.20519249  0.04202005  0.38594954  1
  Mn  Mn9  1  0.48606041  0.46551213  0.98425753  1
  Sb  Sb10  1  0.89109156  0.95935575  0.44444718  1
  Sb  Sb11  1  0.11550274  0.98531198  0.54645700  1
  Sb  Sb12  1  0.04271489  0.52361568  0.82985882  1
  Sb  Sb13  1  0.96884974  0.48691468  0.19334000  1
  Sb  Sb14  1  0.40036703  0.52374840  0.44875726  1
  Sb  Sb15  1  0.60963071  0.48076754  0.54415540  1
  Sb  Sb16  1  0.52419369  0.95643169  0.79413600  1
  Sb  Sb17  1  0.47008624  0.03495386  0.18379080  1
  S  S18  1  0.92522093  0.01140477  0.79256992  1
  S  S19  1  0.05878131  0.97284348  0.19026341  1
  S  S20  1  0.41081297  0.98306867  0.96912532  1
  S  S21  1  0.57479124  0.01977620  0.00217596  1
  S  S22  1  0.16441198  0.01716225  0.89532680  1
  S  S23  1  0.82718745  0.97721772  0.10693969  1
  S  S24  1  0.09385870  0.47689053  0.63881666  1
  S  S25  1  0.91198304  0.48950650  0.35517291  1
  S  S26  1  0.73519152  0.00867651  0.30059871  1
  S  S27  1  0.26734295  0.98164139  0.70167618  1
  S  S28  1  0.17495077  0.49113934  0.44228230  1
  S  S29  1  0.81295542  0.50775126  0.53639042  1
  S  S30  1  0.43355206  0.47393281  0.78877513  1
  S  S31  1  0.55388016  0.51603441  0.17553650  1
  S  S32  1  0.92063942  0.51742771  0.99200265  1
  S  S33  1  0.08802827  0.47636358  0.03016801  1
  S  S34  1  0.66475979  0.53011151  0.89192458  1
  S  S35  1  0.33274656  0.49067523  0.11267469  1
  S  S36  1  0.59229522  0.00233615  0.63663643  1
  S  S37  1  0.40868268  0.98958701  0.33939181  1
  S  S38  1  0.24707945  0.49882093  0.31696607  1
  S  S39  1  0.76407768  0.50294491  0.69774517  1
  S  S40  1  0.66626091  0.98501414  0.44010731  1
  S  S41  1  0.32786732  0.95471530  0.54430543  1
