# generated using pymatgen
data_Pr2Mn3(SbS3)4
_symmetry_space_group_name_H-M   'P 1'
_cell_length_a   20.02960800
_cell_length_b   3.90410600
_cell_length_c   14.95364829
_cell_angle_alpha   90.00000000
_cell_angle_beta   126.33350609
_cell_angle_gamma   90.00000000
_symmetry_Int_Tables_number   1
_chemical_formula_structural   Pr2Mn3(SbS3)4
_chemical_formula_sum   'Pr4 Mn6 Sb8 S24'
_cell_volume   942.00006694
_cell_formula_units_Z   2
loop_
 _symmetry_equiv_pos_site_id
 _symmetry_equiv_pos_as_xyz
  1  'x, y, z'
loop_
 _atom_site_type_symbol
 _atom_site_label
 _atom_site_symmetry_multiplicity
 _atom_site_fract_x
 _atom_site_fract_y
 _atom_site_fract_z
 _atom_site_occupancy
  Pr  Pr0  1  0.27270139  0.49480439  0.87944914  1
  Pr  Pr1  1  0.72627299  0.51101475  0.12319201  1
  Pr  Pr2  1  0.76566413  0.02360053  0.87351205  1
  Pr  Pr3  1  0.23089362  0.95651013  0.12995923  1
  Mn  Mn4  1  0.30436882  0.44200970  0.61780808  1
  Mn  Mn5  1  0.68748863  0.46037855  0.35897151  1
  Mn  Mn6  1  0.00522626  0.96598451  0.01163318  1
  Mn  Mn7  1  0.79502913  0.01828067  0.62255394  1
  Mn  Mn8  1  0.20504700  0.04248240  0.38608048  1
  Mn  Mn9  1  0.48604202  0.46509382  0.98399263  1
  Sb  Sb10  1  0.89108191  0.95964933  0.44455666  1
  Sb  Sb11  1  0.11556330  0.98498646  0.54647217  1
  Sb  Sb12  1  0.04277273  0.52340700  0.82971125  1
  Sb  Sb13  1  0.96883783  0.48650976  0.19356283  1
  Sb  Sb14  1  0.40035135  0.52426602  0.44875577  1
  Sb  Sb15  1  0.60965076  0.48082017  0.54411992  1
  Sb  Sb16  1  0.52414564  0.95693786  0.79401067  1
  Sb  Sb17  1  0.47015914  0.03505462  0.18385909  1
  S  S18  1  0.92530519  0.01170854  0.79232950  1
  S  S19  1  0.05860828  0.97312714  0.18999615  1
  S  S20  1  0.41101535  0.98376669  0.96928917  1
  S  S21  1  0.57477888  0.02007080  0.00242444  1
  S  S22  1  0.16423525  0.01727635  0.89504910  1
  S  S23  1  0.82709045  0.97676226  0.10675251  1
  S  S24  1  0.09371649  0.47580777  0.63867580  1
  S  S25  1  0.91192834  0.48898307  0.35508027  1
  S  S26  1  0.73527068  0.00754969  0.30039918  1
  S  S27  1  0.26759276  0.98187702  0.70207517  1
  S  S28  1  0.17503290  0.49114403  0.44222843  1
  S  S29  1  0.81282506  0.50778501  0.53659932  1
  S  S30  1  0.43358422  0.47446635  0.78861565  1
  S  S31  1  0.55358813  0.51651742  0.17517238  1
  S  S32  1  0.92079740  0.51764615  0.99202149  1
  S  S33  1  0.08793461  0.47822667  0.03014965  1
  S  S34  1  0.66476466  0.52951069  0.89190020  1
  S  S35  1  0.33271043  0.49018795  0.11274813  1
  S  S36  1  0.59247161  0.00221632  0.63684420  1
  S  S37  1  0.40862288  0.98853937  0.33931116  1
  S  S38  1  0.24715908  0.49888747  0.31707041  1
  S  S39  1  0.76394642  0.50332308  0.69788060  1
  S  S40  1  0.66649691  0.98497163  0.44029959  1
  S  S41  1  0.32792690  0.95591861  0.54446116  1
