# generated using pymatgen
data_Pr2Mn3(SbS3)4
_symmetry_space_group_name_H-M   'P 1'
_cell_length_a   20.02960800
_cell_length_b   3.90410600
_cell_length_c   14.95364829
_cell_angle_alpha   90.00000000
_cell_angle_beta   126.33350609
_cell_angle_gamma   90.00000000
_symmetry_Int_Tables_number   1
_chemical_formula_structural   Pr2Mn3(SbS3)4
_chemical_formula_sum   'Pr4 Mn6 Sb8 S24'
_cell_volume   942.00006694
_cell_formula_units_Z   2
loop_
 _symmetry_equiv_pos_site_id
 _symmetry_equiv_pos_as_xyz
  1  'x, y, z'
loop_
 _atom_site_type_symbol
 _atom_site_label
 _atom_site_symmetry_multiplicity
 _atom_site_fract_x
 _atom_site_fract_y
 _atom_site_fract_z
 _atom_site_occupancy
  Pr  Pr0  1  0.27262319  0.49510405  0.87941006  1
  Pr  Pr1  1  0.72624901  0.51065704  0.12321619  1
  Pr  Pr2  1  0.76566310  0.02359910  0.87344585  1
  Pr  Pr3  1  0.23085912  0.95619204  0.12986241  1
  Mn  Mn4  1  0.30421698  0.44218127  0.61782841  1
  Mn  Mn5  1  0.68760874  0.45963569  0.35940634  1
  Mn  Mn6  1  0.00523378  0.96688359  0.01173344  1
  Mn  Mn7  1  0.79509062  0.01859038  0.62252836  1
  Mn  Mn8  1  0.20508606  0.04266403  0.38642232  1
  Mn  Mn9  1  0.48603982  0.46441228  0.98381058  1
  Sb  Sb10  1  0.89104036  0.96007730  0.44465191  1
  Sb  Sb11  1  0.11561044  0.98469324  0.54646611  1
  Sb  Sb12  1  0.04289697  0.52316419  0.82964826  1
  Sb  Sb13  1  0.96879524  0.48616950  0.19373958  1
  Sb  Sb14  1  0.40034170  0.52457555  0.44875759  1
  Sb  Sb15  1  0.60967282  0.48123272  0.54402776  1
  Sb  Sb16  1  0.52404005  0.95746762  0.79391239  1
  Sb  Sb17  1  0.47021177  0.03505966  0.18393812  1
  S  S18  1  0.92536467  0.01260588  0.79206321  1
  S  S19  1  0.05840281  0.97370949  0.18969451  1
  S  S20  1  0.41130429  0.98405629  0.96955778  1
  S  S21  1  0.57488246  0.02000560  0.00273566  1
  S  S22  1  0.16414843  0.01718547  0.89469981  1
  S  S23  1  0.82686367  0.97618113  0.10650036  1
  S  S24  1  0.09356267  0.47456723  0.63846091  1
  S  S25  1  0.91186352  0.48859450  0.35501091  1
  S  S26  1  0.73538188  0.00663662  0.30015812  1
  S  S27  1  0.26774946  0.98145731  0.70238042  1
  S  S28  1  0.17506009  0.49153555  0.44226086  1
  S  S29  1  0.81266596  0.50773842  0.53672182  1
  S  S30  1  0.43353497  0.47568463  0.78832403  1
  S  S31  1  0.55329231  0.51720551  0.17487955  1
  S  S32  1  0.92094551  0.51745602  0.99204998  1
  S  S33  1  0.08782074  0.47938792  0.03007475  1
  S  S34  1  0.66484563  0.52874051  0.89190558  1
  S  S35  1  0.33264491  0.48962370  0.11280099  1
  S  S36  1  0.59259837  0.00225975  0.63697991  1
  S  S37  1  0.40859391  0.98733222  0.33924266  1
  S  S38  1  0.24726995  0.49856916  0.31719208  1
  S  S39  1  0.76368897  0.50383971  0.69797770  1
  S  S40  1  0.66675269  0.98493189  0.44044858  1
  S  S41  1  0.32795473  0.95727414  0.54456706  1
