# generated using pymatgen
data_Pr2Mn3(SbS3)4
_symmetry_space_group_name_H-M   'P 1'
_cell_length_a   20.02960800
_cell_length_b   3.90410600
_cell_length_c   14.95364829
_cell_angle_alpha   90.00000000
_cell_angle_beta   126.33350609
_cell_angle_gamma   90.00000000
_symmetry_Int_Tables_number   1
_chemical_formula_structural   Pr2Mn3(SbS3)4
_chemical_formula_sum   'Pr4 Mn6 Sb8 S24'
_cell_volume   942.00006694
_cell_formula_units_Z   2
loop_
 _symmetry_equiv_pos_site_id
 _symmetry_equiv_pos_as_xyz
  1  'x, y, z'
loop_
 _atom_site_type_symbol
 _atom_site_label
 _atom_site_symmetry_multiplicity
 _atom_site_fract_x
 _atom_site_fract_y
 _atom_site_fract_z
 _atom_site_occupancy
  Pr  Pr0  1  0.26213547  0.49079812  0.86658184  1
  Pr  Pr1  1  0.73920730  0.50606944  0.13739173  1
  Pr  Pr2  1  0.76126067  0.00752345  0.86208547  1
  Pr  Pr3  1  0.23892457  0.99179984  0.13950951  1
  Mn  Mn4  1  0.29880598  0.50653925  0.61863347  1
  Mn  Mn5  1  0.69751281  0.50688799  0.38102898  1
  Mn  Mn6  1  0.00193243  0.99935803  0.99863169  1
  Mn  Mn7  1  0.80317016  0.99518654  0.61522002  1
  Mn  Mn8  1  0.19876902  0.98183617  0.37904773  1
  Mn  Mn9  1  0.50249229  0.48626749  0.99826679  1
  Sb  Sb10  1  0.89441521  0.00973017  0.45435373  1
  Sb  Sb11  1  0.10832839  0.98249658  0.55122064  1
  Sb  Sb12  1  0.03809726  0.48629142  0.81521884  1
  Sb  Sb13  1  0.96151144  0.51172821  0.18767561  1
  Sb  Sb14  1  0.39527416  0.48766439  0.45691208  1
  Sb  Sb15  1  0.60716604  0.50213760  0.54960231  1
  Sb  Sb16  1  0.53659740  0.00285088  0.81487278  1
  Sb  Sb17  1  0.46202047  0.00140297  0.18111554  1
  S  S18  1  0.93691302  0.98076400  0.79831435  1
  S  S19  1  0.05963092  0.00159869  0.19122428  1
  S  S20  1  0.40560282  0.98840893  0.97869407  1
  S  S21  1  0.59385749  0.99656372  0.01585684  1
  S  S22  1  0.17150969  0.98552386  0.90260435  1
  S  S23  1  0.82848966  0.01446900  0.10604298  1
  S  S24  1  0.08472818  0.49029377  0.64471618  1
  S  S25  1  0.91346379  0.48277561  0.35927857  1
  S  S26  1  0.74376963  0.95434216  0.29649996  1
  S  S27  1  0.25544881  0.00201347  0.70098153  1
  S  S28  1  0.16161246  0.49466760  0.44615414  1
  S  S29  1  0.83056608  0.49207751  0.54764715  1
  S  S30  1  0.43554036  0.51053612  0.79867983  1
  S  S31  1  0.56011850  0.50203845  0.19233407  1
  S  S32  1  0.90145007  0.47733328  0.97577404  1
  S  S33  1  0.09008412  0.48137425  0.01721376  1
  S  S34  1  0.66528379  0.50101638  0.89596575  1
  S  S35  1  0.33207446  0.51433796  0.10119236  1
  S  S36  1  0.59239696  0.01579586  0.64995076  1
  S  S37  1  0.41343825  0.98105890  0.35829305  1
  S  S38  1  0.24351773  0.47177128  0.29784865  1
  S  S39  1  0.76320198  0.50579718  0.70161518  1
  S  S40  1  0.66517889  0.00749462  0.46140686  1
  S  S41  1  0.33295557  0.98364230  0.54206249  1
