# generated using pymatgen
data_Pr2Mn3(SbS3)4
_symmetry_space_group_name_H-M   'P 1'
_cell_length_a   20.02960800
_cell_length_b   3.90410600
_cell_length_c   14.95364829
_cell_angle_alpha   90.00000000
_cell_angle_beta   126.33350609
_cell_angle_gamma   90.00000000
_symmetry_Int_Tables_number   1
_chemical_formula_structural   Pr2Mn3(SbS3)4
_chemical_formula_sum   'Pr4 Mn6 Sb8 S24'
_cell_volume   942.00006694
_cell_formula_units_Z   2
loop_
 _symmetry_equiv_pos_site_id
 _symmetry_equiv_pos_as_xyz
  1  'x, y, z'
loop_
 _atom_site_type_symbol
 _atom_site_label
 _atom_site_symmetry_multiplicity
 _atom_site_fract_x
 _atom_site_fract_y
 _atom_site_fract_z
 _atom_site_occupancy
  Pr  Pr0  1  0.27262395  0.49542645  0.87944924  1
  Pr  Pr1  1  0.72618502  0.51031172  0.12327861  1
  Pr  Pr2  1  0.76572192  0.02337220  0.87341916  1
  Pr  Pr3  1  0.23082336  0.95589803  0.12975500  1
  Mn  Mn4  1  0.30406095  0.44238100  0.61779573  1
  Mn  Mn5  1  0.68770491  0.45894055  0.35986338  1
  Mn  Mn6  1  0.00513878  0.96786194  0.01181530  1
  Mn  Mn7  1  0.79524712  0.01866908  0.62255695  1
  Mn  Mn8  1  0.20510505  0.04278318  0.38671604  1
  Mn  Mn9  1  0.48596648  0.46363594  0.98359296  1
  Sb  Sb10  1  0.89089790  0.96051729  0.44459964  1
  Sb  Sb11  1  0.11567387  0.98448544  0.54647686  1
  Sb  Sb12  1  0.04300851  0.52270663  0.82963889  1
  Sb  Sb13  1  0.96876056  0.48608333  0.19390618  1
  Sb  Sb14  1  0.40038651  0.52487091  0.44887781  1
  Sb  Sb15  1  0.60964332  0.48168646  0.54389823  1
  Sb  Sb16  1  0.52388686  0.95853876  0.79380946  1
  Sb  Sb17  1  0.47019033  0.03528160  0.18392377  1
  S  S18  1  0.92536956  0.01370000  0.79188706  1
  S  S19  1  0.05823074  0.97449040  0.18934723  1
  S  S20  1  0.41149041  0.98421616  0.96973875  1
  S  S21  1  0.57501014  0.01991543  0.00306635  1
  S  S22  1  0.16416490  0.01680618  0.89460292  1
  S  S23  1  0.82680853  0.97550791  0.10639099  1
  S  S24  1  0.09337776  0.47344359  0.63821694  1
  S  S25  1  0.91176756  0.48881745  0.35482780  1
  S  S26  1  0.73569446  0.00570005  0.30020793  1
  S  S27  1  0.26789707  0.98060027  0.70269751  1
  S  S28  1  0.17496841  0.49212218  0.44233026  1
  S  S29  1  0.81259346  0.50727032  0.53702889  1
  S  S30  1  0.43356012  0.47715609  0.78818911  1
  S  S31  1  0.55291115  0.51822725  0.17464405  1
  S  S32  1  0.92098282  0.51739055  0.99189185  1
  S  S33  1  0.08773825  0.48053724  0.03001644  1
  S  S34  1  0.66503823  0.52840342  0.89192285  1
  S  S35  1  0.33262346  0.48914697  0.11290719  1
  S  S36  1  0.59280900  0.00197927  0.63728249  1
  S  S37  1  0.40853860  0.98621114  0.33919885  1
  S  S38  1  0.24742349  0.49804623  0.31737141  1
  S  S39  1  0.76335980  0.50416400  0.69788676  1
  S  S40  1  0.66691745  0.98478673  0.44066142  1
  S  S41  1  0.32805735  0.95832442  0.54452074  1
