# generated using pymatgen
data_Pr2Mn3(SbS3)4
_symmetry_space_group_name_H-M   'P 1'
_cell_length_a   20.02960800
_cell_length_b   3.90410600
_cell_length_c   14.95364829
_cell_angle_alpha   90.00000000
_cell_angle_beta   126.33350609
_cell_angle_gamma   90.00000000
_symmetry_Int_Tables_number   1
_chemical_formula_structural   Pr2Mn3(SbS3)4
_chemical_formula_sum   'Pr4 Mn6 Sb8 S24'
_cell_volume   942.00006694
_cell_formula_units_Z   2
loop_
 _symmetry_equiv_pos_site_id
 _symmetry_equiv_pos_as_xyz
  1  'x, y, z'
loop_
 _atom_site_type_symbol
 _atom_site_label
 _atom_site_symmetry_multiplicity
 _atom_site_fract_x
 _atom_site_fract_y
 _atom_site_fract_z
 _atom_site_occupancy
  Pr  Pr0  1  0.27259734  0.49573252  0.87939567  1
  Pr  Pr1  1  0.72614202  0.50992051  0.12334940  1
  Pr  Pr2  1  0.76577785  0.02318275  0.87341751  1
  Pr  Pr3  1  0.23081142  0.95568476  0.12960044  1
  Mn  Mn4  1  0.30383162  0.44244945  0.61773110  1
  Mn  Mn5  1  0.68781507  0.45842010  0.36033991  1
  Mn  Mn6  1  0.00493982  0.96877402  0.01180577  1
  Mn  Mn7  1  0.79553972  0.01907520  0.62265776  1
  Mn  Mn8  1  0.20513107  0.04300246  0.38700052  1
  Mn  Mn9  1  0.48585166  0.46292473  0.98342731  1
  Sb  Sb10  1  0.89079118  0.96099420  0.44459894  1
  Sb  Sb11  1  0.11566587  0.98407021  0.54642013  1
  Sb  Sb12  1  0.04308595  0.52236036  0.82964966  1
  Sb  Sb13  1  0.96871060  0.48605271  0.19409723  1
  Sb  Sb14  1  0.40043290  0.52516076  0.44891738  1
  Sb  Sb15  1  0.60958256  0.48219794  0.54377134  1
  Sb  Sb16  1  0.52375455  0.95970206  0.79364008  1
  Sb  Sb17  1  0.47014328  0.03561306  0.18393311  1
  S  S18  1  0.92549971  0.01553759  0.79189240  1
  S  S19  1  0.05813842  0.97523517  0.18914298  1
  S  S20  1  0.41164344  0.98414931  0.96984808  1
  S  S21  1  0.57514344  0.01958312  0.00336305  1
  S  S22  1  0.16420971  0.01660576  0.89458866  1
  S  S23  1  0.82671805  0.97494399  0.10638719  1
  S  S24  1  0.09324095  0.47206106  0.63802467  1
  S  S25  1  0.91177910  0.48925938  0.35475158  1
  S  S26  1  0.73584566  0.00446800  0.30017449  1
  S  S27  1  0.26805295  0.97969234  0.70292216  1
  S  S28  1  0.17482042  0.49300239  0.44239498  1
  S  S29  1  0.81245247  0.50693534  0.53727156  1
  S  S30  1  0.43363088  0.47806401  0.78825793  1
  S  S31  1  0.55263727  0.51890477  0.17458079  1
  S  S32  1  0.92105436  0.51734143  0.99165098  1
  S  S33  1  0.08759288  0.48108249  0.02979050  1
  S  S34  1  0.66517537  0.52795308  0.89184281  1
  S  S35  1  0.33252323  0.48842135  0.11293405  1
  S  S36  1  0.59290400  0.00198228  0.63757684  1
  S  S37  1  0.40838830  0.98488117  0.33907132  1
  S  S38  1  0.24758125  0.49695188  0.31753701  1
  S  S39  1  0.76305600  0.50466070  0.69770840  1
  S  S40  1  0.66703547  0.98475331  0.44092712  1
  S  S41  1  0.32811432  0.95890422  0.54448207  1
