# generated using pymatgen
data_Pr2Mn3(SbS3)4
_symmetry_space_group_name_H-M   'P 1'
_cell_length_a   20.02960800
_cell_length_b   3.90410600
_cell_length_c   14.95364829
_cell_angle_alpha   90.00000000
_cell_angle_beta   126.33350609
_cell_angle_gamma   90.00000000
_symmetry_Int_Tables_number   1
_chemical_formula_structural   Pr2Mn3(SbS3)4
_chemical_formula_sum   'Pr4 Mn6 Sb8 S24'
_cell_volume   942.00006694
_cell_formula_units_Z   2
loop_
 _symmetry_equiv_pos_site_id
 _symmetry_equiv_pos_as_xyz
  1  'x, y, z'
loop_
 _atom_site_type_symbol
 _atom_site_label
 _atom_site_symmetry_multiplicity
 _atom_site_fract_x
 _atom_site_fract_y
 _atom_site_fract_z
 _atom_site_occupancy
  Pr  Pr0  1  0.27258974  0.49618213  0.87933856  1
  Pr  Pr1  1  0.72607927  0.50982415  0.12329071  1
  Pr  Pr2  1  0.76581891  0.02324050  0.87341677  1
  Pr  Pr3  1  0.23078411  0.95539722  0.12947160  1
  Mn  Mn4  1  0.30358545  0.44239320  0.61771458  1
  Mn  Mn5  1  0.68786037  0.45805865  0.36070464  1
  Mn  Mn6  1  0.00470864  0.96940237  0.01170469  1
  Mn  Mn7  1  0.79593431  0.01949396  0.62281220  1
  Mn  Mn8  1  0.20513880  0.04379554  0.38723914  1
  Mn  Mn9  1  0.48565239  0.46237325  0.98304567  1
  Sb  Sb10  1  0.89073214  0.96144902  0.44466416  1
  Sb  Sb11  1  0.11563888  0.98380817  0.54636206  1
  Sb  Sb12  1  0.04318702  0.52202855  0.82970752  1
  Sb  Sb13  1  0.96865018  0.48619867  0.19427400  1
  Sb  Sb14  1  0.40044825  0.52545504  0.44889283  1
  Sb  Sb15  1  0.60960186  0.48267338  0.54363880  1
  Sb  Sb16  1  0.52364869  0.96095819  0.79344939  1
  Sb  Sb17  1  0.47007531  0.03590615  0.18389479  1
  S  S18  1  0.92571608  0.01728806  0.79201249  1
  S  S19  1  0.05820191  0.97603393  0.18921416  1
  S  S20  1  0.41194534  0.98379229  0.97011685  1
  S  S21  1  0.57525772  0.01945683  0.00371172  1
  S  S22  1  0.16427806  0.01641617  0.89457803  1
  S  S23  1  0.82668681  0.97507114  0.10647964  1
  S  S24  1  0.09312091  0.47108721  0.63782609  1
  S  S25  1  0.91185666  0.48955148  0.35480706  1
  S  S26  1  0.73580834  0.00318163  0.29999546  1
  S  S27  1  0.26816626  0.97896318  0.70311999  1
  S  S28  1  0.17467229  0.49373285  0.44239785  1
  S  S29  1  0.81234312  0.50614352  0.53758564  1
  S  S30  1  0.43373786  0.47864194  0.78842491  1
  S  S31  1  0.55246245  0.51963334  0.17449075  1
  S  S32  1  0.92107195  0.51741632  0.99138845  1
  S  S33  1  0.08735714  0.48131316  0.02949043  1
  S  S34  1  0.66535278  0.52733992  0.89178323  1
  S  S35  1  0.33239701  0.48763512  0.11274780  1
  S  S36  1  0.59310234  0.00174355  0.63804512  1
  S  S37  1  0.40824587  0.98396258  0.33896466  1
  S  S38  1  0.24773001  0.49552631  0.31768820  1
  S  S39  1  0.76284135  0.50509376  0.69765850  1
  S  S40  1  0.66709835  0.98505213  0.44125969  1
  S  S41  1  0.32817793  0.95933231  0.54449119  1
