# generated using pymatgen
data_Pr2Mn3(SbS3)4
_symmetry_space_group_name_H-M   'P 1'
_cell_length_a   20.02960800
_cell_length_b   3.90410600
_cell_length_c   14.95364829
_cell_angle_alpha   90.00000000
_cell_angle_beta   126.33350609
_cell_angle_gamma   90.00000000
_symmetry_Int_Tables_number   1
_chemical_formula_structural   Pr2Mn3(SbS3)4
_chemical_formula_sum   'Pr4 Mn6 Sb8 S24'
_cell_volume   942.00006694
_cell_formula_units_Z   2
loop_
 _symmetry_equiv_pos_site_id
 _symmetry_equiv_pos_as_xyz
  1  'x, y, z'
loop_
 _atom_site_type_symbol
 _atom_site_label
 _atom_site_symmetry_multiplicity
 _atom_site_fract_x
 _atom_site_fract_y
 _atom_site_fract_z
 _atom_site_occupancy
  Pr  Pr0  1  0.27257486  0.49668003  0.87924254  1
  Pr  Pr1  1  0.72608252  0.50955979  0.12318442  1
  Pr  Pr2  1  0.76582737  0.02308904  0.87339740  1
  Pr  Pr3  1  0.23074335  0.95539645  0.12933414  1
  Mn  Mn4  1  0.30342529  0.44242261  0.61773405  1
  Mn  Mn5  1  0.68790954  0.45794042  0.36111532  1
  Mn  Mn6  1  0.00450592  0.97018614  0.01170445  1
  Mn  Mn7  1  0.79632845  0.01983168  0.62287616  1
  Mn  Mn8  1  0.20498264  0.04429976  0.38736247  1
  Mn  Mn9  1  0.48546566  0.46168649  0.98263759  1
  Sb  Sb10  1  0.89066996  0.96167452  0.44475941  1
  Sb  Sb11  1  0.11563892  0.98356012  0.54629662  1
  Sb  Sb12  1  0.04328451  0.52176174  0.82978536  1
  Sb  Sb13  1  0.96857928  0.48628563  0.19443244  1
  Sb  Sb14  1  0.40048866  0.52565396  0.44887759  1
  Sb  Sb15  1  0.60965253  0.48310671  0.54348346  1
  Sb  Sb16  1  0.52356848  0.96198969  0.79326239  1
  Sb  Sb17  1  0.46996505  0.03639046  0.18379479  1
  S  S18  1  0.92582833  0.01850668  0.79202341  1
  S  S19  1  0.05825118  0.97661798  0.18912979  1
  S  S20  1  0.41208133  0.98296611  0.97020216  1
  S  S21  1  0.57534528  0.01933566  0.00398950  1
  S  S22  1  0.16428294  0.01565274  0.89457615  1
  S  S23  1  0.82673327  0.97499093  0.10659373  1
  S  S24  1  0.09302151  0.46997396  0.63773975  1
  S  S25  1  0.91203874  0.48996271  0.35487544  1
  S  S26  1  0.73587529  0.00207625  0.29976083  1
  S  S27  1  0.26815465  0.97835792  0.70317454  1
  S  S28  1  0.17454809  0.49446988  0.44245542  1
  S  S29  1  0.81233940  0.50560836  0.53797143  1
  S  S30  1  0.43384406  0.47900137  0.78862053  1
  S  S31  1  0.55219977  0.52012407  0.17443486  1
  S  S32  1  0.92114563  0.51792462  0.99128644  1
  S  S33  1  0.08706708  0.48149323  0.02923704  1
  S  S34  1  0.66551960  0.52629161  0.89178185  1
  S  S35  1  0.33238264  0.48646143  0.11260417  1
  S  S36  1  0.59322154  0.00148292  0.63843722  1
  S  S37  1  0.40800066  0.98346600  0.33881835  1
  S  S38  1  0.24779516  0.49385759  0.31786526  1
  S  S39  1  0.76274454  0.50572595  0.69767954  1
  S  S40  1  0.66710056  0.98575342  0.44155136  1
  S  S41  1  0.32836897  0.95994007  0.54448087  1
