# generated using pymatgen
data_Pr2Mn3(SbS3)4
_symmetry_space_group_name_H-M   'P 1'
_cell_length_a   20.02960800
_cell_length_b   3.90410600
_cell_length_c   14.95364829
_cell_angle_alpha   90.00000000
_cell_angle_beta   126.33350609
_cell_angle_gamma   90.00000000
_symmetry_Int_Tables_number   1
_chemical_formula_structural   Pr2Mn3(SbS3)4
_chemical_formula_sum   'Pr4 Mn6 Sb8 S24'
_cell_volume   942.00006694
_cell_formula_units_Z   2
loop_
 _symmetry_equiv_pos_site_id
 _symmetry_equiv_pos_as_xyz
  1  'x, y, z'
loop_
 _atom_site_type_symbol
 _atom_site_label
 _atom_site_symmetry_multiplicity
 _atom_site_fract_x
 _atom_site_fract_y
 _atom_site_fract_z
 _atom_site_occupancy
  Pr  Pr0  1  0.27253392  0.49713052  0.87910407  1
  Pr  Pr1  1  0.72614770  0.50943744  0.12317431  1
  Pr  Pr2  1  0.76585396  0.02295214  0.87336433  1
  Pr  Pr3  1  0.23061991  0.95539077  0.12911108  1
  Mn  Mn4  1  0.30334536  0.44250573  0.61778486  1
  Mn  Mn5  1  0.68791580  0.45817547  0.36149581  1
  Mn  Mn6  1  0.00430902  0.97116612  0.01165940  1
  Mn  Mn7  1  0.79662367  0.02008067  0.62288909  1
  Mn  Mn8  1  0.20484184  0.04496671  0.38744950  1
  Mn  Mn9  1  0.48535690  0.46130406  0.98237012  1
  Sb  Sb10  1  0.89061155  0.96172948  0.44485209  1
  Sb  Sb11  1  0.11560676  0.98359707  0.54624857  1
  Sb  Sb12  1  0.04340824  0.52149478  0.82985078  1
  Sb  Sb13  1  0.96851535  0.48628423  0.19449693  1
  Sb  Sb14  1  0.40053879  0.52588494  0.44888579  1
  Sb  Sb15  1  0.60962218  0.48352182  0.54323616  1
  Sb  Sb16  1  0.52344843  0.96299347  0.79306141  1
  Sb  Sb17  1  0.46984015  0.03678162  0.18369049  1
  S  S18  1  0.92604374  0.01973725  0.79220819  1
  S  S19  1  0.05825958  0.97745152  0.18901712  1
  S  S20  1  0.41214992  0.98237613  0.97027788  1
  S  S21  1  0.57531515  0.01930775  0.00405470  1
  S  S22  1  0.16431157  0.01512939  0.89451389  1
  S  S23  1  0.82676252  0.97451433  0.10663859  1
  S  S24  1  0.09298428  0.46878147  0.63781700  1
  S  S25  1  0.91221726  0.49034870  0.35499291  1
  S  S26  1  0.73588100  0.00103680  0.29932649  1
  S  S27  1  0.26811771  0.97849025  0.70336640  1
  S  S28  1  0.17436308  0.49534306  0.44231510  1
  S  S29  1  0.81242944  0.50505659  0.53823556  1
  S  S30  1  0.43411862  0.47896095  0.78897216  1
  S  S31  1  0.55190850  0.52010406  0.17411519  1
  S  S32  1  0.92115312  0.51828016  0.99131988  1
  S  S33  1  0.08677829  0.48224823  0.02889432  1
  S  S34  1  0.66568183  0.52595338  0.89185459  1
  S  S35  1  0.33234181  0.48528737  0.11249177  1
  S  S36  1  0.59341137  0.00128244  0.63899937  1
  S  S37  1  0.40771740  0.98255116  0.33874425  1
  S  S38  1  0.24769331  0.49224448  0.31794277  1
  S  S39  1  0.76270202  0.50666788  0.69777287  1
  S  S40  1  0.66715644  0.98683640  0.44189527  1
  S  S41  1  0.32859306  0.96033246  0.54466462  1
