# generated using pymatgen
data_Pr2Mn3(SbS3)4
_symmetry_space_group_name_H-M   'P 1'
_cell_length_a   20.02960800
_cell_length_b   3.90410600
_cell_length_c   14.95364829
_cell_angle_alpha   90.00000000
_cell_angle_beta   126.33350609
_cell_angle_gamma   90.00000000
_symmetry_Int_Tables_number   1
_chemical_formula_structural   Pr2Mn3(SbS3)4
_chemical_formula_sum   'Pr4 Mn6 Sb8 S24'
_cell_volume   942.00006694
_cell_formula_units_Z   2
loop_
 _symmetry_equiv_pos_site_id
 _symmetry_equiv_pos_as_xyz
  1  'x, y, z'
loop_
 _atom_site_type_symbol
 _atom_site_label
 _atom_site_symmetry_multiplicity
 _atom_site_fract_x
 _atom_site_fract_y
 _atom_site_fract_z
 _atom_site_occupancy
  Pr  Pr0  1  0.27247019  0.49740036  0.87900258  1
  Pr  Pr1  1  0.72619614  0.50949999  0.12320566  1
  Pr  Pr2  1  0.76594288  0.02293099  0.87339473  1
  Pr  Pr3  1  0.23055126  0.95542145  0.12896283  1
  Mn  Mn4  1  0.30326698  0.44205416  0.61784600  1
  Mn  Mn5  1  0.68784676  0.45839569  0.36176377  1
  Mn  Mn6  1  0.00415017  0.97199632  0.01159839  1
  Mn  Mn7  1  0.79698324  0.02010238  0.62302680  1
  Mn  Mn8  1  0.20476409  0.04549842  0.38754448  1
  Mn  Mn9  1  0.48523986  0.46090306  0.98214019  1
  Sb  Sb10  1  0.89061469  0.96170889  0.44497537  1
  Sb  Sb11  1  0.11559865  0.98362584  0.54624996  1
  Sb  Sb12  1  0.04352495  0.52114412  0.82991876  1
  Sb  Sb13  1  0.96845051  0.48617562  0.19456058  1
  Sb  Sb14  1  0.40066248  0.52636176  0.44899265  1
  Sb  Sb15  1  0.60958023  0.48412771  0.54306021  1
  Sb  Sb16  1  0.52340099  0.96395915  0.79283326  1
  Sb  Sb17  1  0.46971748  0.03725579  0.18358259  1
  S  S18  1  0.92617972  0.02071032  0.79233864  1
  S  S19  1  0.05822215  0.97836099  0.18906550  1
  S  S20  1  0.41221393  0.98172227  0.97037995  1
  S  S21  1  0.57522982  0.01905141  0.00397940  1
  S  S22  1  0.16442476  0.01478821  0.89445628  1
  S  S23  1  0.82675873  0.97421982  0.10666470  1
  S  S24  1  0.09288178  0.46797746  0.63784239  1
  S  S25  1  0.91233520  0.49080606  0.35510098  1
  S  S26  1  0.73584844  0.99995692  0.29894108  1
  S  S27  1  0.26806081  0.97903044  0.70360446  1
  S  S28  1  0.17422215  0.49611864  0.44222156  1
  S  S29  1  0.81240878  0.50470478  0.53830068  1
  S  S30  1  0.43441902  0.47926798  0.78948729  1
  S  S31  1  0.55163533  0.52041427  0.17381954  1
  S  S32  1  0.92115284  0.51882238  0.99128002  1
  S  S33  1  0.08662231  0.48282054  0.02872518  1
  S  S34  1  0.66574396  0.52605127  0.89193543  1
  S  S35  1  0.33230750  0.48494510  0.11230375  1
  S  S36  1  0.59356127  0.00095614  0.63947296  1
  S  S37  1  0.40742505  0.98166332  0.33853632  1
  S  S38  1  0.24751982  0.49029993  0.31787595  1
  S  S39  1  0.76263787  0.50779442  0.69786275  1
  S  S40  1  0.66722542  0.98782087  0.44230277  1
  S  S41  1  0.32865906  0.96095167  0.54467311  1
