# generated using pymatgen
data_Pr2Mn3(SbS3)4
_symmetry_space_group_name_H-M   'P 1'
_cell_length_a   20.02960800
_cell_length_b   3.90410600
_cell_length_c   14.95364829
_cell_angle_alpha   90.00000000
_cell_angle_beta   126.33350609
_cell_angle_gamma   90.00000000
_symmetry_Int_Tables_number   1
_chemical_formula_structural   Pr2Mn3(SbS3)4
_chemical_formula_sum   'Pr4 Mn6 Sb8 S24'
_cell_volume   942.00006694
_cell_formula_units_Z   2
loop_
 _symmetry_equiv_pos_site_id
 _symmetry_equiv_pos_as_xyz
  1  'x, y, z'
loop_
 _atom_site_type_symbol
 _atom_site_label
 _atom_site_symmetry_multiplicity
 _atom_site_fract_x
 _atom_site_fract_y
 _atom_site_fract_z
 _atom_site_occupancy
  Pr  Pr0  1  0.27239752  0.49750174  0.87884721  1
  Pr  Pr1  1  0.72623270  0.50929290  0.12327367  1
  Pr  Pr2  1  0.76593618  0.02315983  0.87331412  1
  Pr  Pr3  1  0.23051458  0.95532407  0.12885464  1
  Mn  Mn4  1  0.30314419  0.44147506  0.61789527  1
  Mn  Mn5  1  0.68782506  0.45842101  0.36206305  1
  Mn  Mn6  1  0.00403652  0.97294072  0.01159525  1
  Mn  Mn7  1  0.79730658  0.02009667  0.62313051  1
  Mn  Mn8  1  0.20474430  0.04550866  0.38772854  1
  Mn  Mn9  1  0.48510881  0.46106202  0.98191735  1
  Sb  Sb10  1  0.89060971  0.96176582  0.44505073  1
  Sb  Sb11  1  0.11555276  0.98358826  0.54628613  1
  Sb  Sb12  1  0.04365777  0.52063030  0.83001201  1
  Sb  Sb13  1  0.96835579  0.48600609  0.19452037  1
  Sb  Sb14  1  0.40075917  0.52684549  0.44907369  1
  Sb  Sb15  1  0.60953309  0.48458286  0.54282952  1
  Sb  Sb16  1  0.52330631  0.96514831  0.79257528  1
  Sb  Sb17  1  0.46958125  0.03752971  0.18349169  1
  S  S18  1  0.92623356  0.02155883  0.79232205  1
  S  S19  1  0.05824374  0.97947921  0.18928185  1
  S  S20  1  0.41233558  0.98086972  0.97063719  1
  S  S21  1  0.57509213  0.01888341  0.00388234  1
  S  S22  1  0.16452812  0.01479551  0.89437746  1
  S  S23  1  0.82683204  0.97371864  0.10681573  1
  S  S24  1  0.09284372  0.46756398  0.63783317  1
  S  S25  1  0.91247261  0.49102202  0.35515101  1
  S  S26  1  0.73587389  0.99904560  0.29867293  1
  S  S27  1  0.26797283  0.97956666  0.70354647  1
  S  S28  1  0.17420282  0.49703611  0.44219859  1
  S  S29  1  0.81225692  0.50410601  0.53824224  1
  S  S30  1  0.43469551  0.47917896  0.78997667  1
  S  S31  1  0.55119713  0.52052497  0.17333584  1
  S  S32  1  0.92103743  0.51868799  0.99110435  1
  S  S33  1  0.08647558  0.48343844  0.02860974  1
  S  S34  1  0.66579773  0.52583365  0.89204395  1
  S  S35  1  0.33205104  0.48445130  0.11201163  1
  S  S36  1  0.59374086  0.00045600  0.63997082  1
  S  S37  1  0.40705560  0.98119767  0.33831485  1
  S  S38  1  0.24729214  0.48772774  0.31787073  1
  S  S39  1  0.76258170  0.50858372  0.69792712  1
  S  S40  1  0.66742088  0.98877741  0.44292411  1
  S  S41  1  0.32872461  0.96137622  0.54458341  1
