# generated using pymatgen
data_Pr2Mn3(SbS3)4
_symmetry_space_group_name_H-M   'P 1'
_cell_length_a   20.02960800
_cell_length_b   3.90410600
_cell_length_c   14.95364829
_cell_angle_alpha   90.00000000
_cell_angle_beta   126.33350609
_cell_angle_gamma   90.00000000
_symmetry_Int_Tables_number   1
_chemical_formula_structural   Pr2Mn3(SbS3)4
_chemical_formula_sum   'Pr4 Mn6 Sb8 S24'
_cell_volume   942.00006694
_cell_formula_units_Z   2
loop_
 _symmetry_equiv_pos_site_id
 _symmetry_equiv_pos_as_xyz
  1  'x, y, z'
loop_
 _atom_site_type_symbol
 _atom_site_label
 _atom_site_symmetry_multiplicity
 _atom_site_fract_x
 _atom_site_fract_y
 _atom_site_fract_z
 _atom_site_occupancy
  Pr  Pr0  1  0.27236175  0.49735335  0.87873469  1
  Pr  Pr1  1  0.72629738  0.50906994  0.12343895  1
  Pr  Pr2  1  0.76598429  0.02339392  0.87322732  1
  Pr  Pr3  1  0.23046340  0.95555596  0.12875640  1
  Mn  Mn4  1  0.30304376  0.44109224  0.61807964  1
  Mn  Mn5  1  0.68780458  0.45820346  0.36226487  1
  Mn  Mn6  1  0.00389417  0.97384424  0.01158215  1
  Mn  Mn7  1  0.79758439  0.02030823  0.62325113  1
  Mn  Mn8  1  0.20460237  0.04573145  0.38781847  1
  Mn  Mn9  1  0.48497274  0.46154899  0.98171129  1
  Sb  Sb10  1  0.89058293  0.96193340  0.44515182  1
  Sb  Sb11  1  0.11549720  0.98337413  0.54634645  1
  Sb  Sb12  1  0.04372763  0.52008169  0.83007043  1
  Sb  Sb13  1  0.96828870  0.48600593  0.19451047  1
  Sb  Sb14  1  0.40082674  0.52701094  0.44914988  1
  Sb  Sb15  1  0.60949403  0.48473790  0.54265376  1
  Sb  Sb16  1  0.52317444  0.96622961  0.79229658  1
  Sb  Sb17  1  0.46954016  0.03768272  0.18345938  1
  S  S18  1  0.92628527  0.02171096  0.79242356  1
  S  S19  1  0.05823116  0.98012863  0.18935118  1
  S  S20  1  0.41249287  0.97987660  0.97089123  1
  S  S21  1  0.57498690  0.01874862  0.00371311  1
  S  S22  1  0.16445879  0.01513358  0.89425818  1
  S  S23  1  0.82683654  0.97308370  0.10689462  1
  S  S24  1  0.09277756  0.46713026  0.63782776  1
  S  S25  1  0.91268142  0.49139231  0.35529071  1
  S  S26  1  0.73585064  0.99869992  0.29849806  1
  S  S27  1  0.26783935  0.98051356  0.70345108  1
  S  S28  1  0.17422126  0.49836945  0.44215481  1
  S  S29  1  0.81206338  0.50384739  0.53814512  1
  S  S30  1  0.43502824  0.47909176  0.79051444  1
  S  S31  1  0.55085926  0.52030626  0.17286193  1
  S  S32  1  0.92101177  0.51869596  0.99088322  1
  S  S33  1  0.08647052  0.48428154  0.02858605  1
  S  S34  1  0.66582491  0.52537235  0.89208845  1
  S  S35  1  0.33178032  0.48383822  0.11164783  1
  S  S36  1  0.59392634  0.00022002  0.64048146  1
  S  S37  1  0.40674882  0.98117819  0.33824998  1
  S  S38  1  0.24706870  0.48540035  0.31783765  1
  S  S39  1  0.76255143  0.50959815  0.69797245  1
  S  S40  1  0.66754714  0.98931246  0.44343551  1
  S  S41  1  0.32867917  0.96106869  0.54448205  1
