# generated using pymatgen
data_Pr2Mn3(SbS3)4
_symmetry_space_group_name_H-M   'P 1'
_cell_length_a   20.02960800
_cell_length_b   3.90410600
_cell_length_c   14.95364829
_cell_angle_alpha   90.00000000
_cell_angle_beta   126.33350609
_cell_angle_gamma   90.00000000
_symmetry_Int_Tables_number   1
_chemical_formula_structural   Pr2Mn3(SbS3)4
_chemical_formula_sum   'Pr4 Mn6 Sb8 S24'
_cell_volume   942.00006694
_cell_formula_units_Z   2
loop_
 _symmetry_equiv_pos_site_id
 _symmetry_equiv_pos_as_xyz
  1  'x, y, z'
loop_
 _atom_site_type_symbol
 _atom_site_label
 _atom_site_symmetry_multiplicity
 _atom_site_fract_x
 _atom_site_fract_y
 _atom_site_fract_z
 _atom_site_occupancy
  Pr  Pr0  1  0.27236607  0.49733224  0.87863893  1
  Pr  Pr1  1  0.72631851  0.50900848  0.12361959  1
  Pr  Pr2  1  0.76597959  0.02353230  0.87307345  1
  Pr  Pr3  1  0.23039539  0.95605594  0.12869045  1
  Mn  Mn4  1  0.30286899  0.44091663  0.61819189  1
  Mn  Mn5  1  0.68783889  0.45803280  0.36246108  1
  Mn  Mn6  1  0.00376490  0.97448704  0.01155006  1
  Mn  Mn7  1  0.79778455  0.02029027  0.62324650  1
  Mn  Mn8  1  0.20450265  0.04583799  0.38787071  1
  Mn  Mn9  1  0.48482257  0.46213767  0.98150921  1
  Sb  Sb10  1  0.89056853  0.96221453  0.44523445  1
  Sb  Sb11  1  0.11537357  0.98318516  0.54634281  1
  Sb  Sb12  1  0.04375523  0.51953829  0.83009050  1
  Sb  Sb13  1  0.96822050  0.48583684  0.19450533  1
  Sb  Sb14  1  0.40082840  0.52722565  0.44921106  1
  Sb  Sb15  1  0.60941921  0.48473572  0.54250619  1
  Sb  Sb16  1  0.52303368  0.96719649  0.79202278  1
  Sb  Sb17  1  0.46951183  0.03795988  0.18343488  1
  S  S18  1  0.92630997  0.02175485  0.79263452  1
  S  S19  1  0.05827754  0.98070214  0.18944037  1
  S  S20  1  0.41267550  0.97894375  0.97109927  1
  S  S21  1  0.57486873  0.01840684  0.00372290  1
  S  S22  1  0.16432976  0.01517977  0.89408619  1
  S  S23  1  0.82691058  0.97273795  0.10712771  1
  S  S24  1  0.09270585  0.46663892  0.63773166  1
  S  S25  1  0.91282717  0.49175140  0.35534164  1
  S  S26  1  0.73593803  0.99836718  0.29847722  1
  S  S27  1  0.26777132  0.98093218  0.70340175  1
  S  S28  1  0.17411910  0.49982724  0.44197253  1
  S  S29  1  0.81192427  0.50375639  0.53798566  1
  S  S30  1  0.43539210  0.47842977  0.79095040  1
  S  S31  1  0.55047878  0.51993580  0.17246265  1
  S  S32  1  0.92102518  0.51829939  0.99083749  1
  S  S33  1  0.08652043  0.48508558  0.02864889  1
  S  S34  1  0.66582835  0.52494606  0.89207122  1
  S  S35  1  0.33153842  0.48303442  0.11133335  1
  S  S36  1  0.59405845  0.99972719  0.64091421  1
  S  S37  1  0.40646782  0.98121051  0.33817870  1
  S  S38  1  0.24691339  0.48339755  0.31778089  1
  S  S39  1  0.76252599  0.50986486  0.69802557  1
  S  S40  1  0.66762851  0.98954693  0.44383463  1
  S  S41  1  0.32869865  0.96065417  0.54452225  1
