# generated using pymatgen
data_Pr2Mn3(SbS3)4
_symmetry_space_group_name_H-M   'P 1'
_cell_length_a   20.02960800
_cell_length_b   3.90410600
_cell_length_c   14.95364829
_cell_angle_alpha   90.00000000
_cell_angle_beta   126.33350609
_cell_angle_gamma   90.00000000
_symmetry_Int_Tables_number   1
_chemical_formula_structural   Pr2Mn3(SbS3)4
_chemical_formula_sum   'Pr4 Mn6 Sb8 S24'
_cell_volume   942.00006694
_cell_formula_units_Z   2
loop_
 _symmetry_equiv_pos_site_id
 _symmetry_equiv_pos_as_xyz
  1  'x, y, z'
loop_
 _atom_site_type_symbol
 _atom_site_label
 _atom_site_symmetry_multiplicity
 _atom_site_fract_x
 _atom_site_fract_y
 _atom_site_fract_z
 _atom_site_occupancy
  Pr  Pr0  1  0.27237087  0.49749234  0.87865028  1
  Pr  Pr1  1  0.72629233  0.50896762  0.12371992  1
  Pr  Pr2  1  0.76591090  0.02387537  0.87289804  1
  Pr  Pr3  1  0.23032173  0.95646685  0.12862440  1
  Mn  Mn4  1  0.30273166  0.44093958  0.61839640  1
  Mn  Mn5  1  0.68791614  0.45788603  0.36274790  1
  Mn  Mn6  1  0.00369563  0.97482058  0.01163539  1
  Mn  Mn7  1  0.79791280  0.02066213  0.62310141  1
  Mn  Mn8  1  0.20451891  0.04600681  0.38799615  1
  Mn  Mn9  1  0.48470634  0.46272215  0.98150287  1
  Sb  Sb10  1  0.89054665  0.96248622  0.44530971  1
  Sb  Sb11  1  0.11525038  0.98316588  0.54636293  1
  Sb  Sb12  1  0.04380824  0.51888549  0.83012076  1
  Sb  Sb13  1  0.96817767  0.48567226  0.19452117  1
  Sb  Sb14  1  0.40083283  0.52759320  0.44927261  1
  Sb  Sb15  1  0.60934421  0.48474832  0.54236453  1
  Sb  Sb16  1  0.52293330  0.96840102  0.79174299  1
  Sb  Sb17  1  0.46948409  0.03787146  0.18335164  1
  S  S18  1  0.92635162  0.02176801  0.79277508  1
  S  S19  1  0.05829027  0.98119740  0.18956793  1
  S  S20  1  0.41294820  0.97814758  0.97125491  1
  S  S21  1  0.57478714  0.01831830  0.00374037  1
  S  S22  1  0.16421793  0.01496787  0.89395580  1
  S  S23  1  0.82699381  0.97257017  0.10735333  1
  S  S24  1  0.09258744  0.46642920  0.63770138  1
  S  S25  1  0.91295261  0.49171209  0.35532485  1
  S  S26  1  0.73599771  0.99780845  0.29842796  1
  S  S27  1  0.26762175  0.98090848  0.70316951  1
  S  S28  1  0.17407537  0.50139769  0.44182313  1
  S  S29  1  0.81185394  0.50378822  0.53781871  1
  S  S30  1  0.43567899  0.47791060  0.79131517  1
  S  S31  1  0.55009053  0.51961636  0.17205689  1
  S  S32  1  0.92111087  0.51817369  0.99081699  1
  S  S33  1  0.08670127  0.48556016  0.02885848  1
  S  S34  1  0.66585979  0.52448616  0.89200935  1
  S  S35  1  0.33118014  0.48193587  0.11096408  1
  S  S36  1  0.59419589  0.99957994  0.64124914  1
  S  S37  1  0.40618373  0.98087874  0.33802150  1
  S  S38  1  0.24677012  0.48158093  0.31780419  1
  S  S39  1  0.76251780  0.50954387  0.69797241  1
  S  S40  1  0.66767637  0.98953922  0.44428206  1
  S  S41  1  0.32858026  0.96055839  0.54455731  1
