# generated using pymatgen
data_Pr2Mn3(SbS3)4
_symmetry_space_group_name_H-M   'P 1'
_cell_length_a   20.02960800
_cell_length_b   3.90410600
_cell_length_c   14.95364829
_cell_angle_alpha   90.00000000
_cell_angle_beta   126.33350609
_cell_angle_gamma   90.00000000
_symmetry_Int_Tables_number   1
_chemical_formula_structural   Pr2Mn3(SbS3)4
_chemical_formula_sum   'Pr4 Mn6 Sb8 S24'
_cell_volume   942.00006694
_cell_formula_units_Z   2
loop_
 _symmetry_equiv_pos_site_id
 _symmetry_equiv_pos_as_xyz
  1  'x, y, z'
loop_
 _atom_site_type_symbol
 _atom_site_label
 _atom_site_symmetry_multiplicity
 _atom_site_fract_x
 _atom_site_fract_y
 _atom_site_fract_z
 _atom_site_occupancy
  Pr  Pr0  1  0.26228764  0.49006095  0.86680001  1
  Pr  Pr1  1  0.73901048  0.50614415  0.13724534  1
  Pr  Pr2  1  0.76128363  0.00745078  0.86209803  1
  Pr  Pr3  1  0.23884897  0.99237106  0.13968364  1
  Mn  Mn4  1  0.29876954  0.50578461  0.61857158  1
  Mn  Mn5  1  0.69741189  0.50762167  0.38109278  1
  Mn  Mn6  1  0.00202691  0.99931768  0.99864315  1
  Mn  Mn7  1  0.80325014  0.99528530  0.61497913  1
  Mn  Mn8  1  0.19879271  0.98155408  0.37912073  1
  Mn  Mn9  1  0.50247742  0.48608394  0.99806231  1
  Sb  Sb10  1  0.89436289  0.00951761  0.45425228  1
  Sb  Sb11  1  0.10832988  0.98161663  0.55119931  1
  Sb  Sb12  1  0.03811250  0.48606790  0.81519635  1
  Sb  Sb13  1  0.96139691  0.51274744  0.18764450  1
  Sb  Sb14  1  0.39540751  0.48768675  0.45714452  1
  Sb  Sb15  1  0.60717016  0.50199310  0.54968322  1
  Sb  Sb16  1  0.53659997  0.00305788  0.81509110  1
  Sb  Sb17  1  0.46202856  0.00165497  0.18097749  1
  S  S18  1  0.93665002  0.97980307  0.79829802  1
  S  S19  1  0.05975908  0.00226533  0.19141944  1
  S  S20  1  0.40594416  0.98976735  0.97880861  1
  S  S21  1  0.59365487  0.99693704  0.01590817  1
  S  S22  1  0.17146184  0.98605723  0.90244661  1
  S  S23  1  0.82869640  0.01474093  0.10628207  1
  S  S24  1  0.08447396  0.49004551  0.64433953  1
  S  S25  1  0.91370687  0.48238212  0.35975157  1
  S  S26  1  0.74375726  0.95364303  0.29638896  1
  S  S27  1  0.25550439  0.00073279  0.70114677  1
  S  S28  1  0.16201412  0.49446634  0.44633568  1
  S  S29  1  0.83057007  0.49188033  0.54776441  1
  S  S30  1  0.43573667  0.51010107  0.79902796  1
  S  S31  1  0.56033015  0.50361551  0.19204900  1
  S  S32  1  0.90143594  0.47726748  0.97546999  1
  S  S33  1  0.08998803  0.48131435  0.01727829  1
  S  S34  1  0.66498500  0.50108755  0.89570896  1
  S  S35  1  0.33204251  0.51512088  0.10105298  1
  S  S36  1  0.59255255  0.01545715  0.65014163  1
  S  S37  1  0.41350159  0.97945770  0.35854343  1
  S  S38  1  0.24363590  0.47172897  0.29807288  1
  S  S39  1  0.76279887  0.50482090  0.70121050  1
  S  S40  1  0.66531261  0.00785028  0.46132401  1
  S  S41  1  0.33251738  0.98289945  0.54208149  1
