# generated using pymatgen
data_Pr2Mn3(SbS3)4
_symmetry_space_group_name_H-M   'P 1'
_cell_length_a   20.02960800
_cell_length_b   3.90410600
_cell_length_c   14.95364829
_cell_angle_alpha   90.00000000
_cell_angle_beta   126.33350609
_cell_angle_gamma   90.00000000
_symmetry_Int_Tables_number   1
_chemical_formula_structural   Pr2Mn3(SbS3)4
_chemical_formula_sum   'Pr4 Mn6 Sb8 S24'
_cell_volume   942.00006694
_cell_formula_units_Z   2
loop_
 _symmetry_equiv_pos_site_id
 _symmetry_equiv_pos_as_xyz
  1  'x, y, z'
loop_
 _atom_site_type_symbol
 _atom_site_label
 _atom_site_symmetry_multiplicity
 _atom_site_fract_x
 _atom_site_fract_y
 _atom_site_fract_z
 _atom_site_occupancy
  Pr  Pr0  1  0.27236325  0.49775994  0.87864690  1
  Pr  Pr1  1  0.72622908  0.50933810  0.12385604  1
  Pr  Pr2  1  0.76578852  0.02414500  0.87261315  1
  Pr  Pr3  1  0.23023711  0.95718397  0.12860614  1
  Mn  Mn4  1  0.30265097  0.44114672  0.61859454  1
  Mn  Mn5  1  0.68800016  0.45780474  0.36296918  1
  Mn  Mn6  1  0.00356349  0.97452539  0.01168089  1
  Mn  Mn7  1  0.79803188  0.02057611  0.62290011  1
  Mn  Mn8  1  0.20452858  0.04613402  0.38807484  1
  Mn  Mn9  1  0.48456922  0.46307245  0.98155360  1
  Sb  Sb10  1  0.89046724  0.96278056  0.44528041  1
  Sb  Sb11  1  0.11519746  0.98296163  0.54645486  1
  Sb  Sb12  1  0.04382775  0.51803011  0.83014495  1
  Sb  Sb13  1  0.96817572  0.48554577  0.19458024  1
  Sb  Sb14  1  0.40093871  0.52803838  0.44943693  1
  Sb  Sb15  1  0.60927403  0.48473983  0.54229346  1
  Sb  Sb16  1  0.52282157  0.96943203  0.79145868  1
  Sb  Sb17  1  0.46942130  0.03780065  0.18326695  1
  S  S18  1  0.92650042  0.02159558  0.79304867  1
  S  S19  1  0.05827483  0.98140668  0.18955558  1
  S  S20  1  0.41312704  0.97706651  0.97136091  1
  S  S21  1  0.57470473  0.01805241  0.00370722  1
  S  S22  1  0.16411392  0.01471188  0.89369854  1
  S  S23  1  0.82710565  0.97280028  0.10743202  1
  S  S24  1  0.09254569  0.46610087  0.63773625  1
  S  S25  1  0.91315570  0.49158643  0.35537119  1
  S  S26  1  0.73607491  0.99718609  0.29841368  1
  S  S27  1  0.26753472  0.98094156  0.70280330  1
  S  S28  1  0.17407903  0.50321813  0.44153995  1
  S  S29  1  0.81174573  0.50452690  0.53768268  1
  S  S30  1  0.43591007  0.47705816  0.79171578  1
  S  S31  1  0.54968120  0.51942001  0.17163497  1
  S  S32  1  0.92120173  0.51791206  0.99065891  1
  S  S33  1  0.08683489  0.48553587  0.02902793  1
  S  S34  1  0.66593293  0.52426781  0.89187504  1
  S  S35  1  0.33078915  0.48090843  0.11046961  1
  S  S36  1  0.59435446  0.99981702  0.64158514  1
  S  S37  1  0.40591977  0.98065939  0.33793951  1
  S  S38  1  0.24671954  0.48005510  0.31783090  1
  S  S39  1  0.76244530  0.50914549  0.69777991  1
  S  S40  1  0.66775748  0.98942830  0.44463072  1
  S  S41  1  0.32845716  0.96026777  0.54465615  1
