# generated using pymatgen
data_Pr2Mn3(SbS3)4
_symmetry_space_group_name_H-M   'P 1'
_cell_length_a   20.02960800
_cell_length_b   3.90410600
_cell_length_c   14.95364829
_cell_angle_alpha   90.00000000
_cell_angle_beta   126.33350609
_cell_angle_gamma   90.00000000
_symmetry_Int_Tables_number   1
_chemical_formula_structural   Pr2Mn3(SbS3)4
_chemical_formula_sum   'Pr4 Mn6 Sb8 S24'
_cell_volume   942.00006694
_cell_formula_units_Z   2
loop_
 _symmetry_equiv_pos_site_id
 _symmetry_equiv_pos_as_xyz
  1  'x, y, z'
loop_
 _atom_site_type_symbol
 _atom_site_label
 _atom_site_symmetry_multiplicity
 _atom_site_fract_x
 _atom_site_fract_y
 _atom_site_fract_z
 _atom_site_occupancy
  Pr  Pr0  1  0.27242992  0.49810558  0.87867901  1
  Pr  Pr1  1  0.72620816  0.50968078  0.12402684  1
  Pr  Pr2  1  0.76567061  0.02443251  0.87230842  1
  Pr  Pr3  1  0.23016233  0.95810293  0.12860384  1
  Mn  Mn4  1  0.30257024  0.44102939  0.61865365  1
  Mn  Mn5  1  0.68809619  0.45794508  0.36316800  1
  Mn  Mn6  1  0.00350092  0.97454153  0.01162498  1
  Mn  Mn7  1  0.79814320  0.02057295  0.62269124  1
  Mn  Mn8  1  0.20451112  0.04613001  0.38805970  1
  Mn  Mn9  1  0.48450523  0.46339718  0.98168182  1
  Sb  Sb10  1  0.89039146  0.96286168  0.44522954  1
  Sb  Sb11  1  0.11518429  0.98294674  0.54658622  1
  Sb  Sb12  1  0.04384405  0.51743570  0.83023931  1
  Sb  Sb13  1  0.96817855  0.48526892  0.19456132  1
  Sb  Sb14  1  0.40104938  0.52848610  0.44958145  1
  Sb  Sb15  1  0.60916627  0.48438364  0.54215958  1
  Sb  Sb16  1  0.52271178  0.97040521  0.79117005  1
  Sb  Sb17  1  0.46929241  0.03739259  0.18314393  1
  S  S18  1  0.92673176  0.02127358  0.79328382  1
  S  S19  1  0.05826372  0.98142704  0.18952416  1
  S  S20  1  0.41331017  0.97625196  0.97154970  1
  S  S21  1  0.57468058  0.01753429  0.00361034  1
  S  S22  1  0.16403766  0.01486060  0.89356256  1
  S  S23  1  0.82733028  0.97285429  0.10760939  1
  S  S24  1  0.09247961  0.46578836  0.63769687  1
  S  S25  1  0.91352184  0.49079222  0.35558898  1
  S  S26  1  0.73611151  0.99678398  0.29835827  1
  S  S27  1  0.26733928  0.98125819  0.70248176  1
  S  S28  1  0.17416511  0.50519194  0.44130417  1
  S  S29  1  0.81153239  0.50504984  0.53746637  1
  S  S30  1  0.43601799  0.47691491  0.79190339  1
  S  S31  1  0.54937627  0.51936763  0.17134684  1
  S  S32  1  0.92124546  0.51755145  0.99051909  1
  S  S33  1  0.08691561  0.48498333  0.02908375  1
  S  S34  1  0.66596964  0.52395229  0.89174516  1
  S  S35  1  0.33038243  0.47997245  0.10994849  1
  S  S36  1  0.59446795  0.00003550  0.64180378  1
  S  S37  1  0.40560523  0.98047084  0.33774851  1
  S  S38  1  0.24665020  0.47838971  0.31785047  1
  S  S39  1  0.76242230  0.50900221  0.69771243  1
  S  S40  1  0.66790842  0.98935312  0.44498082  1
  S  S41  1  0.32837333  0.96004520  0.54471420  1
