# generated using pymatgen
data_Pr2Mn3(SbS3)4
_symmetry_space_group_name_H-M   'P 1'
_cell_length_a   20.02960800
_cell_length_b   3.90410600
_cell_length_c   14.95364829
_cell_angle_alpha   90.00000000
_cell_angle_beta   126.33350609
_cell_angle_gamma   90.00000000
_symmetry_Int_Tables_number   1
_chemical_formula_structural   Pr2Mn3(SbS3)4
_chemical_formula_sum   'Pr4 Mn6 Sb8 S24'
_cell_volume   942.00006694
_cell_formula_units_Z   2
loop_
 _symmetry_equiv_pos_site_id
 _symmetry_equiv_pos_as_xyz
  1  'x, y, z'
loop_
 _atom_site_type_symbol
 _atom_site_label
 _atom_site_symmetry_multiplicity
 _atom_site_fract_x
 _atom_site_fract_y
 _atom_site_fract_z
 _atom_site_occupancy
  Pr  Pr0  1  0.27247563  0.49826778  0.87863456  1
  Pr  Pr1  1  0.72624295  0.51007728  0.12426550  1
  Pr  Pr2  1  0.76557060  0.02480006  0.87204131  1
  Pr  Pr3  1  0.23005595  0.95899808  0.12858644  1
  Mn  Mn4  1  0.30243089  0.44071874  0.61865933  1
  Mn  Mn5  1  0.68824701  0.45794475  0.36320701  1
  Mn  Mn6  1  0.00338374  0.97429979  0.01151272  1
  Mn  Mn7  1  0.79816510  0.02059506  0.62242466  1
  Mn  Mn8  1  0.20448179  0.04626415  0.38791286  1
  Mn  Mn9  1  0.48442258  0.46403503  0.98182116  1
  Sb  Sb10  1  0.89037282  0.96288720  0.44525666  1
  Sb  Sb11  1  0.11513811  0.98317991  0.54668492  1
  Sb  Sb12  1  0.04380554  0.51706571  0.83030296  1
  Sb  Sb13  1  0.96818532  0.48522236  0.19453805  1
  Sb  Sb14  1  0.40114273  0.52867830  0.44971514  1
  Sb  Sb15  1  0.60903820  0.48397626  0.54204572  1
  Sb  Sb16  1  0.52266506  0.97118110  0.79094312  1
  Sb  Sb17  1  0.46920101  0.03712504  0.18301779  1
  S  S18  1  0.92695908  0.02061900  0.79356092  1
  S  S19  1  0.05823887  0.98140054  0.18942565  1
  S  S20  1  0.41350639  0.97563495  0.97189415  1
  S  S21  1  0.57462434  0.01759429  0.00335894  1
  S  S22  1  0.16399187  0.01496217  0.89351985  1
  S  S23  1  0.82759538  0.97296793  0.10782543  1
  S  S24  1  0.09238083  0.46528897  0.63757159  1
  S  S25  1  0.91376316  0.49034185  0.35573436  1
  S  S26  1  0.73615251  0.99632635  0.29834359  1
  S  S27  1  0.26718265  0.98160991  0.70216973  1
  S  S28  1  0.17431340  0.50757990  0.44121431  1
  S  S29  1  0.81140301  0.50552523  0.53735895  1
  S  S30  1  0.43585427  0.47641471  0.79176287  1
  S  S31  1  0.54913528  0.51915059  0.17112832  1
  S  S32  1  0.92136254  0.51757600  0.99044903  1
  S  S33  1  0.08698322  0.48384200  0.02911168  1
  S  S34  1  0.66602823  0.52436597  0.89171449  1
  S  S35  1  0.33021012  0.47846425  0.10959386  1
  S  S36  1  0.59465057  0.00015944  0.64205530  1
  S  S37  1  0.40530236  0.98030118  0.33755139  1
  S  S38  1  0.24648269  0.47694305  0.31788507  1
  S  S39  1  0.76241540  0.50880817  0.69756547  1
  S  S40  1  0.66806436  0.98941739  0.44544655  1
  S  S41  1  0.32826479  0.96007946  0.54480075  1
