# generated using pymatgen
data_Pr2Mn3(SbS3)4
_symmetry_space_group_name_H-M   'P 1'
_cell_length_a   20.02960800
_cell_length_b   3.90410600
_cell_length_c   14.95364829
_cell_angle_alpha   90.00000000
_cell_angle_beta   126.33350609
_cell_angle_gamma   90.00000000
_symmetry_Int_Tables_number   1
_chemical_formula_structural   Pr2Mn3(SbS3)4
_chemical_formula_sum   'Pr4 Mn6 Sb8 S24'
_cell_volume   942.00006694
_cell_formula_units_Z   2
loop_
 _symmetry_equiv_pos_site_id
 _symmetry_equiv_pos_as_xyz
  1  'x, y, z'
loop_
 _atom_site_type_symbol
 _atom_site_label
 _atom_site_symmetry_multiplicity
 _atom_site_fract_x
 _atom_site_fract_y
 _atom_site_fract_z
 _atom_site_occupancy
  Pr  Pr0  1  0.27257884  0.49870669  0.87869217  1
  Pr  Pr1  1  0.72627358  0.51057386  0.12439968  1
  Pr  Pr2  1  0.76547822  0.02499386  0.87186050  1
  Pr  Pr3  1  0.22987933  0.95981414  0.12854063  1
  Mn  Mn4  1  0.30222920  0.44042156  0.61866882  1
  Mn  Mn5  1  0.68843466  0.45796378  0.36333397  1
  Mn  Mn6  1  0.00336106  0.97418785  0.01144125  1
  Mn  Mn7  1  0.79810107  0.02090441  0.62203675  1
  Mn  Mn8  1  0.20453619  0.04650449  0.38782731  1
  Mn  Mn9  1  0.48432837  0.46449256  0.98186079  1
  Sb  Sb10  1  0.89028698  0.96297521  0.44519741  1
  Sb  Sb11  1  0.11505944  0.98338486  0.54680246  1
  Sb  Sb12  1  0.04373716  0.51687910  0.83035273  1
  Sb  Sb13  1  0.96816358  0.48557878  0.19445576  1
  Sb  Sb14  1  0.40131355  0.52871220  0.44990127  1
  Sb  Sb15  1  0.60889449  0.48359038  0.54194607  1
  Sb  Sb16  1  0.52270659  0.97179007  0.79080652  1
  Sb  Sb17  1  0.46909732  0.03692315  0.18287868  1
  S  S18  1  0.92716206  0.02005399  0.79374993  1
  S  S19  1  0.05824116  0.98141530  0.18929466  1
  S  S20  1  0.41363159  0.97507064  0.97212757  1
  S  S21  1  0.57461550  0.01771894  0.00315015  1
  S  S22  1  0.16395900  0.01505940  0.89345872  1
  S  S23  1  0.82790814  0.97291770  0.10807415  1
  S  S24  1  0.09216317  0.46478659  0.63742613  1
  S  S25  1  0.91403298  0.49007231  0.35594512  1
  S  S26  1  0.73622982  0.99587290  0.29841381  1
  S  S27  1  0.26700211  0.98156946  0.70190045  1
  S  S28  1  0.17435084  0.50980877  0.44106454  1
  S  S29  1  0.81127130  0.50570210  0.53719820  1
  S  S30  1  0.43575811  0.47565840  0.79172108  1
  S  S31  1  0.54891198  0.51900942  0.17086032  1
  S  S32  1  0.92155714  0.51723031  0.99052884  1
  S  S33  1  0.08704083  0.48264211  0.02922050  1
  S  S34  1  0.66608315  0.52499311  0.89159729  1
  S  S35  1  0.32990308  0.47711854  0.10916585  1
  S  S36  1  0.59493330  0.00035491  0.64231811  1
  S  S37  1  0.40495720  0.98044801  0.33734040  1
  S  S38  1  0.24642519  0.47650763  0.31794205  1
  S  S39  1  0.76241903  0.50893242  0.69748167  1
  S  S40  1  0.66807802  0.98950771  0.44580974  1
  S  S41  1  0.32836936  0.96001887  0.54499164  1
