# generated using pymatgen
data_Pr2Mn3(SbS3)4
_symmetry_space_group_name_H-M   'P 1'
_cell_length_a   20.02960800
_cell_length_b   3.90410600
_cell_length_c   14.95364829
_cell_angle_alpha   90.00000000
_cell_angle_beta   126.33350609
_cell_angle_gamma   90.00000000
_symmetry_Int_Tables_number   1
_chemical_formula_structural   Pr2Mn3(SbS3)4
_chemical_formula_sum   'Pr4 Mn6 Sb8 S24'
_cell_volume   942.00006694
_cell_formula_units_Z   2
loop_
 _symmetry_equiv_pos_site_id
 _symmetry_equiv_pos_as_xyz
  1  'x, y, z'
loop_
 _atom_site_type_symbol
 _atom_site_label
 _atom_site_symmetry_multiplicity
 _atom_site_fract_x
 _atom_site_fract_y
 _atom_site_fract_z
 _atom_site_occupancy
  Pr  Pr0  1  0.27263572  0.49887086  0.87871571  1
  Pr  Pr1  1  0.72626649  0.51116506  0.12456152  1
  Pr  Pr2  1  0.76539386  0.02505799  0.87175341  1
  Pr  Pr3  1  0.22979000  0.96050384  0.12857447  1
  Mn  Mn4  1  0.30205970  0.44045042  0.61857524  1
  Mn  Mn5  1  0.68854124  0.45782230  0.36338601  1
  Mn  Mn6  1  0.00328067  0.97406618  0.01124787  1
  Mn  Mn7  1  0.79798388  0.02056871  0.62169423  1
  Mn  Mn8  1  0.20456847  0.04663490  0.38772145  1
  Mn  Mn9  1  0.48428959  0.46505201  0.98197981  1
  Sb  Sb10  1  0.89021920  0.96310087  0.44511500  1
  Sb  Sb11  1  0.11495367  0.98350627  0.54681302  1
  Sb  Sb12  1  0.04375710  0.51686102  0.83044479  1
  Sb  Sb13  1  0.96814555  0.48580217  0.19446681  1
  Sb  Sb14  1  0.40145093  0.52899711  0.44998776  1
  Sb  Sb15  1  0.60879130  0.48311782  0.54191285  1
  Sb  Sb16  1  0.52270276  0.97245629  0.79063284  1
  Sb  Sb17  1  0.46900321  0.03694790  0.18273436  1
  S  S18  1  0.92743297  0.01951235  0.79401167  1
  S  S19  1  0.05835202  0.98151475  0.18930697  1
  S  S20  1  0.41375714  0.97439602  0.97241760  1
  S  S21  1  0.57462945  0.01817044  0.00296369  1
  S  S22  1  0.16390662  0.01499966  0.89335773  1
  S  S23  1  0.82805091  0.97233516  0.10820683  1
  S  S24  1  0.09203130  0.46467216  0.63724416  1
  S  S25  1  0.91435256  0.48983381  0.35615039  1
  S  S26  1  0.73625722  0.99565837  0.29847775  1
  S  S27  1  0.26675216  0.98169530  0.70159032  1
  S  S28  1  0.17435030  0.51155663  0.44089684  1
  S  S29  1  0.81124163  0.50611530  0.53713520  1
  S  S30  1  0.43561820  0.47474612  0.79162609  1
  S  S31  1  0.54863264  0.51921868  0.17063509  1
  S  S32  1  0.92175237  0.51671267  0.99060002  1
  S  S33  1  0.08699183  0.48114587  0.02919445  1
  S  S34  1  0.66618554  0.52568597  0.89167296  1
  S  S35  1  0.32964104  0.47603089  0.10885407  1
  S  S36  1  0.59513815  0.99992251  0.64243684  1
  S  S37  1  0.40447264  0.98075519  0.33694230  1
  S  S38  1  0.24635205  0.47624564  0.31808758  1
  S  S39  1  0.76247710  0.50846292  0.69754636  1
  S  S40  1  0.66815576  0.98940613  0.44621984  1
  S  S41  1  0.32856677  0.96023754  0.54521096  1
