# generated using pymatgen
data_Pr2Mn3(SbS3)4
_symmetry_space_group_name_H-M   'P 1'
_cell_length_a   20.02960800
_cell_length_b   3.90410600
_cell_length_c   14.95364829
_cell_angle_alpha   90.00000000
_cell_angle_beta   126.33350609
_cell_angle_gamma   90.00000000
_symmetry_Int_Tables_number   1
_chemical_formula_structural   Pr2Mn3(SbS3)4
_chemical_formula_sum   'Pr4 Mn6 Sb8 S24'
_cell_volume   942.00006694
_cell_formula_units_Z   2
loop_
 _symmetry_equiv_pos_site_id
 _symmetry_equiv_pos_as_xyz
  1  'x, y, z'
loop_
 _atom_site_type_symbol
 _atom_site_label
 _atom_site_symmetry_multiplicity
 _atom_site_fract_x
 _atom_site_fract_y
 _atom_site_fract_z
 _atom_site_occupancy
  Pr  Pr0  1  0.27265433  0.49909619  0.87876144  1
  Pr  Pr1  1  0.72625963  0.51156788  0.12472088  1
  Pr  Pr2  1  0.76538687  0.02501761  0.87173939  1
  Pr  Pr3  1  0.22969319  0.96102860  0.12852431  1
  Mn  Mn4  1  0.30192606  0.44051244  0.61851905  1
  Mn  Mn5  1  0.68862153  0.45756630  0.36342203  1
  Mn  Mn6  1  0.00318245  0.97425640  0.01105448  1
  Mn  Mn7  1  0.79791479  0.02009053  0.62142242  1
  Mn  Mn8  1  0.20457323  0.04663010  0.38764930  1
  Mn  Mn9  1  0.48431472  0.46540536  0.98210977  1
  Sb  Sb10  1  0.89017835  0.96310686  0.44505745  1
  Sb  Sb11  1  0.11487065  0.98357972  0.54680756  1
  Sb  Sb12  1  0.04372560  0.51651788  0.83049109  1
  Sb  Sb13  1  0.96813554  0.48610167  0.19446989  1
  Sb  Sb14  1  0.40158319  0.52923040  0.45008048  1
  Sb  Sb15  1  0.60871094  0.48243628  0.54182065  1
  Sb  Sb16  1  0.52266364  0.97290976  0.79046926  1
  Sb  Sb17  1  0.46895752  0.03691210  0.18261966  1
  S  S18  1  0.92775088  0.01906105  0.79443801  1
  S  S19  1  0.05848978  0.98191092  0.18928947  1
  S  S20  1  0.41385519  0.97372289  0.97275567  1
  S  S21  1  0.57453713  0.01885044  0.00278350  1
  S  S22  1  0.16391216  0.01513178  0.89338141  1
  S  S23  1  0.82805114  0.97257116  0.10825590  1
  S  S24  1  0.09189669  0.46491578  0.63704686  1
  S  S25  1  0.91454069  0.48989966  0.35626628  1
  S  S26  1  0.73628390  0.99526723  0.29845306  1
  S  S27  1  0.26657823  0.98149788  0.70134366  1
  S  S28  1  0.17433404  0.51294063  0.44076196  1
  S  S29  1  0.81113501  0.50604116  0.53707661  1
  S  S30  1  0.43547727  0.47452548  0.79156431  1
  S  S31  1  0.54846552  0.51946128  0.17048421  1
  S  S32  1  0.92170784  0.51630023  0.99058690  1
  S  S33  1  0.08696577  0.47959365  0.02919778  1
  S  S34  1  0.66621734  0.52623398  0.89164888  1
  S  S35  1  0.32943636  0.47529566  0.10869995  1
  S  S36  1  0.59538285  0.99957594  0.64265111  1
  S  S37  1  0.40405550  0.98103237  0.33664771  1
  S  S38  1  0.24631993  0.47599836  0.31832856  1
  S  S39  1  0.76252424  0.50834210  0.69764664  1
  S  S40  1  0.66814206  0.98892426  0.44652908  1
  S  S41  1  0.32885688  0.96056603  0.54558730  1
