# generated using pymatgen
data_Pr2Mn3(SbS3)4
_symmetry_space_group_name_H-M   'P 1'
_cell_length_a   20.02960800
_cell_length_b   3.90410600
_cell_length_c   14.95364829
_cell_angle_alpha   90.00000000
_cell_angle_beta   126.33350609
_cell_angle_gamma   90.00000000
_symmetry_Int_Tables_number   1
_chemical_formula_structural   Pr2Mn3(SbS3)4
_chemical_formula_sum   'Pr4 Mn6 Sb8 S24'
_cell_volume   942.00006694
_cell_formula_units_Z   2
loop_
 _symmetry_equiv_pos_site_id
 _symmetry_equiv_pos_as_xyz
  1  'x, y, z'
loop_
 _atom_site_type_symbol
 _atom_site_label
 _atom_site_symmetry_multiplicity
 _atom_site_fract_x
 _atom_site_fract_y
 _atom_site_fract_z
 _atom_site_occupancy
  Pr  Pr0  1  0.27264847  0.49933778  0.87878850  1
  Pr  Pr1  1  0.72621774  0.51190019  0.12490330  1
  Pr  Pr2  1  0.76543300  0.02510716  0.87180247  1
  Pr  Pr3  1  0.22965141  0.96144888  0.12857272  1
  Mn  Mn4  1  0.30165682  0.44050863  0.61834667  1
  Mn  Mn5  1  0.68863814  0.45740479  0.36338709  1
  Mn  Mn6  1  0.00302025  0.97411533  0.01076525  1
  Mn  Mn7  1  0.79783576  0.01957243  0.62109285  1
  Mn  Mn8  1  0.20450435  0.04676157  0.38751113  1
  Mn  Mn9  1  0.48438014  0.46571494  0.98233126  1
  Sb  Sb10  1  0.89016558  0.96324164  0.44499440  1
  Sb  Sb11  1  0.11481344  0.98360785  0.54683156  1
  Sb  Sb12  1  0.04368819  0.51615547  0.83053429  1
  Sb  Sb13  1  0.96812474  0.48615903  0.19439938  1
  Sb  Sb14  1  0.40171156  0.52951026  0.45016374  1
  Sb  Sb15  1  0.60861556  0.48169832  0.54166721  1
  Sb  Sb16  1  0.52269694  0.97323624  0.79040810  1
  Sb  Sb17  1  0.46883644  0.03695522  0.18240769  1
  S  S18  1  0.92801350  0.01855093  0.79476051  1
  S  S19  1  0.05866467  0.98275684  0.18928654  1
  S  S20  1  0.41394431  0.97307785  0.97297972  1
  S  S21  1  0.57432287  0.01910922  0.00245969  1
  S  S22  1  0.16396204  0.01471874  0.89357545  1
  S  S23  1  0.82818585  0.97272844  0.10837148  1
  S  S24  1  0.09173480  0.46515586  0.63683051  1
  S  S25  1  0.91459997  0.48995258  0.35646849  1
  S  S26  1  0.73625259  0.99499493  0.29847845  1
  S  S27  1  0.26646207  0.98124385  0.70097090  1
  S  S28  1  0.17425469  0.51449112  0.44059981  1
  S  S29  1  0.81095649  0.50514841  0.53691117  1
  S  S30  1  0.43538980  0.47434539  0.79160290  1
  S  S31  1  0.54827142  0.51963799  0.17035285  1
  S  S32  1  0.92166329  0.51626240  0.99068716  1
  S  S33  1  0.08696305  0.47820097  0.02933489  1
  S  S34  1  0.66628104  0.52653523  0.89174100  1
  S  S35  1  0.32926188  0.47456441  0.10850246  1
  S  S36  1  0.59555528  0.99888000  0.64276515  1
  S  S37  1  0.40367715  0.98146836  0.33652212  1
  S  S38  1  0.24628706  0.47588824  0.31844484  1
  S  S39  1  0.76252685  0.50775121  0.69755754  1
  S  S40  1  0.66803191  0.98807172  0.44666991  1
  S  S41  1  0.32903646  0.96083738  0.54576650  1
