# generated using pymatgen
data_Pr2Mn3(SbS3)4
_symmetry_space_group_name_H-M   'P 1'
_cell_length_a   20.02960800
_cell_length_b   3.90410600
_cell_length_c   14.95364829
_cell_angle_alpha   90.00000000
_cell_angle_beta   126.33350609
_cell_angle_gamma   90.00000000
_symmetry_Int_Tables_number   1
_chemical_formula_structural   Pr2Mn3(SbS3)4
_chemical_formula_sum   'Pr4 Mn6 Sb8 S24'
_cell_volume   942.00006694
_cell_formula_units_Z   2
loop_
 _symmetry_equiv_pos_site_id
 _symmetry_equiv_pos_as_xyz
  1  'x, y, z'
loop_
 _atom_site_type_symbol
 _atom_site_label
 _atom_site_symmetry_multiplicity
 _atom_site_fract_x
 _atom_site_fract_y
 _atom_site_fract_z
 _atom_site_occupancy
  Pr  Pr0  1  0.27263902  0.49974220  0.87877635  1
  Pr  Pr1  1  0.72612280  0.51233634  0.12500295  1
  Pr  Pr2  1  0.76544444  0.02488112  0.87183985  1
  Pr  Pr3  1  0.22960267  0.96174068  0.12858435  1
  Mn  Mn4  1  0.30142173  0.44058315  0.61825307  1
  Mn  Mn5  1  0.68861012  0.45689049  0.36322949  1
  Mn  Mn6  1  0.00293977  0.97361811  0.01067857  1
  Mn  Mn7  1  0.79778614  0.01892294  0.62076950  1
  Mn  Mn8  1  0.20443061  0.04672740  0.38741962  1
  Mn  Mn9  1  0.48444142  0.46575956  0.98250217  1
  Sb  Sb10  1  0.89012766  0.96311534  0.44489082  1
  Sb  Sb11  1  0.11478409  0.98374567  0.54690922  1
  Sb  Sb12  1  0.04365418  0.51590565  0.83055835  1
  Sb  Sb13  1  0.96816054  0.48620295  0.19430843  1
  Sb  Sb14  1  0.40184750  0.52976407  0.45025049  1
  Sb  Sb15  1  0.60854735  0.48118625  0.54150513  1
  Sb  Sb16  1  0.52271716  0.97339762  0.79041460  1
  Sb  Sb17  1  0.46869800  0.03698934  0.18213093  1
  S  S18  1  0.92830923  0.01829316  0.79506830  1
  S  S19  1  0.05885805  0.98376517  0.18926620  1
  S  S20  1  0.41397011  0.97215811  0.97314195  1
  S  S21  1  0.57412133  0.01960077  0.00216504  1
  S  S22  1  0.16403569  0.01358721  0.89373872  1
  S  S23  1  0.82823350  0.97217287  0.10834453  1
  S  S24  1  0.09153317  0.46464628  0.63662199  1
  S  S25  1  0.91455686  0.49013561  0.35662116  1
  S  S26  1  0.73618616  0.99439117  0.29838683  1
  S  S27  1  0.26634855  0.98118648  0.70056864  1
  S  S28  1  0.17418336  0.51598381  0.44055232  1
  S  S29  1  0.81087275  0.50414319  0.53684794  1
  S  S30  1  0.43529260  0.47408734  0.79167050  1
  S  S31  1  0.54800425  0.51977941  0.17014025  1
  S  S32  1  0.92164761  0.51633235  0.99074002  1
  S  S33  1  0.08693934  0.47701865  0.02950589  1
  S  S34  1  0.66629143  0.52667850  0.89170326  1
  S  S35  1  0.32907436  0.47427058  0.10832915  1
  S  S36  1  0.59572477  0.99803048  0.64293683  1
  S  S37  1  0.40345049  0.98184518  0.33646874  1
  S  S38  1  0.24618615  0.47578151  0.31836980  1
  S  S39  1  0.76246595  0.50722841  0.69749493  1
  S  S40  1  0.66783278  0.98733204  0.44669607  1
  S  S41  1  0.32912486  0.96059620  0.54588006  1
