# generated using pymatgen
data_Pr2Mn3(SbS3)4
_symmetry_space_group_name_H-M   'P 1'
_cell_length_a   20.02960800
_cell_length_b   3.90410600
_cell_length_c   14.95364829
_cell_angle_alpha   90.00000000
_cell_angle_beta   126.33350609
_cell_angle_gamma   90.00000000
_symmetry_Int_Tables_number   1
_chemical_formula_structural   Pr2Mn3(SbS3)4
_chemical_formula_sum   'Pr4 Mn6 Sb8 S24'
_cell_volume   942.00006694
_cell_formula_units_Z   2
loop_
 _symmetry_equiv_pos_site_id
 _symmetry_equiv_pos_as_xyz
  1  'x, y, z'
loop_
 _atom_site_type_symbol
 _atom_site_label
 _atom_site_symmetry_multiplicity
 _atom_site_fract_x
 _atom_site_fract_y
 _atom_site_fract_z
 _atom_site_occupancy
  Pr  Pr0  1  0.27261290  0.50014402  0.87881140  1
  Pr  Pr1  1  0.72605826  0.51278365  0.12510505  1
  Pr  Pr2  1  0.76545527  0.02477390  0.87189226  1
  Pr  Pr3  1  0.22950712  0.96180815  0.12860293  1
  Mn  Mn4  1  0.30114339  0.44030099  0.61812510  1
  Mn  Mn5  1  0.68851400  0.45692360  0.36306844  1
  Mn  Mn6  1  0.00288073  0.97343643  0.01057816  1
  Mn  Mn7  1  0.79772755  0.01812596  0.62053791  1
  Mn  Mn8  1  0.20437450  0.04657890  0.38733082  1
  Mn  Mn9  1  0.48452333  0.46616662  0.98261326  1
  Sb  Sb10  1  0.89011950  0.96306968  0.44480913  1
  Sb  Sb11  1  0.11476668  0.98359599  0.54696378  1
  Sb  Sb12  1  0.04364652  0.51570888  0.83057354  1
  Sb  Sb13  1  0.96822147  0.48605270  0.19430231  1
  Sb  Sb14  1  0.40193555  0.52994277  0.45036377  1
  Sb  Sb15  1  0.60851537  0.48049219  0.54133393  1
  Sb  Sb16  1  0.52278144  0.97339559  0.79041580  1
  Sb  Sb17  1  0.46858681  0.03689363  0.18186024  1
  S  S18  1  0.92860545  0.01795999  0.79534092  1
  S  S19  1  0.05909895  0.98471239  0.18934174  1
  S  S20  1  0.41381438  0.97107975  0.97311777  1
  S  S21  1  0.57401621  0.02038549  0.00192995  1
  S  S22  1  0.16429519  0.01287263  0.89420177  1
  S  S23  1  0.82820046  0.97127553  0.10815313  1
  S  S24  1  0.09126381  0.46449329  0.63633678  1
  S  S25  1  0.91449633  0.49001315  0.35684911  1
  S  S26  1  0.73623953  0.99384484  0.29848502  1
  S  S27  1  0.26623445  0.98133201  0.70031092  1
  S  S28  1  0.17404894  0.51736992  0.44048086  1
  S  S29  1  0.81081218  0.50348855  0.53682065  1
  S  S30  1  0.43513680  0.47321810  0.79170048  1
  S  S31  1  0.54776738  0.51990227  0.17000730  1
  S  S32  1  0.92162855  0.51693550  0.99087180  1
  S  S33  1  0.08700658  0.47613464  0.02974073  1
  S  S34  1  0.66634148  0.52667872  0.89170208  1
  S  S35  1  0.32905433  0.47438292  0.10818346  1
  S  S36  1  0.59586777  0.99656430  0.64303507  1
  S  S37  1  0.40324651  0.98244038  0.33648546  1
  S  S38  1  0.24606391  0.47566082  0.31819303  1
  S  S39  1  0.76241957  0.50652964  0.69755607  1
  S  S40  1  0.66768492  0.98649458  0.44681965  1
  S  S41  1  0.32913283  0.96053133  0.54591039  1
