# generated using pymatgen
data_Pr2Mn3(SbS3)4
_symmetry_space_group_name_H-M   'P 1'
_cell_length_a   20.02960800
_cell_length_b   3.90410600
_cell_length_c   14.95364829
_cell_angle_alpha   90.00000000
_cell_angle_beta   126.33350609
_cell_angle_gamma   90.00000000
_symmetry_Int_Tables_number   1
_chemical_formula_structural   Pr2Mn3(SbS3)4
_chemical_formula_sum   'Pr4 Mn6 Sb8 S24'
_cell_volume   942.00006694
_cell_formula_units_Z   2
loop_
 _symmetry_equiv_pos_site_id
 _symmetry_equiv_pos_as_xyz
  1  'x, y, z'
loop_
 _atom_site_type_symbol
 _atom_site_label
 _atom_site_symmetry_multiplicity
 _atom_site_fract_x
 _atom_site_fract_y
 _atom_site_fract_z
 _atom_site_occupancy
  Pr  Pr0  1  0.27256045  0.50044764  0.87884708  1
  Pr  Pr1  1  0.72595848  0.51314457  0.12517752  1
  Pr  Pr2  1  0.76554008  0.02481451  0.87198786  1
  Pr  Pr3  1  0.22946380  0.96164378  0.12865659  1
  Mn  Mn4  1  0.30101724  0.44022582  0.61798779  1
  Mn  Mn5  1  0.68838974  0.45710450  0.36290826  1
  Mn  Mn6  1  0.00285868  0.97315589  0.01040688  1
  Mn  Mn7  1  0.79772180  0.01803390  0.62033652  1
  Mn  Mn8  1  0.20428907  0.04616472  0.38728002  1
  Mn  Mn9  1  0.48449016  0.46652461  0.98267291  1
  Sb  Sb10  1  0.89006089  0.96306705  0.44470957  1
  Sb  Sb11  1  0.11476832  0.98352137  0.54701051  1
  Sb  Sb12  1  0.04367044  0.51527632  0.83059922  1
  Sb  Sb13  1  0.96822832  0.48574631  0.19424862  1
  Sb  Sb14  1  0.40202224  0.53007098  0.45049248  1
  Sb  Sb15  1  0.60848245  0.47977808  0.54114160  1
  Sb  Sb16  1  0.52284033  0.97354103  0.79046044  1
  Sb  Sb17  1  0.46844802  0.03681208  0.18162492  1
  S  S18  1  0.92891250  0.01784030  0.79557099  1
  S  S19  1  0.05947181  0.98506126  0.18945123  1
  S  S20  1  0.41367367  0.96995318  0.97307716  1
  S  S21  1  0.57393967  0.02122298  0.00180944  1
  S  S22  1  0.16443375  0.01202795  0.89464967  1
  S  S23  1  0.82822417  0.96996664  0.10799444  1
  S  S24  1  0.09094176  0.46417581  0.63607726  1
  S  S25  1  0.91445648  0.48925336  0.35705714  1
  S  S26  1  0.73627230  0.99329666  0.29848397  1
  S  S27  1  0.26604657  0.98136950  0.69994385  1
  S  S28  1  0.17393064  0.51869053  0.44036964  1
  S  S29  1  0.81073459  0.50264647  0.53666906  1
  S  S30  1  0.43484035  0.47209232  0.79152892  1
  S  S31  1  0.54749396  0.52023924  0.16981220  1
  S  S32  1  0.92163843  0.51810044  0.99103915  1
  S  S33  1  0.08702367  0.47520660  0.02991610  1
  S  S34  1  0.66645307  0.52607451  0.89178919  1
  S  S35  1  0.32915257  0.47477137  0.10828652  1
  S  S36  1  0.59593464  0.99528884  0.64304943  1
  S  S37  1  0.40301069  0.98304227  0.33647940  1
  S  S38  1  0.24591267  0.47531464  0.31804554  1
  S  S39  1  0.76235974  0.50563905  0.69757431  1
  S  S40  1  0.66769958  0.98529137  0.44715391  1
  S  S41  1  0.32911125  0.96037970  0.54595108  1
