# generated using pymatgen
data_Pr2Mn3(SbS3)4
_symmetry_space_group_name_H-M   'P 1'
_cell_length_a   20.02960800
_cell_length_b   3.90410600
_cell_length_c   14.95364829
_cell_angle_alpha   90.00000000
_cell_angle_beta   126.33350609
_cell_angle_gamma   90.00000000
_symmetry_Int_Tables_number   1
_chemical_formula_structural   Pr2Mn3(SbS3)4
_chemical_formula_sum   'Pr4 Mn6 Sb8 S24'
_cell_volume   942.00006694
_cell_formula_units_Z   2
loop_
 _symmetry_equiv_pos_site_id
 _symmetry_equiv_pos_as_xyz
  1  'x, y, z'
loop_
 _atom_site_type_symbol
 _atom_site_label
 _atom_site_symmetry_multiplicity
 _atom_site_fract_x
 _atom_site_fract_y
 _atom_site_fract_z
 _atom_site_occupancy
  Pr  Pr0  1  0.26246957  0.48935602  0.86702222  1
  Pr  Pr1  1  0.73877439  0.50629177  0.13702664  1
  Pr  Pr2  1  0.76137978  0.00765736  0.86213440  1
  Pr  Pr3  1  0.23877386  0.99303382  0.13977338  1
  Mn  Mn4  1  0.29876572  0.50454062  0.61848813  1
  Mn  Mn5  1  0.69737068  0.50818140  0.38117285  1
  Mn  Mn6  1  0.00210204  0.99914820  0.99857594  1
  Mn  Mn7  1  0.80329749  0.99479649  0.61478755  1
  Mn  Mn8  1  0.19876034  0.98123818  0.37911681  1
  Mn  Mn9  1  0.50239908  0.48601264  0.99772179  1
  Sb  Sb10  1  0.89434090  0.00939471  0.45417983  1
  Sb  Sb11  1  0.10829328  0.98109972  0.55113015  1
  Sb  Sb12  1  0.03811893  0.48580720  0.81519184  1
  Sb  Sb13  1  0.96134516  0.51358433  0.18759700  1
  Sb  Sb14  1  0.39542275  0.48790932  0.45722803  1
  Sb  Sb15  1  0.60713007  0.50190321  0.54970451  1
  Sb  Sb16  1  0.53659117  0.00329658  0.81530034  1
  Sb  Sb17  1  0.46209002  0.00179968  0.18089470  1
  S  S18  1  0.93639544  0.97913856  0.79813726  1
  S  S19  1  0.05996929  0.00223398  0.19175513  1
  S  S20  1  0.40633428  0.99148328  0.97890473  1
  S  S21  1  0.59353694  0.99658393  0.01591004  1
  S  S22  1  0.17142656  0.98689469  0.90228500  1
  S  S23  1  0.82886969  0.01477788  0.10651008  1
  S  S24  1  0.08426237  0.48965590  0.64385665  1
  S  S25  1  0.91389993  0.48159862  0.36016770  1
  S  S26  1  0.74372998  0.95277157  0.29621819  1
  S  S27  1  0.25574267  0.99964050  0.70151801  1
  S  S28  1  0.16231528  0.49444045  0.44637025  1
  S  S29  1  0.83052582  0.49159959  0.54791196  1
  S  S30  1  0.43592896  0.51008255  0.79945599  1
  S  S31  1  0.56043577  0.50548332  0.19174241  1
  S  S32  1  0.90149212  0.47752016  0.97531820  1
  S  S33  1  0.08996745  0.48160708  0.01736555  1
  S  S34  1  0.66464247  0.50128413  0.89541126  1
  S  S35  1  0.33194620  0.51604843  0.10088429  1
  S  S36  1  0.59261339  0.01442843  0.65025222  1
  S  S37  1  0.41361072  0.97781398  0.35863757  1
  S  S38  1  0.24365978  0.47204067  0.29816093  1
  S  S39  1  0.76254907  0.50416442  0.70093554  1
  S  S40  1  0.66548480  0.00804944  0.46127629  1
  S  S41  1  0.33204121  0.98214522  0.54192767  1
