# generated using pymatgen
data_Pr2Mn3(SbS3)4
_symmetry_space_group_name_H-M   'P 1'
_cell_length_a   20.02960800
_cell_length_b   3.90410600
_cell_length_c   14.95364829
_cell_angle_alpha   90.00000000
_cell_angle_beta   126.33350609
_cell_angle_gamma   90.00000000
_symmetry_Int_Tables_number   1
_chemical_formula_structural   Pr2Mn3(SbS3)4
_chemical_formula_sum   'Pr4 Mn6 Sb8 S24'
_cell_volume   942.00006694
_cell_formula_units_Z   2
loop_
 _symmetry_equiv_pos_site_id
 _symmetry_equiv_pos_as_xyz
  1  'x, y, z'
loop_
 _atom_site_type_symbol
 _atom_site_label
 _atom_site_symmetry_multiplicity
 _atom_site_fract_x
 _atom_site_fract_y
 _atom_site_fract_z
 _atom_site_occupancy
  Pr  Pr0  1  0.27248622  0.50079539  0.87888853  1
  Pr  Pr1  1  0.72591862  0.51340091  0.12530183  1
  Pr  Pr2  1  0.76569769  0.02477828  0.87217438  1
  Pr  Pr3  1  0.22941323  0.96154868  0.12870667  1
  Mn  Mn4  1  0.30095512  0.44011070  0.61805872  1
  Mn  Mn5  1  0.68824093  0.45731129  0.36269909  1
  Mn  Mn6  1  0.00277591  0.97272777  0.01013706  1
  Mn  Mn7  1  0.79770074  0.01791246  0.62016044  1
  Mn  Mn8  1  0.20427629  0.04598746  0.38709927  1
  Mn  Mn9  1  0.48444018  0.46704874  0.98259435  1
  Sb  Sb10  1  0.88999558  0.96327964  0.44465798  1
  Sb  Sb11  1  0.11480935  0.98347983  0.54717285  1
  Sb  Sb12  1  0.04368052  0.51477319  0.83064133  1
  Sb  Sb13  1  0.96819965  0.48562931  0.19415541  1
  Sb  Sb14  1  0.40206071  0.53012027  0.45056243  1
  Sb  Sb15  1  0.60852325  0.47885741  0.54099786  1
  Sb  Sb16  1  0.52286162  0.97379958  0.79057824  1
  Sb  Sb17  1  0.46828066  0.03661424  0.18140186  1
  S  S18  1  0.92922973  0.01784630  0.79580740  1
  S  S19  1  0.05978413  0.98470293  0.18949194  1
  S  S20  1  0.41363587  0.96913740  0.97306244  1
  S  S21  1  0.57388130  0.02165906  0.00165855  1
  S  S22  1  0.16455068  0.01134686  0.89504999  1
  S  S23  1  0.82840755  0.96905977  0.10791062  1
  S  S24  1  0.09067403  0.46445622  0.63590916  1
  S  S25  1  0.91440945  0.48854445  0.35726705  1
  S  S26  1  0.73622623  0.99290024  0.29832319  1
  S  S27  1  0.26578991  0.98109857  0.69950804  1
  S  S28  1  0.17382366  0.52081578  0.44030328  1
  S  S29  1  0.81061853  0.50165698  0.53652563  1
  S  S30  1  0.43459779  0.47123595  0.79134877  1
  S  S31  1  0.54730024  0.52035055  0.16976943  1
  S  S32  1  0.92159433  0.51861729  0.99108040  1
  S  S33  1  0.08706911  0.47400032  0.03000681  1
  S  S34  1  0.66665663  0.52520350  0.89196923  1
  S  S35  1  0.32938458  0.47513713  0.10852062  1
  S  S36  1  0.59588012  0.99426304  0.64294795  1
  S  S37  1  0.40273098  0.98378567  0.33634051  1
  S  S38  1  0.24578899  0.47472897  0.31808816  1
  S  S39  1  0.76234411  0.50505606  0.69764397  1
  S  S40  1  0.66776160  0.98441147  0.44752247  1
  S  S41  1  0.32916190  0.95969764  0.54604785  1
