# generated using pymatgen
data_Pr2Mn3(SbS3)4
_symmetry_space_group_name_H-M   'P 1'
_cell_length_a   20.02960800
_cell_length_b   3.90410600
_cell_length_c   14.95364829
_cell_angle_alpha   90.00000000
_cell_angle_beta   126.33350609
_cell_angle_gamma   90.00000000
_symmetry_Int_Tables_number   1
_chemical_formula_structural   Pr2Mn3(SbS3)4
_chemical_formula_sum   'Pr4 Mn6 Sb8 S24'
_cell_volume   942.00006694
_cell_formula_units_Z   2
loop_
 _symmetry_equiv_pos_site_id
 _symmetry_equiv_pos_as_xyz
  1  'x, y, z'
loop_
 _atom_site_type_symbol
 _atom_site_label
 _atom_site_symmetry_multiplicity
 _atom_site_fract_x
 _atom_site_fract_y
 _atom_site_fract_z
 _atom_site_occupancy
  Pr  Pr0  1  0.27237092  0.50103839  0.87892045  1
  Pr  Pr1  1  0.72589910  0.51361772  0.12543696  1
  Pr  Pr2  1  0.76580780  0.02481738  0.87234315  1
  Pr  Pr3  1  0.22931111  0.96154687  0.12871647  1
  Mn  Mn4  1  0.30092345  0.43985358  0.61816485  1
  Mn  Mn5  1  0.68813350  0.45785559  0.36250820  1
  Mn  Mn6  1  0.00274843  0.97226779  0.00991031  1
  Mn  Mn7  1  0.79770664  0.01763537  0.62004118  1
  Mn  Mn8  1  0.20420990  0.04562081  0.38694518  1
  Mn  Mn9  1  0.48441522  0.46782221  0.98251698  1
  Sb  Sb10  1  0.88999858  0.96337021  0.44474162  1
  Sb  Sb11  1  0.11485447  0.98326615  0.54734180  1
  Sb  Sb12  1  0.04368274  0.51435473  0.83073021  1
  Sb  Sb13  1  0.96821724  0.48571518  0.19414487  1
  Sb  Sb14  1  0.40208021  0.52984764  0.45068214  1
  Sb  Sb15  1  0.60848112  0.47802224  0.54084825  1
  Sb  Sb16  1  0.52287101  0.97419288  0.79076875  1
  Sb  Sb17  1  0.46813916  0.03639688  0.18112879  1
  S  S18  1  0.92948673  0.01736017  0.79611954  1
  S  S19  1  0.05998290  0.98456082  0.18951443  1
  S  S20  1  0.41361223  0.96805204  0.97301357  1
  S  S21  1  0.57382576  0.02203775  0.00152511  1
  S  S22  1  0.16473288  0.01066579  0.89553109  1
  S  S23  1  0.82851178  0.96813312  0.10789758  1
  S  S24  1  0.09040496  0.46432474  0.63581024  1
  S  S25  1  0.91453866  0.48783581  0.35764779  1
  S  S26  1  0.73621581  0.99236276  0.29821383  1
  S  S27  1  0.26561272  0.98112400  0.69916881  1
  S  S28  1  0.17374005  0.52236980  0.44020710  1
  S  S29  1  0.81049846  0.50124236  0.53637224  1
  S  S30  1  0.43439151  0.47077721  0.79117815  1
  S  S31  1  0.54719819  0.52029967  0.16983014  1
  S  S32  1  0.92151545  0.51872117  0.99119346  1
  S  S33  1  0.08703326  0.47293436  0.03008034  1
  S  S34  1  0.66681136  0.52432764  0.89205748  1
  S  S35  1  0.32960852  0.47545134  0.10881749  1
  S  S36  1  0.59582581  0.99350419  0.64280027  1
  S  S37  1  0.40245470  0.98445911  0.33622965  1
  S  S38  1  0.24557408  0.47395548  0.31804253  1
  S  S39  1  0.76235714  0.50462610  0.69779266  1
  S  S40  1  0.66776705  0.98392159  0.44773288  1
  S  S41  1  0.32913424  0.95920303  0.54598048  1
