# generated using pymatgen
data_Pr2Mn3(SbS3)4
_symmetry_space_group_name_H-M   'P 1'
_cell_length_a   20.02960800
_cell_length_b   3.90410600
_cell_length_c   14.95364829
_cell_angle_alpha   90.00000000
_cell_angle_beta   126.33350609
_cell_angle_gamma   90.00000000
_symmetry_Int_Tables_number   1
_chemical_formula_structural   Pr2Mn3(SbS3)4
_chemical_formula_sum   'Pr4 Mn6 Sb8 S24'
_cell_volume   942.00006694
_cell_formula_units_Z   2
loop_
 _symmetry_equiv_pos_site_id
 _symmetry_equiv_pos_as_xyz
  1  'x, y, z'
loop_
 _atom_site_type_symbol
 _atom_site_label
 _atom_site_symmetry_multiplicity
 _atom_site_fract_x
 _atom_site_fract_y
 _atom_site_fract_z
 _atom_site_occupancy
  Pr  Pr0  1  0.27228465  0.50124493  0.87900555  1
  Pr  Pr1  1  0.72586278  0.51385466  0.12550061  1
  Pr  Pr2  1  0.76593137  0.02479412  0.87256598  1
  Pr  Pr3  1  0.22920243  0.96134614  0.12866551  1
  Mn  Mn4  1  0.30082301  0.43971977  0.61822915  1
  Mn  Mn5  1  0.68807738  0.45846213  0.36245243  1
  Mn  Mn6  1  0.00264508  0.97154249  0.00959957  1
  Mn  Mn7  1  0.79771118  0.01742872  0.61991305  1
  Mn  Mn8  1  0.20423224  0.04512603  0.38680005  1
  Mn  Mn9  1  0.48430250  0.46840143  0.98224451  1
  Sb  Sb10  1  0.89004279  0.96346833  0.44487684  1
  Sb  Sb11  1  0.11490947  0.98305000  0.54747524  1
  Sb  Sb12  1  0.04373239  0.51399951  0.83087204  1
  Sb  Sb13  1  0.96823973  0.48564247  0.19413018  1
  Sb  Sb14  1  0.40208499  0.52986750  0.45082745  1
  Sb  Sb15  1  0.60844132  0.47729818  0.54062642  1
  Sb  Sb16  1  0.52290155  0.97494545  0.79099801  1
  Sb  Sb17  1  0.46799575  0.03589058  0.18090547  1
  S  S18  1  0.92964011  0.01686900  0.79635797  1
  S  S19  1  0.06027404  0.98403655  0.18963596  1
  S  S20  1  0.41350999  0.96690367  0.97291644  1
  S  S21  1  0.57378082  0.02249200  0.00129732  1
  S  S22  1  0.16491757  0.01000606  0.89600876  1
  S  S23  1  0.82857093  0.96708462  0.10778543  1
  S  S24  1  0.09017306  0.46452425  0.63576056  1
  S  S25  1  0.91469328  0.48701344  0.35807986  1
  S  S26  1  0.73626272  0.99171849  0.29823318  1
  S  S27  1  0.26548670  0.98069792  0.69898149  1
  S  S28  1  0.17362078  0.52367603  0.44005880  1
  S  S29  1  0.81046179  0.50117362  0.53631988  1
  S  S30  1  0.43409823  0.47059587  0.79095492  1
  S  S31  1  0.54705067  0.52014292  0.16977920  1
  S  S32  1  0.92142000  0.51898787  0.99134115  1
  S  S33  1  0.08702788  0.47197925  0.03015551  1
  S  S34  1  0.66703348  0.52357381  0.89208450  1
  S  S35  1  0.32984344  0.47530446  0.10898877  1
  S  S36  1  0.59575237  0.99277891  0.64264004  1
  S  S37  1  0.40221697  0.98511684  0.33607830  1
  S  S38  1  0.24534842  0.47320773  0.31794821  1
  S  S39  1  0.76238216  0.50482496  0.69792060  1
  S  S40  1  0.66767658  0.98397679  0.44775666  1
  S  S41  1  0.32912713  0.95885961  0.54601663  1
