# generated using pymatgen
data_Pr2Mn3(SbS3)4
_symmetry_space_group_name_H-M   'P 1'
_cell_length_a   20.02960800
_cell_length_b   3.90410600
_cell_length_c   14.95364829
_cell_angle_alpha   90.00000000
_cell_angle_beta   126.33350609
_cell_angle_gamma   90.00000000
_symmetry_Int_Tables_number   1
_chemical_formula_structural   Pr2Mn3(SbS3)4
_chemical_formula_sum   'Pr4 Mn6 Sb8 S24'
_cell_volume   942.00006694
_cell_formula_units_Z   2
loop_
 _symmetry_equiv_pos_site_id
 _symmetry_equiv_pos_as_xyz
  1  'x, y, z'
loop_
 _atom_site_type_symbol
 _atom_site_label
 _atom_site_symmetry_multiplicity
 _atom_site_fract_x
 _atom_site_fract_y
 _atom_site_fract_z
 _atom_site_occupancy
  Pr  Pr0  1  0.27217666  0.50115322  0.87905104  1
  Pr  Pr1  1  0.72583079  0.51396742  0.12562763  1
  Pr  Pr2  1  0.76606157  0.02482527  0.87276752  1
  Pr  Pr3  1  0.22909780  0.96117364  0.12863980  1
  Mn  Mn4  1  0.30079001  0.43923913  0.61823262  1
  Mn  Mn5  1  0.68800973  0.45904184  0.36233446  1
  Mn  Mn6  1  0.00254055  0.97113618  0.00933492  1
  Mn  Mn7  1  0.79772321  0.01736066  0.61977381  1
  Mn  Mn8  1  0.20427874  0.04465890  0.38658010  1
  Mn  Mn9  1  0.48421639  0.46888158  0.98200091  1
  Sb  Sb10  1  0.89007530  0.96362136  0.44503464  1
  Sb  Sb11  1  0.11499924  0.98291836  0.54768596  1
  Sb  Sb12  1  0.04381143  0.51354879  0.83103552  1
  Sb  Sb13  1  0.96825167  0.48586270  0.19408132  1
  Sb  Sb14  1  0.40209877  0.52982179  0.45094095  1
  Sb  Sb15  1  0.60844135  0.47669772  0.54046512  1
  Sb  Sb16  1  0.52292044  0.97559252  0.79117141  1
  Sb  Sb17  1  0.46784151  0.03539030  0.18064301  1
  S  S18  1  0.92981726  0.01675898  0.79661001  1
  S  S19  1  0.06049976  0.98326892  0.18975337  1
  S  S20  1  0.41327014  0.96598668  0.97266597  1
  S  S21  1  0.57370748  0.02284942  0.00101670  1
  S  S22  1  0.16508929  0.00973241  0.89637183  1
  S  S23  1  0.82868109  0.96658074  0.10761780  1
  S  S24  1  0.09002811  0.46477754  0.63576030  1
  S  S25  1  0.91482513  0.48618467  0.35863992  1
  S  S26  1  0.73627687  0.99082024  0.29835085  1
  S  S27  1  0.26523886  0.98014342  0.69880869  1
  S  S28  1  0.17333998  0.52510998  0.43979424  1
  S  S29  1  0.81041820  0.50096872  0.53624677  1
  S  S30  1  0.43374026  0.47055920  0.79060059  1
  S  S31  1  0.54686470  0.52001571  0.16972251  1
  S  S32  1  0.92134722  0.51899518  0.99156825  1
  S  S33  1  0.08706696  0.47088726  0.03034533  1
  S  S34  1  0.66719842  0.52255767  0.89209831  1
  S  S35  1  0.32999370  0.47519849  0.10915077  1
  S  S36  1  0.59571634  0.99213411  0.64241180  1
  S  S37  1  0.40191762  0.98592915  0.33581835  1
  S  S38  1  0.24516611  0.47312235  0.31786371  1
  S  S39  1  0.76254993  0.50444754  0.69828621  1
  S  S40  1  0.66758026  0.98399112  0.44773278  1
  S  S41  1  0.32919051  0.95815167  0.54625503  1
