# generated using pymatgen
data_Pr2Mn3(SbS3)4
_symmetry_space_group_name_H-M   'P 1'
_cell_length_a   20.02960800
_cell_length_b   3.90410600
_cell_length_c   14.95364829
_cell_angle_alpha   90.00000000
_cell_angle_beta   126.33350609
_cell_angle_gamma   90.00000000
_symmetry_Int_Tables_number   1
_chemical_formula_structural   Pr2Mn3(SbS3)4
_chemical_formula_sum   'Pr4 Mn6 Sb8 S24'
_cell_volume   942.00006694
_cell_formula_units_Z   2
loop_
 _symmetry_equiv_pos_site_id
 _symmetry_equiv_pos_as_xyz
  1  'x, y, z'
loop_
 _atom_site_type_symbol
 _atom_site_label
 _atom_site_symmetry_multiplicity
 _atom_site_fract_x
 _atom_site_fract_y
 _atom_site_fract_z
 _atom_site_occupancy
  Pr  Pr0  1  0.27213315  0.50114852  0.87918102  1
  Pr  Pr1  1  0.72582896  0.51392011  0.12579542  1
  Pr  Pr2  1  0.76622756  0.02464903  0.87305452  1
  Pr  Pr3  1  0.22906215  0.96110170  0.12864198  1
  Mn  Mn4  1  0.30084293  0.43875517  0.61820591  1
  Mn  Mn5  1  0.68792538  0.45963971  0.36220749  1
  Mn  Mn6  1  0.00243645  0.97097253  0.00906386  1
  Mn  Mn7  1  0.79774401  0.01738091  0.61966889  1
  Mn  Mn8  1  0.20432434  0.04423978  0.38644580  1
  Mn  Mn9  1  0.48418480  0.47002508  0.98182691  1
  Sb  Sb10  1  0.89008445  0.96399822  0.44518403  1
  Sb  Sb11  1  0.11511886  0.98277615  0.54787615  1
  Sb  Sb12  1  0.04393136  0.51324386  0.83114193  1
  Sb  Sb13  1  0.96832754  0.48641024  0.19412476  1
  Sb  Sb14  1  0.40204029  0.52958107  0.45093448  1
  Sb  Sb15  1  0.60845383  0.47602018  0.54035878  1
  Sb  Sb16  1  0.52289375  0.97598417  0.79129137  1
  Sb  Sb17  1  0.46775081  0.03482942  0.18045672  1
  S  S18  1  0.92975345  0.01678540  0.79664167  1
  S  S19  1  0.06062429  0.98237012  0.18976482  1
  S  S20  1  0.41305447  0.96534949  0.97237743  1
  S  S21  1  0.57360359  0.02301674  0.00066531  1
  S  S22  1  0.16529931  0.00924252  0.89682072  1
  S  S23  1  0.82873953  0.96685536  0.10738348  1
  S  S24  1  0.08995845  0.46468897  0.63581050  1
  S  S25  1  0.91492378  0.48510481  0.35896004  1
  S  S26  1  0.73628839  0.98975379  0.29836189  1
  S  S27  1  0.26503769  0.97914203  0.69868563  1
  S  S28  1  0.17314152  0.52633550  0.43966873  1
  S  S29  1  0.81050111  0.50072663  0.53635861  1
  S  S30  1  0.43339223  0.47077619  0.79037073  1
  S  S31  1  0.54668896  0.51983776  0.16959975  1
  S  S32  1  0.92125852  0.51933923  0.99176262  1
  S  S33  1  0.08716895  0.46998086  0.03060993  1
  S  S34  1  0.66739890  0.52158079  0.89211355  1
  S  S35  1  0.33008041  0.47477136  0.10924323  1
  S  S36  1  0.59567405  0.99140475  0.64216631  1
  S  S37  1  0.40171559  0.98703292  0.33567185  1
  S  S38  1  0.24508580  0.47302522  0.31780164  1
  S  S39  1  0.76261315  0.50406261  0.69849174  1
  S  S40  1  0.66749235  0.98346952  0.44773136  1
  S  S41  1  0.32923010  0.95712739  0.54646872  1
