# generated using pymatgen
data_Pr2Mn3(SbS3)4
_symmetry_space_group_name_H-M   'P 1'
_cell_length_a   20.02960800
_cell_length_b   3.90410600
_cell_length_c   14.95364829
_cell_angle_alpha   90.00000000
_cell_angle_beta   126.33350609
_cell_angle_gamma   90.00000000
_symmetry_Int_Tables_number   1
_chemical_formula_structural   Pr2Mn3(SbS3)4
_chemical_formula_sum   'Pr4 Mn6 Sb8 S24'
_cell_volume   942.00006694
_cell_formula_units_Z   2
loop_
 _symmetry_equiv_pos_site_id
 _symmetry_equiv_pos_as_xyz
  1  'x, y, z'
loop_
 _atom_site_type_symbol
 _atom_site_label
 _atom_site_symmetry_multiplicity
 _atom_site_fract_x
 _atom_site_fract_y
 _atom_site_fract_z
 _atom_site_occupancy
  Pr  Pr0  1  0.27209437  0.50107849  0.87933172  1
  Pr  Pr1  1  0.72581837  0.51409619  0.12590126  1
  Pr  Pr2  1  0.76634899  0.02455946  0.87333637  1
  Pr  Pr3  1  0.22902632  0.96110516  0.12864360  1
  Mn  Mn4  1  0.30083103  0.43817744  0.61815118  1
  Mn  Mn5  1  0.68789166  0.46025296  0.36214276  1
  Mn  Mn6  1  0.00229767  0.97051452  0.00881276  1
  Mn  Mn7  1  0.79780304  0.01735296  0.61958162  1
  Mn  Mn8  1  0.20446241  0.04392965  0.38636506  1
  Mn  Mn9  1  0.48414376  0.47091753  0.98156359  1
  Sb  Sb10  1  0.89007670  0.96413930  0.44530518  1
  Sb  Sb11  1  0.11522639  0.98252958  0.54803832  1
  Sb  Sb12  1  0.04396457  0.51291077  0.83121242  1
  Sb  Sb13  1  0.96847159  0.48710353  0.19430165  1
  Sb  Sb14  1  0.40196724  0.52925697  0.45091586  1
  Sb  Sb15  1  0.60848068  0.47535300  0.54023840  1
  Sb  Sb16  1  0.52284080  0.97641832  0.79135996  1
  Sb  Sb17  1  0.46773006  0.03429101  0.18028544  1
  S  S18  1  0.92979874  0.01685525  0.79662266  1
  S  S19  1  0.06075297  0.98223152  0.18975629  1
  S  S20  1  0.41291377  0.96498984  0.97201134  1
  S  S21  1  0.57346376  0.02327192  0.00031645  1
  S  S22  1  0.16552008  0.00914909  0.89718599  1
  S  S23  1  0.82877267  0.96666146  0.10722844  1
  S  S24  1  0.08981301  0.46471834  0.63589615  1
  S  S25  1  0.91518220  0.48382113  0.35924027  1
  S  S26  1  0.73635949  0.98830188  0.29817303  1
  S  S27  1  0.26490662  0.97849591  0.69866591  1
  S  S28  1  0.17300890  0.52740290  0.43968789  1
  S  S29  1  0.81054046  0.50077635  0.53638383  1
  S  S30  1  0.43316433  0.47139988  0.79026492  1
  S  S31  1  0.54654981  0.51969255  0.16939972  1
  S  S32  1  0.92124865  0.51897345  0.99216608  1
  S  S33  1  0.08719552  0.46851948  0.03088551  1
  S  S34  1  0.66744622  0.52046281  0.89200600  1
  S  S35  1  0.33007399  0.47436693  0.10911624  1
  S  S36  1  0.59559729  0.99110016  0.64193164  1
  S  S37  1  0.40154048  0.98838730  0.33548421  1
  S  S38  1  0.24501049  0.47351748  0.31777469  1
  S  S39  1  0.76282968  0.50337743  0.69882098  1
  S  S40  1  0.66744695  0.98315047  0.44776916  1
  S  S41  1  0.32931512  0.95658502  0.54680629  1
