# generated using pymatgen
data_Pr2Mn3(SbS3)4
_symmetry_space_group_name_H-M   'P 1'
_cell_length_a   20.02960800
_cell_length_b   3.90410600
_cell_length_c   14.95364829
_cell_angle_alpha   90.00000000
_cell_angle_beta   126.33350609
_cell_angle_gamma   90.00000000
_symmetry_Int_Tables_number   1
_chemical_formula_structural   Pr2Mn3(SbS3)4
_chemical_formula_sum   'Pr4 Mn6 Sb8 S24'
_cell_volume   942.00006694
_cell_formula_units_Z   2
loop_
 _symmetry_equiv_pos_site_id
 _symmetry_equiv_pos_as_xyz
  1  'x, y, z'
loop_
 _atom_site_type_symbol
 _atom_site_label
 _atom_site_symmetry_multiplicity
 _atom_site_fract_x
 _atom_site_fract_y
 _atom_site_fract_z
 _atom_site_occupancy
  Pr  Pr0  1  0.27208827  0.50084192  0.87950895  1
  Pr  Pr1  1  0.72576850  0.51428814  0.12591076  1
  Pr  Pr2  1  0.76639091  0.02448888  0.87359551  1
  Pr  Pr3  1  0.22899323  0.96118637  0.12860057  1
  Mn  Mn4  1  0.30083460  0.43787168  0.61800493  1
  Mn  Mn5  1  0.68787672  0.46052212  0.36206503  1
  Mn  Mn6  1  0.00221828  0.96991780  0.00864355  1
  Mn  Mn7  1  0.79787299  0.01725770  0.61944589  1
  Mn  Mn8  1  0.20459437  0.04331694  0.38627852  1
  Mn  Mn9  1  0.48406509  0.47175704  0.98132965  1
  Sb  Sb10  1  0.89005726  0.96433735  0.44541203  1
  Sb  Sb11  1  0.11531213  0.98231128  0.54826682  1
  Sb  Sb12  1  0.04399311  0.51252166  0.83133018  1
  Sb  Sb13  1  0.96862737  0.48775807  0.19452781  1
  Sb  Sb14  1  0.40181277  0.52902370  0.45084550  1
  Sb  Sb15  1  0.60848442  0.47500288  0.54013913  1
  Sb  Sb16  1  0.52274685  0.97697403  0.79143032  1
  Sb  Sb17  1  0.46774805  0.03391279  0.18018903  1
  S  S18  1  0.92997491  0.01708007  0.79671008  1
  S  S19  1  0.06088428  0.98271862  0.18970196  1
  S  S20  1  0.41270962  0.96528364  0.97162764  1
  S  S21  1  0.57337880  0.02343769  0.00002435  1
  S  S22  1  0.16574205  0.00928498  0.89761575  1
  S  S23  1  0.82861274  0.96607861  0.10689824  1
  S  S24  1  0.08972752  0.46456967  0.63595376  1
  S  S25  1  0.91537047  0.48238266  0.35953224  1
  S  S26  1  0.73631941  0.98714465  0.29790707  1
  S  S27  1  0.26471754  0.97778603  0.69853106  1
  S  S28  1  0.17289353  0.52883918  0.43973430  1
  S  S29  1  0.81058854  0.50083742  0.53637678  1
  S  S30  1  0.43306329  0.47210459  0.79025048  1
  S  S31  1  0.54649563  0.51948511  0.16936476  1
  S  S32  1  0.92119672  0.51824340  0.99254858  1
  S  S33  1  0.08711561  0.46717627  0.03106405  1
  S  S34  1  0.66745120  0.51905197  0.89193816  1
  S  S35  1  0.32999749  0.47346832  0.10884970  1
  S  S36  1  0.59549385  0.99092248  0.64162743  1
  S  S37  1  0.40119662  0.98977717  0.33507461  1
  S  S38  1  0.24493003  0.47417147  0.31756436  1
  S  S39  1  0.76305694  0.50246044  0.69915654  1
  S  S40  1  0.66753335  0.98370731  0.44795000  1
  S  S41  1  0.32938041  0.95629150  0.54725276  1
