# generated using pymatgen
data_Pr2Mn3(SbS3)4
_symmetry_space_group_name_H-M   'P 1'
_cell_length_a   20.02960800
_cell_length_b   3.90410600
_cell_length_c   14.95364829
_cell_angle_alpha   90.00000000
_cell_angle_beta   126.33350609
_cell_angle_gamma   90.00000000
_symmetry_Int_Tables_number   1
_chemical_formula_structural   Pr2Mn3(SbS3)4
_chemical_formula_sum   'Pr4 Mn6 Sb8 S24'
_cell_volume   942.00006694
_cell_formula_units_Z   2
loop_
 _symmetry_equiv_pos_site_id
 _symmetry_equiv_pos_as_xyz
  1  'x, y, z'
loop_
 _atom_site_type_symbol
 _atom_site_label
 _atom_site_symmetry_multiplicity
 _atom_site_fract_x
 _atom_site_fract_y
 _atom_site_fract_z
 _atom_site_occupancy
  Pr  Pr0  1  0.27204984  0.50064203  0.87963390  1
  Pr  Pr1  1  0.72571262  0.51445233  0.12596198  1
  Pr  Pr2  1  0.76642025  0.02437930  0.87386368  1
  Pr  Pr3  1  0.22893971  0.96129299  0.12854695  1
  Mn  Mn4  1  0.30086318  0.43724133  0.61771605  1
  Mn  Mn5  1  0.68797429  0.46089279  0.36212738  1
  Mn  Mn6  1  0.00216817  0.96947301  0.00850524  1
  Mn  Mn7  1  0.79790517  0.01698138  0.61933778  1
  Mn  Mn8  1  0.20470008  0.04309495  0.38625357  1
  Mn  Mn9  1  0.48403458  0.47266500  0.98107632  1
  Sb  Sb10  1  0.89005657  0.96436904  0.44554560  1
  Sb  Sb11  1  0.11540120  0.98242267  0.54852669  1
  Sb  Sb12  1  0.04398642  0.51231663  0.83138395  1
  Sb  Sb13  1  0.96877066  0.48838240  0.19471651  1
  Sb  Sb14  1  0.40166872  0.52895867  0.45075512  1
  Sb  Sb15  1  0.60851086  0.47479157  0.54005756  1
  Sb  Sb16  1  0.52263926  0.97737277  0.79145754  1
  Sb  Sb17  1  0.46775894  0.03355652  0.18010700  1
  S  S18  1  0.92995596  0.01667482  0.79671599  1
  S  S19  1  0.06096677  0.98295064  0.18962341  1
  S  S20  1  0.41250112  0.96654321  0.97127019  1
  S  S21  1  0.57336350  0.02386416  0.99971915  1
  S  S22  1  0.16587937  0.00941085  0.89788659  1
  S  S23  1  0.82846970  0.96531024  0.10663649  1
  S  S24  1  0.08971611  0.46421124  0.63606562  1
  S  S25  1  0.91559603  0.48091530  0.35987950  1
  S  S26  1  0.73637119  0.98610014  0.29772911  1
  S  S27  1  0.26448841  0.97771869  0.69827390  1
  S  S28  1  0.17276386  0.53085826  0.43972238  1
  S  S29  1  0.81073302  0.50071186  0.53636781  1
  S  S30  1  0.43298085  0.47288906  0.79026422  1
  S  S31  1  0.54656560  0.51869613  0.16931951  1
  S  S32  1  0.92108591  0.51743729  0.99286449  1
  S  S33  1  0.08711824  0.46625670  0.03139868  1
  S  S34  1  0.66737336  0.51722665  0.89190280  1
  S  S35  1  0.32970710  0.47262667  0.10838785  1
  S  S36  1  0.59547253  0.99121445  0.64127827  1
  S  S37  1  0.40088287  0.99131965  0.33475958  1
  S  S38  1  0.24486598  0.47516450  0.31731174  1
  S  S39  1  0.76328848  0.50147918  0.69944906  1
  S  S40  1  0.66760613  0.98377753  0.44811272  1
  S  S41  1  0.32949386  0.95659570  0.54770523  1
