# generated using pymatgen
data_Pr2Mn3(SbS3)4
_symmetry_space_group_name_H-M   'P 1'
_cell_length_a   20.02960800
_cell_length_b   3.90410600
_cell_length_c   14.95364829
_cell_angle_alpha   90.00000000
_cell_angle_beta   126.33350609
_cell_angle_gamma   90.00000000
_symmetry_Int_Tables_number   1
_chemical_formula_structural   Pr2Mn3(SbS3)4
_chemical_formula_sum   'Pr4 Mn6 Sb8 S24'
_cell_volume   942.00006694
_cell_formula_units_Z   2
loop_
 _symmetry_equiv_pos_site_id
 _symmetry_equiv_pos_as_xyz
  1  'x, y, z'
loop_
 _atom_site_type_symbol
 _atom_site_label
 _atom_site_symmetry_multiplicity
 _atom_site_fract_x
 _atom_site_fract_y
 _atom_site_fract_z
 _atom_site_occupancy
  Pr  Pr0  1  0.27199965  0.50058207  0.87974278  1
  Pr  Pr1  1  0.72561985  0.51444385  0.12599654  1
  Pr  Pr2  1  0.76647135  0.02428737  0.87415122  1
  Pr  Pr3  1  0.22892948  0.96153873  0.12846497  1
  Mn  Mn4  1  0.30096401  0.43682356  0.61760780  1
  Mn  Mn5  1  0.68805662  0.46090485  0.36212255  1
  Mn  Mn6  1  0.00216268  0.96909045  0.00852020  1
  Mn  Mn7  1  0.79801006  0.01638011  0.61937054  1
  Mn  Mn8  1  0.20480994  0.04310798  0.38631522  1
  Mn  Mn9  1  0.48398411  0.47344523  0.98077184  1
  Sb  Sb10  1  0.88999293  0.96463589  0.44565525  1
  Sb  Sb11  1  0.11549843  0.98244590  0.54877643  1
  Sb  Sb12  1  0.04398493  0.51206678  0.83140468  1
  Sb  Sb13  1  0.96885155  0.48910439  0.19479888  1
  Sb  Sb14  1  0.40155952  0.52884880  0.45065285  1
  Sb  Sb15  1  0.60844639  0.47457975  0.53989045  1
  Sb  Sb16  1  0.52257543  0.97753159  0.79154736  1
  Sb  Sb17  1  0.46774849  0.03310471  0.18002435  1
  S  S18  1  0.92992091  0.01595489  0.79678957  1
  S  S19  1  0.06099269  0.98326449  0.18945068  1
  S  S20  1  0.41228573  0.96767593  0.97119994  1
  S  S21  1  0.57325267  0.02423286  0.99936640  1
  S  S22  1  0.16595327  0.00975403  0.89801645  1
  S  S23  1  0.82839691  0.96524975  0.10656095  1
  S  S24  1  0.08969098  0.46383386  0.63604994  1
  S  S25  1  0.91574107  0.47998591  0.35999611  1
  S  S26  1  0.73646013  0.98514211  0.29769128  1
  S  S27  1  0.26423749  0.97742608  0.69810813  1
  S  S28  1  0.17276452  0.53229141  0.43962338  1
  S  S29  1  0.81085116  0.50104695  0.53639175  1
  S  S30  1  0.43280451  0.47356934  0.79020036  1
  S  S31  1  0.54679144  0.51762603  0.16924318  1
  S  S32  1  0.92090943  0.51689359  0.99309691  1
  S  S33  1  0.08715348  0.46567972  0.03179167  1
  S  S34  1  0.66733526  0.51560452  0.89189356  1
  S  S35  1  0.32945316  0.47189193  0.10804848  1
  S  S36  1  0.59541999  0.99170885  0.64089300  1
  S  S37  1  0.40066553  0.99259220  0.33452590  1
  S  S38  1  0.24486701  0.47647517  0.31713410  1
  S  S39  1  0.76349188  0.50033401  0.69977260  1
  S  S40  1  0.66757040  0.98396343  0.44823802  1
  S  S41  1  0.32965043  0.95638391  0.54815242  1
