# generated using pymatgen
data_Pr2Mn3(SbS3)4
_symmetry_space_group_name_H-M   'P 1'
_cell_length_a   20.02960800
_cell_length_b   3.90410600
_cell_length_c   14.95364829
_cell_angle_alpha   90.00000000
_cell_angle_beta   126.33350609
_cell_angle_gamma   90.00000000
_symmetry_Int_Tables_number   1
_chemical_formula_structural   Pr2Mn3(SbS3)4
_chemical_formula_sum   'Pr4 Mn6 Sb8 S24'
_cell_volume   942.00006694
_cell_formula_units_Z   2
loop_
 _symmetry_equiv_pos_site_id
 _symmetry_equiv_pos_as_xyz
  1  'x, y, z'
loop_
 _atom_site_type_symbol
 _atom_site_label
 _atom_site_symmetry_multiplicity
 _atom_site_fract_x
 _atom_site_fract_y
 _atom_site_fract_z
 _atom_site_occupancy
  Pr  Pr0  1  0.27196014  0.50063694  0.87994959  1
  Pr  Pr1  1  0.72552570  0.51453306  0.12606238  1
  Pr  Pr2  1  0.76651627  0.02406227  0.87446282  1
  Pr  Pr3  1  0.22889768  0.96199572  0.12837234  1
  Mn  Mn4  1  0.30106139  0.43655064  0.61745877  1
  Mn  Mn5  1  0.68811892  0.46061132  0.36212166  1
  Mn  Mn6  1  0.00218714  0.96907332  0.00847614  1
  Mn  Mn7  1  0.79813043  0.01625777  0.61929392  1
  Mn  Mn8  1  0.20478044  0.04321374  0.38635336  1
  Mn  Mn9  1  0.48400559  0.47415519  0.98052780  1
  Sb  Sb10  1  0.88990671  0.96489838  0.44571303  1
  Sb  Sb11  1  0.11555810  0.98228662  0.54901093  1
  Sb  Sb12  1  0.04396567  0.51202024  0.83138662  1
  Sb  Sb13  1  0.96892743  0.48967747  0.19488990  1
  Sb  Sb14  1  0.40147908  0.52889420  0.45056907  1
  Sb  Sb15  1  0.60839508  0.47427652  0.53979868  1
  Sb  Sb16  1  0.52254238  0.97756832  0.79164552  1
  Sb  Sb17  1  0.46771636  0.03271467  0.18000827  1
  S  S18  1  0.92986645  0.01594124  0.79672969  1
  S  S19  1  0.06096971  0.98361798  0.18926203  1
  S  S20  1  0.41199639  0.96875563  0.97108323  1
  S  S21  1  0.57319849  0.02438923  0.99923003  1
  S  S22  1  0.16594735  0.00962977  0.89817759  1
  S  S23  1  0.82818019  0.96541397  0.10635623  1
  S  S24  1  0.08963396  0.46366386  0.63605590  1
  S  S25  1  0.91583046  0.47855311  0.36014169  1
  S  S26  1  0.73658369  0.98398554  0.29760830  1
  S  S27  1  0.26405098  0.97675153  0.69792025  1
  S  S28  1  0.17286964  0.53353296  0.43968530  1
  S  S29  1  0.81089364  0.50172194  0.53642123  1
  S  S30  1  0.43292002  0.47433052  0.79030904  1
  S  S31  1  0.54712756  0.51720242  0.16923047  1
  S  S32  1  0.92073720  0.51616795  0.99315920  1
  S  S33  1  0.08729364  0.46497786  0.03230785  1
  S  S34  1  0.66729156  0.51404475  0.89192129  1
  S  S35  1  0.32927769  0.47137547  0.10790334  1
  S  S36  1  0.59546997  0.99193821  0.64064451  1
  S  S37  1  0.40047963  0.99408637  0.33429905  1
  S  S38  1  0.24495756  0.47782484  0.31689637  1
  S  S39  1  0.76361376  0.49926160  0.69993470  1
  S  S40  1  0.66753303  0.98416390  0.44836616  1
  S  S41  1  0.32983540  0.95585452  0.54856334  1
