# generated using pymatgen
data_Pr2Mn3(SbS3)4
_symmetry_space_group_name_H-M   'P 1'
_cell_length_a   20.02960800
_cell_length_b   3.90410600
_cell_length_c   14.95364829
_cell_angle_alpha   90.00000000
_cell_angle_beta   126.33350609
_cell_angle_gamma   90.00000000
_symmetry_Int_Tables_number   1
_chemical_formula_structural   Pr2Mn3(SbS3)4
_chemical_formula_sum   'Pr4 Mn6 Sb8 S24'
_cell_volume   942.00006694
_cell_formula_units_Z   2
loop_
 _symmetry_equiv_pos_site_id
 _symmetry_equiv_pos_as_xyz
  1  'x, y, z'
loop_
 _atom_site_type_symbol
 _atom_site_label
 _atom_site_symmetry_multiplicity
 _atom_site_fract_x
 _atom_site_fract_y
 _atom_site_fract_z
 _atom_site_occupancy
  Pr  Pr0  1  0.26001507  0.49924838  0.86305964  1
  Pr  Pr1  1  0.74049742  0.49875066  0.13724557  1
  Pr  Pr2  1  0.75989764  0.00270603  0.86260629  1
  Pr  Pr3  1  0.24028183  0.99735599  0.13729512  1
  Mn  Mn4  1  0.30082955  0.50249817  0.62113938  1
  Mn  Mn5  1  0.69869716  0.50035760  0.37925621  1
  Mn  Mn6  1  0.99963760  0.99956411  0.99993157  1
  Mn  Mn7  1  0.80115263  0.00006127  0.62024009  1
  Mn  Mn8  1  0.19920623  0.99730041  0.37954418  1
  Mn  Mn9  1  0.49996934  0.49667359  0.00065641  1
  Sb  Sb10  1  0.89404574  0.99965575  0.45265021  1
  Sb  Sb11  1  0.10671158  0.99988172  0.54845075  1
  Sb  Sb12  1  0.03838217  0.49739436  0.81465390  1
  Sb  Sb13  1  0.96205808  0.49807176  0.18595223  1
  Sb  Sb14  1  0.39393973  0.49933846  0.45321564  1
  Sb  Sb15  1  0.60581393  0.49933589  0.54714567  1
  Sb  Sb16  1  0.53900811  0.99874897  0.81503916  1
  Sb  Sb17  1  0.46183998  0.99941628  0.18552830  1
  S  S18  1  0.94142952  0.99854229  0.80121113  1
  S  S19  1  0.05806036  0.99886096  0.19731710  1
  S  S20  1  0.40103036  0.99671055  0.97990068  1
  S  S21  1  0.59963605  0.00005943  0.02079233  1
  S  S22  1  0.16780987  0.99613788  0.89574987  1
  S  S23  1  0.83104967  0.00031845  0.10320255  1
  S  S24  1  0.08925372  0.50013660  0.65072065  1
  S  S25  1  0.91093137  0.49805266  0.34982033  1
  S  S26  1  0.74276010  0.99657744  0.29350544  1
  S  S27  1  0.25728258  0.00274383  0.70630471  1
  S  S28  1  0.15695487  0.49599621  0.45190327  1
  S  S29  1  0.84330179  0.50118889  0.54807723  1
  S  S30  1  0.44240935  0.49815566  0.80184112  1
  S  S31  1  0.55879661  0.50083167  0.19834331  1
  S  S32  1  0.90119976  0.49703298  0.97949743  1
  S  S33  1  0.09937103  0.49605887  0.02147299  1
  S  S34  1  0.66688299  0.50311961  0.89470236  1
  S  S35  1  0.33352117  0.49951367  0.10571055  1
  S  S36  1  0.58810501  0.00220378  0.64865523  1
  S  S37  1  0.41183369  0.99762380  0.35079525  1
  S  S38  1  0.24346774  0.49582923  0.29352777  1
  S  S39  1  0.75825723  0.49916758  0.70794838  1
  S  S40  1  0.65689686  0.99941116  0.45247441  1
  S  S41  1  0.34309786  0.99780621  0.54709562  1
