# generated using pymatgen
data_Pr2Mn3(SbS3)4
_symmetry_space_group_name_H-M   'P 1'
_cell_length_a   20.02960800
_cell_length_b   3.90410600
_cell_length_c   14.95364829
_cell_angle_alpha   90.00000000
_cell_angle_beta   126.33350609
_cell_angle_gamma   90.00000000
_symmetry_Int_Tables_number   1
_chemical_formula_structural   Pr2Mn3(SbS3)4
_chemical_formula_sum   'Pr4 Mn6 Sb8 S24'
_cell_volume   942.00006694
_cell_formula_units_Z   2
loop_
 _symmetry_equiv_pos_site_id
 _symmetry_equiv_pos_as_xyz
  1  'x, y, z'
loop_
 _atom_site_type_symbol
 _atom_site_label
 _atom_site_symmetry_multiplicity
 _atom_site_fract_x
 _atom_site_fract_y
 _atom_site_fract_z
 _atom_site_occupancy
  Pr  Pr0  1  0.26268568  0.48880313  0.86720586  1
  Pr  Pr1  1  0.73856635  0.50624787  0.13678976  1
  Pr  Pr2  1  0.76149812  0.00776413  0.86222386  1
  Pr  Pr3  1  0.23865438  0.99352879  0.13985892  1
  Mn  Mn4  1  0.29864368  0.50363671  0.61820620  1
  Mn  Mn5  1  0.69734626  0.50865882  0.38116792  1
  Mn  Mn6  1  0.00210916  0.99853740  0.99850529  1
  Mn  Mn7  1  0.80327520  0.99395155  0.61453435  1
  Mn  Mn8  1  0.19871165  0.98072526  0.37908238  1
  Mn  Mn9  1  0.50231925  0.48587719  0.99734970  1
  Sb  Sb10  1  0.89432142  0.00920277  0.45414177  1
  Sb  Sb11  1  0.10832046  0.98049185  0.55111060  1
  Sb  Sb12  1  0.03820529  0.48574486  0.81529663  1
  Sb  Sb13  1  0.96133936  0.51422900  0.18746236  1
  Sb  Sb14  1  0.39544407  0.48803953  0.45725139  1
  Sb  Sb15  1  0.60710062  0.50163485  0.54973178  1
  Sb  Sb16  1  0.53666291  0.00348308  0.81553145  1
  Sb  Sb17  1  0.46211717  0.00179121  0.18073144  1
  S  S18  1  0.93621004  0.97854254  0.79787474  1
  S  S19  1  0.06021778  0.00207411  0.19192752  1
  S  S20  1  0.40669893  0.99302371  0.97901572  1
  S  S21  1  0.59320203  0.99598557  0.01568057  1
  S  S22  1  0.17150877  0.98790526  0.90213299  1
  S  S23  1  0.82895770  0.01459239  0.10662273  1
  S  S24  1  0.08414768  0.48856976  0.64344037  1
  S  S25  1  0.91409332  0.48083751  0.36049058  1
  S  S26  1  0.74348473  0.95162510  0.29586799  1
  S  S27  1  0.25599809  0.99910365  0.70187637  1
  S  S28  1  0.16262552  0.49398554  0.44635108  1
  S  S29  1  0.83051247  0.49121411  0.54817906  1
  S  S30  1  0.43604271  0.51026812  0.79984495  1
  S  S31  1  0.56051784  0.50677107  0.19138417  1
  S  S32  1  0.90155865  0.47792903  0.97520416  1
  S  S33  1  0.08986431  0.48141170  0.01737704  1
  S  S34  1  0.66438225  0.50180591  0.89515765  1
  S  S35  1  0.33170032  0.51685673  0.10056007  1
  S  S36  1  0.59269260  0.01376912  0.65043625  1
  S  S37  1  0.41361366  0.97611840  0.35862641  1
  S  S38  1  0.24356811  0.47312374  0.29821101  1
  S  S39  1  0.76227201  0.50389606  0.70059138  1
  S  S40  1  0.66579143  0.00888102  0.46145392  1
  S  S41  1  0.33161383  0.98165650  0.54168969  1
