# generated using pymatgen
data_Pr2Mn3(SbS3)4
_symmetry_space_group_name_H-M   'P 1'
_cell_length_a   20.02960800
_cell_length_b   3.90410600
_cell_length_c   14.95364829
_cell_angle_alpha   90.00000000
_cell_angle_beta   126.33350609
_cell_angle_gamma   90.00000000
_symmetry_Int_Tables_number   1
_chemical_formula_structural   Pr2Mn3(SbS3)4
_chemical_formula_sum   'Pr4 Mn6 Sb8 S24'
_cell_volume   942.00006694
_cell_formula_units_Z   2
loop_
 _symmetry_equiv_pos_site_id
 _symmetry_equiv_pos_as_xyz
  1  'x, y, z'
loop_
 _atom_site_type_symbol
 _atom_site_label
 _atom_site_symmetry_multiplicity
 _atom_site_fract_x
 _atom_site_fract_y
 _atom_site_fract_z
 _atom_site_occupancy
  Pr  Pr0  1  0.27190452  0.50091660  0.88014467  1
  Pr  Pr1  1  0.72548944  0.51472934  0.12613281  1
  Pr  Pr2  1  0.76650035  0.02361657  0.87476681  1
  Pr  Pr3  1  0.22888805  0.96226671  0.12827196  1
  Mn  Mn4  1  0.30112117  0.43645295  0.61725057  1
  Mn  Mn5  1  0.68811794  0.46029195  0.36215380  1
  Mn  Mn6  1  0.00223322  0.96920873  0.00843599  1
  Mn  Mn7  1  0.79814965  0.01617523  0.61931432  1
  Mn  Mn8  1  0.20478632  0.04348516  0.38646009  1
  Mn  Mn9  1  0.48402641  0.47485505  0.98024840  1
  Sb  Sb10  1  0.88982261  0.96512951  0.44575421  1
  Sb  Sb11  1  0.11555226  0.98173407  0.54913985  1
  Sb  Sb12  1  0.04389508  0.51197908  0.83135881  1
  Sb  Sb13  1  0.96894416  0.49045195  0.19495146  1
  Sb  Sb14  1  0.40147320  0.52913572  0.45050046  1
  Sb  Sb15  1  0.60835940  0.47448476  0.53973303  1
  Sb  Sb16  1  0.52250814  0.97763100  0.79171117  1
  Sb  Sb17  1  0.46776114  0.03234561  0.17999387  1
  S  S18  1  0.92994765  0.01549374  0.79664007  1
  S  S19  1  0.06078014  0.98382651  0.18892560  1
  S  S20  1  0.41174083  0.96933890  0.97090335  1
  S  S21  1  0.57314015  0.02465354  0.99916607  1
  S  S22  1  0.16588844  0.00940794  0.89821554  1
  S  S23  1  0.82803248  0.96547630  0.10622239  1
  S  S24  1  0.08947612  0.46420781  0.63603132  1
  S  S25  1  0.91606090  0.47710108  0.36036392  1
  S  S26  1  0.73668272  0.98375713  0.29755938  1
  S  S27  1  0.26388423  0.97624956  0.69773402  1
  S  S28  1  0.17291324  0.53456216  0.43968259  1
  S  S29  1  0.81105307  0.50195474  0.53663928  1
  S  S30  1  0.43294660  0.47481711  0.79036358  1
  S  S31  1  0.54748518  0.51704589  0.16928974  1
  S  S32  1  0.92058572  0.51563115  0.99329144  1
  S  S33  1  0.08737248  0.46408542  0.03268839  1
  S  S34  1  0.66733984  0.51220443  0.89207981  1
  S  S35  1  0.32912408  0.47139455  0.10781080  1
  S  S36  1  0.59552199  0.99270249  0.64047453  1
  S  S37  1  0.40037201  0.99507683  0.33414944  1
  S  S38  1  0.24507272  0.47921848  0.31665546  1
  S  S39  1  0.76374704  0.49848492  0.70019020  1
  S  S40  1  0.66756527  0.98417571  0.44846007  1
  S  S41  1  0.32991105  0.95546204  0.54879215  1
