# generated using pymatgen
data_Pr2Mn3(SbS3)4
_symmetry_space_group_name_H-M   'P 1'
_cell_length_a   20.02960800
_cell_length_b   3.90410600
_cell_length_c   14.95364829
_cell_angle_alpha   90.00000000
_cell_angle_beta   126.33350609
_cell_angle_gamma   90.00000000
_symmetry_Int_Tables_number   1
_chemical_formula_structural   Pr2Mn3(SbS3)4
_chemical_formula_sum   'Pr4 Mn6 Sb8 S24'
_cell_volume   942.00006694
_cell_formula_units_Z   2
loop_
 _symmetry_equiv_pos_site_id
 _symmetry_equiv_pos_as_xyz
  1  'x, y, z'
loop_
 _atom_site_type_symbol
 _atom_site_label
 _atom_site_symmetry_multiplicity
 _atom_site_fract_x
 _atom_site_fract_y
 _atom_site_fract_z
 _atom_site_occupancy
  Pr  Pr0  1  0.27187572  0.50113932  0.88029299  1
  Pr  Pr1  1  0.72548956  0.51503480  0.12619293  1
  Pr  Pr2  1  0.76652161  0.02299288  0.87513187  1
  Pr  Pr3  1  0.22890772  0.96261683  0.12822334  1
  Mn  Mn4  1  0.30125194  0.43626539  0.61720900  1
  Mn  Mn5  1  0.68818089  0.46004645  0.36224991  1
  Mn  Mn6  1  0.00241093  0.96920752  0.00843084  1
  Mn  Mn7  1  0.79814491  0.01571595  0.61937203  1
  Mn  Mn8  1  0.20474267  0.04345600  0.38653631  1
  Mn  Mn9  1  0.48408559  0.47566658  0.98001731  1
  Sb  Sb10  1  0.88967820  0.96559729  0.44565121  1
  Sb  Sb11  1  0.11556118  0.98131756  0.54927898  1
  Sb  Sb12  1  0.04378095  0.51191138  0.83133023  1
  Sb  Sb13  1  0.96899948  0.49084485  0.19505620  1
  Sb  Sb14  1  0.40147647  0.52907469  0.45043044  1
  Sb  Sb15  1  0.60834689  0.47465703  0.53966247  1
  Sb  Sb16  1  0.52246952  0.97760864  0.79175770  1
  Sb  Sb17  1  0.46782645  0.03213080  0.17998296  1
  S  S18  1  0.93003085  0.01488458  0.79660403  1
  S  S19  1  0.06064599  0.98393750  0.18872470  1
  S  S20  1  0.41151987  0.96985820  0.97081923  1
  S  S21  1  0.57303826  0.02486868  0.99900187  1
  S  S22  1  0.16593131  0.00919601  0.89832756  1
  S  S23  1  0.82804165  0.96608767  0.10624768  1
  S  S24  1  0.08940927  0.46426612  0.63599515  1
  S  S25  1  0.91630321  0.47635942  0.36047226  1
  S  S26  1  0.73677731  0.98413603  0.29751825  1
  S  S27  1  0.26391135  0.97611157  0.69767943  1
  S  S28  1  0.17293722  0.53572232  0.43976904  1
  S  S29  1  0.81121423  0.50206569  0.53689121  1
  S  S30  1  0.43308473  0.47509543  0.79065122  1
  S  S31  1  0.54775973  0.51720125  0.16920855  1
  S  S32  1  0.92049208  0.51436080  0.99337948  1
  S  S33  1  0.08745958  0.46316673  0.03294973  1
  S  S34  1  0.66724912  0.51030379  0.89208188  1
  S  S35  1  0.32898248  0.47126967  0.10771405  1
  S  S36  1  0.59561981  0.99316128  0.64045656  1
  S  S37  1  0.40015924  0.99555943  0.33393460  1
  S  S38  1  0.24517355  0.48052091  0.31638115  1
  S  S39  1  0.76393781  0.49773227  0.70037219  1
  S  S40  1  0.66764166  0.98442558  0.44848679  1
  S  S41  1  0.33007953  0.95462715  0.54917582  1
