# generated using pymatgen
data_Pr2Mn3(SbS3)4
_symmetry_space_group_name_H-M   'P 1'
_cell_length_a   20.02960800
_cell_length_b   3.90410600
_cell_length_c   14.95364829
_cell_angle_alpha   90.00000000
_cell_angle_beta   126.33350609
_cell_angle_gamma   90.00000000
_symmetry_Int_Tables_number   1
_chemical_formula_structural   Pr2Mn3(SbS3)4
_chemical_formula_sum   'Pr4 Mn6 Sb8 S24'
_cell_volume   942.00006694
_cell_formula_units_Z   2
loop_
 _symmetry_equiv_pos_site_id
 _symmetry_equiv_pos_as_xyz
  1  'x, y, z'
loop_
 _atom_site_type_symbol
 _atom_site_label
 _atom_site_symmetry_multiplicity
 _atom_site_fract_x
 _atom_site_fract_y
 _atom_site_fract_z
 _atom_site_occupancy
  Pr  Pr0  1  0.27183728  0.50143501  0.88043445  1
  Pr  Pr1  1  0.72546312  0.51537072  0.12620083  1
  Pr  Pr2  1  0.76654514  0.02246004  0.87552083  1
  Pr  Pr3  1  0.22890484  0.96268288  0.12819028  1
  Mn  Mn4  1  0.30133329  0.43597148  0.61713405  1
  Mn  Mn5  1  0.68832805  0.45967902  0.36243103  1
  Mn  Mn6  1  0.00266611  0.96929452  0.00850653  1
  Mn  Mn7  1  0.79810007  0.01542398  0.61945714  1
  Mn  Mn8  1  0.20475190  0.04343740  0.38666123  1
  Mn  Mn9  1  0.48412864  0.47640698  0.97973042  1
  Sb  Sb10  1  0.88952378  0.96582856  0.44548681  1
  Sb  Sb11  1  0.11557963  0.98076137  0.54937129  1
  Sb  Sb12  1  0.04367640  0.51180765  0.83121713  1
  Sb  Sb13  1  0.96899640  0.49112197  0.19509912  1
  Sb  Sb14  1  0.40151214  0.52924473  0.45042462  1
  Sb  Sb15  1  0.60830995  0.47470917  0.53958259  1
  Sb  Sb16  1  0.52250725  0.97724175  0.79186060  1
  Sb  Sb17  1  0.46788997  0.03201037  0.17994325  1
  S  S18  1  0.93006375  0.01415787  0.79645559  1
  S  S19  1  0.06046918  0.98381808  0.18847051  1
  S  S20  1  0.41142148  0.97040826  0.97096360  1
  S  S21  1  0.57310062  0.02512430  0.99894275  1
  S  S22  1  0.16601096  0.00902381  0.89849577  1
  S  S23  1  0.82814334  0.96669876  0.10629806  1
  S  S24  1  0.08925290  0.46399086  0.63575738  1
  S  S25  1  0.91640623  0.47563184  0.36045009  1
  S  S26  1  0.73683396  0.98416062  0.29748515  1
  S  S27  1  0.26397198  0.97586919  0.69768115  1
  S  S28  1  0.17302236  0.53716565  0.43993760  1
  S  S29  1  0.81134679  0.50171624  0.53717429  1
  S  S30  1  0.43325439  0.47549690  0.79095538  1
  S  S31  1  0.54812422  0.51732704  0.16914281  1
  S  S32  1  0.92047968  0.51302382  0.99340432  1
  S  S33  1  0.08744386  0.46202570  0.03310283  1
  S  S34  1  0.66719431  0.50870100  0.89207303  1
  S  S35  1  0.32871810  0.47182444  0.10741990  1
  S  S36  1  0.59574233  0.99377758  0.64054580  1
  S  S37  1  0.40002661  0.99661197  0.33395764  1
  S  S38  1  0.24518901  0.48171322  0.31595388  1
  S  S39  1  0.76410764  0.49710577  0.70038485  1
  S  S40  1  0.66763042  0.98422929  0.44848593  1
  S  S41  1  0.33024749  0.95337737  0.54954869  1
