# generated using pymatgen
data_Pr2Mn3(SbS3)4
_symmetry_space_group_name_H-M   'P 1'
_cell_length_a   20.02960800
_cell_length_b   3.90410600
_cell_length_c   14.95364829
_cell_angle_alpha   90.00000000
_cell_angle_beta   126.33350609
_cell_angle_gamma   90.00000000
_symmetry_Int_Tables_number   1
_chemical_formula_structural   Pr2Mn3(SbS3)4
_chemical_formula_sum   'Pr4 Mn6 Sb8 S24'
_cell_volume   942.00006694
_cell_formula_units_Z   2
loop_
 _symmetry_equiv_pos_site_id
 _symmetry_equiv_pos_as_xyz
  1  'x, y, z'
loop_
 _atom_site_type_symbol
 _atom_site_label
 _atom_site_symmetry_multiplicity
 _atom_site_fract_x
 _atom_site_fract_y
 _atom_site_fract_z
 _atom_site_occupancy
  Pr  Pr0  1  0.27181012  0.50156106  0.88049713  1
  Pr  Pr1  1  0.72536435  0.51576960  0.12618906  1
  Pr  Pr2  1  0.76657575  0.02201454  0.87588007  1
  Pr  Pr3  1  0.22889769  0.96270109  0.12819303  1
  Mn  Mn4  1  0.30144817  0.43585221  0.61706821  1
  Mn  Mn5  1  0.68845869  0.45943841  0.36259361  1
  Mn  Mn6  1  0.00278604  0.96940865  0.00843275  1
  Mn  Mn7  1  0.79812846  0.01500316  0.61967222  1
  Mn  Mn8  1  0.20482135  0.04324641  0.38682846  1
  Mn  Mn9  1  0.48421475  0.47731471  0.97948534  1
  Sb  Sb10  1  0.88937137  0.96585497  0.44533031  1
  Sb  Sb11  1  0.11559091  0.98045800  0.54944255  1
  Sb  Sb12  1  0.04358976  0.51166789  0.83114534  1
  Sb  Sb13  1  0.96902962  0.49157149  0.19511600  1
  Sb  Sb14  1  0.40154088  0.52948449  0.45041781  1
  Sb  Sb15  1  0.60831683  0.47505759  0.53955871  1
  Sb  Sb16  1  0.52257598  0.97701390  0.79199988  1
  Sb  Sb17  1  0.46794973  0.03192742  0.17992119  1
  S  S18  1  0.93013465  0.01376004  0.79639839  1
  S  S19  1  0.06028054  0.98381034  0.18816666  1
  S  S20  1  0.41132259  0.97120877  0.97106549  1
  S  S21  1  0.57325956  0.02472309  0.99889508  1
  S  S22  1  0.16608726  0.00901138  0.89886358  1
  S  S23  1  0.82806624  0.96777097  0.10619272  1
  S  S24  1  0.08902365  0.46385288  0.63553992  1
  S  S25  1  0.91647967  0.47471142  0.36041924  1
  S  S26  1  0.73681411  0.98430420  0.29737358  1
  S  S27  1  0.26408111  0.97533663  0.69763653  1
  S  S28  1  0.17311038  0.53835942  0.44002652  1
  S  S29  1  0.81152249  0.50121053  0.53741482  1
  S  S30  1  0.43334229  0.47569366  0.79117858  1
  S  S31  1  0.54843510  0.51737089  0.16894342  1
  S  S32  1  0.92041827  0.51197075  0.99357218  1
  S  S33  1  0.08742600  0.46084963  0.03318592  1
  S  S34  1  0.66707682  0.50717351  0.89198870  1
  S  S35  1  0.32841706  0.47248600  0.10708937  1
  S  S36  1  0.59578477  0.99433793  0.64053351  1
  S  S37  1  0.39999596  0.99710101  0.33408915  1
  S  S38  1  0.24519828  0.48263037  0.31547772  1
  S  S39  1  0.76429427  0.49638764  0.70024556  1
  S  S40  1  0.66759846  0.98404835  0.44864181  1
  S  S41  1  0.33043652  0.95232051  0.54992486  1
