# generated using pymatgen
data_Pr2Mn3(SbS3)4
_symmetry_space_group_name_H-M   'P 1'
_cell_length_a   20.02960800
_cell_length_b   3.90410600
_cell_length_c   14.95364829
_cell_angle_alpha   90.00000000
_cell_angle_beta   126.33350609
_cell_angle_gamma   90.00000000
_symmetry_Int_Tables_number   1
_chemical_formula_structural   Pr2Mn3(SbS3)4
_chemical_formula_sum   'Pr4 Mn6 Sb8 S24'
_cell_volume   942.00006694
_cell_formula_units_Z   2
loop_
 _symmetry_equiv_pos_site_id
 _symmetry_equiv_pos_as_xyz
  1  'x, y, z'
loop_
 _atom_site_type_symbol
 _atom_site_label
 _atom_site_symmetry_multiplicity
 _atom_site_fract_x
 _atom_site_fract_y
 _atom_site_fract_z
 _atom_site_occupancy
  Pr  Pr0  1  0.27181769  0.50135749  0.88061980  1
  Pr  Pr1  1  0.72520985  0.51639634  0.12614251  1
  Pr  Pr2  1  0.76655563  0.02147107  0.87619946  1
  Pr  Pr3  1  0.22893983  0.96242397  0.12824413  1
  Mn  Mn4  1  0.30146883  0.43567099  0.61684638  1
  Mn  Mn5  1  0.68865563  0.45955502  0.36279975  1
  Mn  Mn6  1  0.00274667  0.96942888  0.00829834  1
  Mn  Mn7  1  0.79824487  0.01484928  0.61988516  1
  Mn  Mn8  1  0.20495291  0.04322342  0.38698147  1
  Mn  Mn9  1  0.48427653  0.47761691  0.97916758  1
  Sb  Sb10  1  0.88924319  0.96598063  0.44524521  1
  Sb  Sb11  1  0.11562753  0.98037385  0.54960199  1
  Sb  Sb12  1  0.04355105  0.51163587  0.83116269  1
  Sb  Sb13  1  0.96907417  0.49188878  0.19514494  1
  Sb  Sb14  1  0.40155248  0.52934101  0.45039070  1
  Sb  Sb15  1  0.60830919  0.47542545  0.53954080  1
  Sb  Sb16  1  0.52265334  0.97653558  0.79210671  1
  Sb  Sb17  1  0.46803048  0.03171052  0.17990120  1
  S  S18  1  0.93027188  0.01310798  0.79639132  1
  S  S19  1  0.06011708  0.98304173  0.18782131  1
  S  S20  1  0.41118832  0.97210762  0.97124456  1
  S  S21  1  0.57340785  0.02437793  0.99907848  1
  S  S22  1  0.16632014  0.00902946  0.89935615  1
  S  S23  1  0.82800070  0.96892782  0.10612549  1
  S  S24  1  0.08894307  0.46389598  0.63554032  1
  S  S25  1  0.91666392  0.47316863  0.36057095  1
  S  S26  1  0.73685127  0.98443507  0.29735425  1
  S  S27  1  0.26426598  0.97515362  0.69767814  1
  S  S28  1  0.17315478  0.53932510  0.44006019  1
  S  S29  1  0.81162840  0.50067896  0.53760483  1
  S  S30  1  0.43337635  0.47550959  0.79119808  1
  S  S31  1  0.54871083  0.51756917  0.16869090  1
  S  S32  1  0.92031759  0.51067604  0.99366234  1
  S  S33  1  0.08745231  0.45961471  0.03336469  1
  S  S34  1  0.66685552  0.50559147  0.89172790  1
  S  S35  1  0.32810822  0.47339103  0.10682812  1
  S  S36  1  0.59570049  0.99487472  0.64051493  1
  S  S37  1  0.39996929  0.99793195  0.33434609  1
  S  S38  1  0.24524098  0.48374999  0.31500310  1
  S  S39  1  0.76441848  0.49553487  0.70012511  1
  S  S40  1  0.66752609  0.98401054  0.44868213  1
  S  S41  1  0.33065436  0.95081866  0.55036691  1
