# generated using pymatgen
data_Pr2Mn3(SbS3)4
_symmetry_space_group_name_H-M   'P 1'
_cell_length_a   20.02960800
_cell_length_b   3.90410600
_cell_length_c   14.95364829
_cell_angle_alpha   90.00000000
_cell_angle_beta   126.33350609
_cell_angle_gamma   90.00000000
_symmetry_Int_Tables_number   1
_chemical_formula_structural   Pr2Mn3(SbS3)4
_chemical_formula_sum   'Pr4 Mn6 Sb8 S24'
_cell_volume   942.00006694
_cell_formula_units_Z   2
loop_
 _symmetry_equiv_pos_site_id
 _symmetry_equiv_pos_as_xyz
  1  'x, y, z'
loop_
 _atom_site_type_symbol
 _atom_site_label
 _atom_site_symmetry_multiplicity
 _atom_site_fract_x
 _atom_site_fract_y
 _atom_site_fract_z
 _atom_site_occupancy
  Pr  Pr0  1  0.27184589  0.50118559  0.88065863  1
  Pr  Pr1  1  0.72506756  0.51713805  0.12612449  1
  Pr  Pr2  1  0.76653707  0.02096319  0.87648499  1
  Pr  Pr3  1  0.22901002  0.96229437  0.12834385  1
  Mn  Mn4  1  0.30144432  0.43549738  0.61654282  1
  Mn  Mn5  1  0.68885401  0.45979385  0.36301634  1
  Mn  Mn6  1  0.00272507  0.96901501  0.00822950  1
  Mn  Mn7  1  0.79832759  0.01486697  0.62007523  1
  Mn  Mn8  1  0.20503724  0.04328603  0.38715290  1
  Mn  Mn9  1  0.48429400  0.47799956  0.97880832  1
  Sb  Sb10  1  0.88913782  0.96624548  0.44523840  1
  Sb  Sb11  1  0.11558127  0.98017744  0.54968676  1
  Sb  Sb12  1  0.04350779  0.51176632  0.83121685  1
  Sb  Sb13  1  0.96917251  0.49214291  0.19512780  1
  Sb  Sb14  1  0.40159916  0.52915451  0.45038244  1
  Sb  Sb15  1  0.60826614  0.47565978  0.53950138  1
  Sb  Sb16  1  0.52271145  0.97620357  0.79217536  1
  Sb  Sb17  1  0.46807906  0.03137035  0.17993556  1
  S  S18  1  0.93036409  0.01238482  0.79630724  1
  S  S19  1  0.06003362  0.98208254  0.18764981  1
  S  S20  1  0.41100113  0.97273943  0.97127325  1
  S  S21  1  0.57361693  0.02377779  0.99926159  1
  S  S22  1  0.16637152  0.00900417  0.89967644  1
  S  S23  1  0.82786942  0.96991238  0.10604191  1
  S  S24  1  0.08897882  0.46393862  0.63566961  1
  S  S25  1  0.91701081  0.47192855  0.36086600  1
  S  S26  1  0.73692821  0.98410981  0.29730345  1
  S  S27  1  0.26440638  0.97486915  0.69779690  1
  S  S28  1  0.17318385  0.54003628  0.44014271  1
  S  S29  1  0.81175905  0.49970495  0.53778161  1
  S  S30  1  0.43346118  0.47564951  0.79119008  1
  S  S31  1  0.54898459  0.51720939  0.16844812  1
  S  S32  1  0.92025538  0.50916748  0.99369480  1
  S  S33  1  0.08752365  0.45829925  0.03347320  1
  S  S34  1  0.66662874  0.50407893  0.89145555  1
  S  S35  1  0.32782793  0.47428005  0.10657023  1
  S  S36  1  0.59554149  0.99513835  0.64039711  1
  S  S37  1  0.39987058  0.99852243  0.33436140  1
  S  S38  1  0.24520441  0.48474259  0.31439119  1
  S  S39  1  0.76458992  0.49404720  0.70021656  1
  S  S40  1  0.66744175  0.98379601  0.44872267  1
  S  S41  1  0.33072946  0.94894667  0.55082802  1
