# generated using pymatgen
data_Pr2Mn3(SbS3)4
_symmetry_space_group_name_H-M   'P 1'
_cell_length_a   20.02960800
_cell_length_b   3.90410600
_cell_length_c   14.95364829
_cell_angle_alpha   90.00000000
_cell_angle_beta   126.33350609
_cell_angle_gamma   90.00000000
_symmetry_Int_Tables_number   1
_chemical_formula_structural   Pr2Mn3(SbS3)4
_chemical_formula_sum   'Pr4 Mn6 Sb8 S24'
_cell_volume   942.00006694
_cell_formula_units_Z   2
loop_
 _symmetry_equiv_pos_site_id
 _symmetry_equiv_pos_as_xyz
  1  'x, y, z'
loop_
 _atom_site_type_symbol
 _atom_site_label
 _atom_site_symmetry_multiplicity
 _atom_site_fract_x
 _atom_site_fract_y
 _atom_site_fract_z
 _atom_site_occupancy
  Pr  Pr0  1  0.27184643  0.50089699  0.88070981  1
  Pr  Pr1  1  0.72493874  0.51769633  0.12610445  1
  Pr  Pr2  1  0.76655467  0.02011735  0.87674273  1
  Pr  Pr3  1  0.22913407  0.96197524  0.12843053  1
  Mn  Mn4  1  0.30145862  0.43527317  0.61628471  1
  Mn  Mn5  1  0.68904808  0.46020816  0.36332903  1
  Mn  Mn6  1  0.00276051  0.96856359  0.00815052  1
  Mn  Mn7  1  0.79839009  0.01489650  0.62016377  1
  Mn  Mn8  1  0.20503354  0.04333341  0.38710911  1
  Mn  Mn9  1  0.48427157  0.47854823  0.97833712  1
  Sb  Sb10  1  0.88894195  0.96666902  0.44516055  1
  Sb  Sb11  1  0.11554943  0.98001052  0.54977240  1
  Sb  Sb12  1  0.04347602  0.51168075  0.83127750  1
  Sb  Sb13  1  0.96925680  0.49210720  0.19505114  1
  Sb  Sb14  1  0.40164733  0.52903307  0.45038916  1
  Sb  Sb15  1  0.60828471  0.47593584  0.53955416  1
  Sb  Sb16  1  0.52280023  0.97574723  0.79226196  1
  Sb  Sb17  1  0.46809874  0.03124016  0.17998144  1
  S  S18  1  0.93042886  0.01177034  0.79608438  1
  S  S19  1  0.05982857  0.98141138  0.18740773  1
  S  S20  1  0.41073292  0.97344598  0.97119866  1
  S  S21  1  0.57361733  0.02343750  0.99917242  1
  S  S22  1  0.16649996  0.00865529  0.90000836  1
  S  S23  1  0.82766315  0.97053498  0.10594934  1
  S  S24  1  0.08899043  0.46434550  0.63568323  1
  S  S25  1  0.91724260  0.47089084  0.36113308  1
  S  S26  1  0.73698399  0.98380154  0.29735956  1
  S  S27  1  0.26461971  0.97453032  0.69797106  1
  S  S28  1  0.17328932  0.54113738  0.44025422  1
  S  S29  1  0.81180576  0.49828367  0.53779357  1
  S  S30  1  0.43348714  0.47539901  0.79122160  1
  S  S31  1  0.54917690  0.51663809  0.16820222  1
  S  S32  1  0.92011355  0.50786802  0.99350834  1
  S  S33  1  0.08758129  0.45706118  0.03334989  1
  S  S34  1  0.66643554  0.50259226  0.89122142  1
  S  S35  1  0.32764367  0.47490070  0.10646463  1
  S  S36  1  0.59541511  0.99521931  0.64033618  1
  S  S37  1  0.39973383  0.99929946  0.33450537  1
  S  S38  1  0.24518811  0.48545767  0.31376117  1
  S  S39  1  0.76474428  0.49307718  0.70017564  1
  S  S40  1  0.66727648  0.98325173  0.44864699  1
  S  S41  1  0.33071617  0.94726289  0.55118956  1
