# generated using pymatgen
data_Pr2Mn3(SbS3)4
_symmetry_space_group_name_H-M   'P 1'
_cell_length_a   20.02960800
_cell_length_b   3.90410600
_cell_length_c   14.95364829
_cell_angle_alpha   90.00000000
_cell_angle_beta   126.33350609
_cell_angle_gamma   90.00000000
_symmetry_Int_Tables_number   1
_chemical_formula_structural   Pr2Mn3(SbS3)4
_chemical_formula_sum   'Pr4 Mn6 Sb8 S24'
_cell_volume   942.00006694
_cell_formula_units_Z   2
loop_
 _symmetry_equiv_pos_site_id
 _symmetry_equiv_pos_as_xyz
  1  'x, y, z'
loop_
 _atom_site_type_symbol
 _atom_site_label
 _atom_site_symmetry_multiplicity
 _atom_site_fract_x
 _atom_site_fract_y
 _atom_site_fract_z
 _atom_site_occupancy
  Pr  Pr0  1  0.27192207  0.50063247  0.88085700  1
  Pr  Pr1  1  0.72482939  0.51826750  0.12602253  1
  Pr  Pr2  1  0.76657053  0.01953389  0.87697550  1
  Pr  Pr3  1  0.22926513  0.96167096  0.12855957  1
  Mn  Mn4  1  0.30143702  0.43494776  0.61600982  1
  Mn  Mn5  1  0.68925845  0.46097719  0.36359114  1
  Mn  Mn6  1  0.00285291  0.96811463  0.00816305  1
  Mn  Mn7  1  0.79844462  0.01486726  0.62033885  1
  Mn  Mn8  1  0.20502027  0.04383497  0.38703814  1
  Mn  Mn9  1  0.48423243  0.47903019  0.97791979  1
  Sb  Sb10  1  0.88878260  0.96734218  0.44511205  1
  Sb  Sb11  1  0.11556558  0.98002635  0.54986392  1
  Sb  Sb12  1  0.04351715  0.51183348  0.83137618  1
  Sb  Sb13  1  0.96934254  0.49190856  0.19490987  1
  Sb  Sb14  1  0.40168814  0.52898576  0.45042850  1
  Sb  Sb15  1  0.60832379  0.47590706  0.53961574  1
  Sb  Sb16  1  0.52289121  0.97503460  0.79240562  1
  Sb  Sb17  1  0.46809322  0.03112873  0.18000962  1
  S  S18  1  0.93046124  0.01176090  0.79594276  1
  S  S19  1  0.05966461  0.98077676  0.18723278  1
  S  S20  1  0.41047183  0.97415082  0.97116756  1
  S  S21  1  0.57365259  0.02325351  0.99913999  1
  S  S22  1  0.16668048  0.00841770  0.90048762  1
  S  S23  1  0.82742345  0.97136812  0.10592326  1
  S  S24  1  0.08901235  0.46446056  0.63562918  1
  S  S25  1  0.91746209  0.46949973  0.36135571  1
  S  S26  1  0.73708376  0.98365005  0.29732395  1
  S  S27  1  0.26472963  0.97388372  0.69801461  1
  S  S28  1  0.17339367  0.54273445  0.44035979  1
  S  S29  1  0.81184597  0.49673739  0.53782563  1
  S  S30  1  0.43359746  0.47482496  0.79123250  1
  S  S31  1  0.54938557  0.51589466  0.16806553  1
  S  S32  1  0.91996535  0.50713692  0.99338392  1
  S  S33  1  0.08767638  0.45570787  0.03334791  1
  S  S34  1  0.66632210  0.50115900  0.89112444  1
  S  S35  1  0.32748467  0.47580483  0.10637130  1
  S  S36  1  0.59517830  0.99551243  0.64019185  1
  S  S37  1  0.39964512  0.00044555  0.33476252  1
  S  S38  1  0.24511180  0.48597033  0.31314353  1
  S  S39  1  0.76476590  0.49222449  0.69990808  1
  S  S40  1  0.66706675  0.98286605  0.44855395  1
  S  S41  1  0.33065595  0.94586663  0.55150172  1
