# generated using pymatgen
data_Pr2Mn3(SbS3)4
_symmetry_space_group_name_H-M   'P 1'
_cell_length_a   20.02960800
_cell_length_b   3.90410600
_cell_length_c   14.95364829
_cell_angle_alpha   90.00000000
_cell_angle_beta   126.33350609
_cell_angle_gamma   90.00000000
_symmetry_Int_Tables_number   1
_chemical_formula_structural   Pr2Mn3(SbS3)4
_chemical_formula_sum   'Pr4 Mn6 Sb8 S24'
_cell_volume   942.00006694
_cell_formula_units_Z   2
loop_
 _symmetry_equiv_pos_site_id
 _symmetry_equiv_pos_as_xyz
  1  'x, y, z'
loop_
 _atom_site_type_symbol
 _atom_site_label
 _atom_site_symmetry_multiplicity
 _atom_site_fract_x
 _atom_site_fract_y
 _atom_site_fract_z
 _atom_site_occupancy
  Pr  Pr0  1  0.27206044  0.50014292  0.88104946  1
  Pr  Pr1  1  0.72470335  0.51836954  0.12597161  1
  Pr  Pr2  1  0.76657230  0.01901795  0.87716108  1
  Pr  Pr3  1  0.22932945  0.96136490  0.12860614  1
  Mn  Mn4  1  0.30132574  0.43432755  0.61566020  1
  Mn  Mn5  1  0.68933383  0.46184666  0.36369013  1
  Mn  Mn6  1  0.00302368  0.96746949  0.00826141  1
  Mn  Mn7  1  0.79848897  0.01516968  0.62046423  1
  Mn  Mn8  1  0.20497865  0.04448646  0.38699414  1
  Mn  Mn9  1  0.48421190  0.47945639  0.97763027  1
  Sb  Sb10  1  0.88864230  0.96797372  0.44509940  1
  Sb  Sb11  1  0.11558353  0.98036595  0.54988323  1
  Sb  Sb12  1  0.04359780  0.51202252  0.83148145  1
  Sb  Sb13  1  0.96942475  0.49161413  0.19478757  1
  Sb  Sb14  1  0.40180251  0.52877884  0.45054598  1
  Sb  Sb15  1  0.60837534  0.47569928  0.53965687  1
  Sb  Sb16  1  0.52297913  0.97441843  0.79257912  1
  Sb  Sb17  1  0.46810552  0.03131958  0.18009582  1
  S  S18  1  0.93036756  0.01120551  0.79566588  1
  S  S19  1  0.05958590  0.98013714  0.18725384  1
  S  S20  1  0.41015221  0.97463030  0.97107548  1
  S  S21  1  0.57374022  0.02352787  0.99915136  1
  S  S22  1  0.16676403  0.00821926  0.90081403  1
  S  S23  1  0.82713224  0.97230856  0.10569066  1
  S  S24  1  0.08900619  0.46430821  0.63559216  1
  S  S25  1  0.91754610  0.46845013  0.36140688  1
  S  S26  1  0.73713415  0.98345043  0.29738503  1
  S  S27  1  0.26489737  0.97353297  0.69822447  1
  S  S28  1  0.17355075  0.54402383  0.44048337  1
  S  S29  1  0.81178444  0.49529874  0.53786351  1
  S  S30  1  0.43356169  0.47465484  0.79111446  1
  S  S31  1  0.54948502  0.51535924  0.16802220  1
  S  S32  1  0.91973403  0.50622523  0.99327511  1
  S  S33  1  0.08778520  0.45443543  0.03325469  1
  S  S34  1  0.66631576  0.49944111  0.89096147  1
  S  S35  1  0.32740174  0.47653149  0.10627567  1
  S  S36  1  0.59496348  0.99637095  0.64003670  1
  S  S37  1  0.39944626  0.00118164  0.33484374  1
  S  S38  1  0.24507405  0.48591814  0.31256622  1
  S  S39  1  0.76471733  0.49148427  0.69963228  1
  S  S40  1  0.66691955  0.98276943  0.44848912  1
  S  S41  1  0.33055023  0.94496372  0.55167697  1
