# generated using pymatgen
data_Pr2Mn3(SbS3)4
_symmetry_space_group_name_H-M   'P 1'
_cell_length_a   20.02960800
_cell_length_b   3.90410600
_cell_length_c   14.95364829
_cell_angle_alpha   90.00000000
_cell_angle_beta   126.33350609
_cell_angle_gamma   90.00000000
_symmetry_Int_Tables_number   1
_chemical_formula_structural   Pr2Mn3(SbS3)4
_chemical_formula_sum   'Pr4 Mn6 Sb8 S24'
_cell_volume   942.00006694
_cell_formula_units_Z   2
loop_
 _symmetry_equiv_pos_site_id
 _symmetry_equiv_pos_as_xyz
  1  'x, y, z'
loop_
 _atom_site_type_symbol
 _atom_site_label
 _atom_site_symmetry_multiplicity
 _atom_site_fract_x
 _atom_site_fract_y
 _atom_site_fract_z
 _atom_site_occupancy
  Pr  Pr0  1  0.27217207  0.49981801  0.88119396  1
  Pr  Pr1  1  0.72461061  0.51839010  0.12593724  1
  Pr  Pr2  1  0.76659692  0.01865056  0.87743145  1
  Pr  Pr3  1  0.22942126  0.96112900  0.12866927  1
  Mn  Mn4  1  0.30117383  0.43384881  0.61524647  1
  Mn  Mn5  1  0.68936201  0.46250041  0.36384822  1
  Mn  Mn6  1  0.00309244  0.96689061  0.00829858  1
  Mn  Mn7  1  0.79856537  0.01580498  0.62065529  1
  Mn  Mn8  1  0.20494992  0.04485822  0.38698127  1
  Mn  Mn9  1  0.48416536  0.47988930  0.97737106  1
  Sb  Sb10  1  0.88849210  0.96860295  0.44506514  1
  Sb  Sb11  1  0.11565530  0.98047853  0.54987390  1
  Sb  Sb12  1  0.04366775  0.51215800  0.83159024  1
  Sb  Sb13  1  0.96958832  0.49108961  0.19484539  1
  Sb  Sb14  1  0.40183031  0.52863890  0.45059356  1
  Sb  Sb15  1  0.60843572  0.47548511  0.53965936  1
  Sb  Sb16  1  0.52307242  0.97390593  0.79273637  1
  Sb  Sb17  1  0.46810155  0.03153659  0.18019563  1
  S  S18  1  0.93035603  0.01024216  0.79538189  1
  S  S19  1  0.05943773  0.97962181  0.18721168  1
  S  S20  1  0.40987059  0.97524724  0.97095357  1
  S  S21  1  0.57371652  0.02386838  0.99914386  1
  S  S22  1  0.16690161  0.00841578  0.90122670  1
  S  S23  1  0.82684360  0.97285862  0.10539639  1
  S  S24  1  0.08893496  0.46413420  0.63557333  1
  S  S25  1  0.91747461  0.46719446  0.36133251  1
  S  S26  1  0.73699333  0.98298531  0.29735849  1
  S  S27  1  0.26514519  0.97302019  0.69833708  1
  S  S28  1  0.17385100  0.54539827  0.44067767  1
  S  S29  1  0.81167635  0.49395892  0.53783092  1
  S  S30  1  0.43342603  0.47441758  0.79101861  1
  S  S31  1  0.54969590  0.51517996  0.16808371  1
  S  S32  1  0.91953132  0.50519714  0.99334005  1
  S  S33  1  0.08799439  0.45265408  0.03316780  1
  S  S34  1  0.66625167  0.49815153  0.89067836  1
  S  S35  1  0.32736636  0.47676173  0.10633022  1
  S  S36  1  0.59476248  0.99726270  0.63980636  1
  S  S37  1  0.39945367  0.00185609  0.33500151  1
  S  S38  1  0.24503806  0.48621598  0.31208992  1
  S  S39  1  0.76467573  0.49076086  0.69937876  1
  S  S40  1  0.66678156  0.98261781  0.44837437  1
  S  S41  1  0.33059398  0.94408968  0.55198163  1
