# generated using pymatgen
data_Pr2Mn3(SbS3)4
_symmetry_space_group_name_H-M   'P 1'
_cell_length_a   20.02960800
_cell_length_b   3.90410600
_cell_length_c   14.95364829
_cell_angle_alpha   90.00000000
_cell_angle_beta   126.33350609
_cell_angle_gamma   90.00000000
_symmetry_Int_Tables_number   1
_chemical_formula_structural   Pr2Mn3(SbS3)4
_chemical_formula_sum   'Pr4 Mn6 Sb8 S24'
_cell_volume   942.00006694
_cell_formula_units_Z   2
loop_
 _symmetry_equiv_pos_site_id
 _symmetry_equiv_pos_as_xyz
  1  'x, y, z'
loop_
 _atom_site_type_symbol
 _atom_site_label
 _atom_site_symmetry_multiplicity
 _atom_site_fract_x
 _atom_site_fract_y
 _atom_site_fract_z
 _atom_site_occupancy
  Pr  Pr0  1  0.26293433  0.48831148  0.86743903  1
  Pr  Pr1  1  0.73839924  0.50612306  0.13654703  1
  Pr  Pr2  1  0.76152984  0.00771162  0.86220750  1
  Pr  Pr3  1  0.23853037  0.99399808  0.13991352  1
  Mn  Mn4  1  0.29853171  0.50309432  0.61796333  1
  Mn  Mn5  1  0.69721318  0.50895887  0.38111545  1
  Mn  Mn6  1  0.00210562  0.99813683  0.99849620  1
  Mn  Mn7  1  0.80328030  0.99317323  0.61438596  1
  Mn  Mn8  1  0.19864819  0.98038491  0.37904883  1
  Mn  Mn9  1  0.50228782  0.48524745  0.99705602  1
  Sb  Sb10  1  0.89424591  0.00901165  0.45412844  1
  Sb  Sb11  1  0.10838112  0.98005853  0.55113195  1
  Sb  Sb12  1  0.03828830  0.48578315  0.81544737  1
  Sb  Sb13  1  0.96132745  0.51505164  0.18729394  1
  Sb  Sb14  1  0.39546419  0.48818025  0.45721351  1
  Sb  Sb15  1  0.60711954  0.50118090  0.54974398  1
  Sb  Sb16  1  0.53670414  0.00353277  0.81565257  1
  Sb  Sb17  1  0.46214508  0.00177091  0.18059608  1
  S  S18  1  0.93606200  0.97798560  0.79769428  1
  S  S19  1  0.06046007  0.00218598  0.19203060  1
  S  S20  1  0.40706421  0.99416992  0.97892377  1
  S  S21  1  0.59279861  0.99515762  0.01551900  1
  S  S22  1  0.17153917  0.98873728  0.90178313  1
  S  S23  1  0.82896941  0.01463121  0.10665633  1
  S  S24  1  0.08402040  0.48761677  0.64295233  1
  S  S25  1  0.91426048  0.48028565  0.36070098  1
  S  S26  1  0.74341234  0.95039402  0.29553483  1
  S  S27  1  0.25642061  0.99896991  0.70236665  1
  S  S28  1  0.16294801  0.49358854  0.44640426  1
  S  S29  1  0.83042470  0.49042924  0.54841713  1
  S  S30  1  0.43613383  0.51042630  0.80014173  1
  S  S31  1  0.56051723  0.50829141  0.19117905  1
  S  S32  1  0.90151156  0.47823723  0.97496206  1
  S  S33  1  0.08971019  0.48155965  0.01733137  1
  S  S34  1  0.66428309  0.50245575  0.89497825  1
  S  S35  1  0.33151032  0.51729699  0.10035946  1
  S  S36  1  0.59277372  0.01312425  0.65067724  1
  S  S37  1  0.41351320  0.97458192  0.35860048  1
  S  S38  1  0.24356269  0.47418271  0.29838173  1
  S  S39  1  0.76209004  0.50329013  0.70011994  1
  S  S40  1  0.66615812  0.00990210  0.46155046  1
  S  S41  1  0.33134893  0.98137678  0.54162635  1
