# generated using pymatgen
data_Pr2Mn3(SbS3)4
_symmetry_space_group_name_H-M   'P 1'
_cell_length_a   20.02960800
_cell_length_b   3.90410600
_cell_length_c   14.95364829
_cell_angle_alpha   90.00000000
_cell_angle_beta   126.33350609
_cell_angle_gamma   90.00000000
_symmetry_Int_Tables_number   1
_chemical_formula_structural   Pr2Mn3(SbS3)4
_chemical_formula_sum   'Pr4 Mn6 Sb8 S24'
_cell_volume   942.00006694
_cell_formula_units_Z   2
loop_
 _symmetry_equiv_pos_site_id
 _symmetry_equiv_pos_as_xyz
  1  'x, y, z'
loop_
 _atom_site_type_symbol
 _atom_site_label
 _atom_site_symmetry_multiplicity
 _atom_site_fract_x
 _atom_site_fract_y
 _atom_site_fract_z
 _atom_site_occupancy
  Pr  Pr0  1  0.27228665  0.49955845  0.88132890  1
  Pr  Pr1  1  0.72451301  0.51849394  0.12591082  1
  Pr  Pr2  1  0.76658722  0.01825015  0.87758836  1
  Pr  Pr3  1  0.22953295  0.96077942  0.12874802  1
  Mn  Mn4  1  0.30095660  0.43321348  0.61485013  1
  Mn  Mn5  1  0.68929105  0.46282471  0.36388890  1
  Mn  Mn6  1  0.00317373  0.96664936  0.00842885  1
  Mn  Mn7  1  0.79863408  0.01641659  0.62090787  1
  Mn  Mn8  1  0.20491821  0.04484100  0.38704601  1
  Mn  Mn9  1  0.48407760  0.48041547  0.97705537  1
  Sb  Sb10  1  0.88840252  0.96936367  0.44507889  1
  Sb  Sb11  1  0.11565973  0.98050499  0.54982971  1
  Sb  Sb12  1  0.04366483  0.51215573  0.83164780  1
  Sb  Sb13  1  0.96974839  0.49067658  0.19491090  1
  Sb  Sb14  1  0.40187463  0.52876729  0.45063110  1
  Sb  Sb15  1  0.60847674  0.47540938  0.53972477  1
  Sb  Sb16  1  0.52315052  0.97359560  0.79287090  1
  Sb  Sb17  1  0.46814472  0.03190462  0.18032674  1
  S  S18  1  0.93019529  0.00930641  0.79499187  1
  S  S19  1  0.05945158  0.97966333  0.18728294  1
  S  S20  1  0.40950107  0.97581158  0.97075337  1
  S  S21  1  0.57368464  0.02429683  0.99913068  1
  S  S22  1  0.16696685  0.00894233  0.90148007  1
  S  S23  1  0.82657918  0.97326020  0.10512923  1
  S  S24  1  0.08906342  0.46394894  0.63576404  1
  S  S25  1  0.91745672  0.46533518  0.36120219  1
  S  S26  1  0.73674960  0.98292807  0.29738397  1
  S  S27  1  0.26543523  0.97245079  0.69834035  1
  S  S28  1  0.17420308  0.54655121  0.44087173  1
  S  S29  1  0.81157551  0.49250221  0.53784214  1
  S  S30  1  0.43328257  0.47400195  0.79088620  1
  S  S31  1  0.54992223  0.51479482  0.16808473  1
  S  S32  1  0.91932440  0.50384883  0.99324946  1
  S  S33  1  0.08821473  0.45101999  0.03311216  1
  S  S34  1  0.66599471  0.49754493  0.89028491  1
  S  S35  1  0.32725255  0.47717951  0.10637831  1
  S  S36  1  0.59467286  0.99815978  0.63966537  1
  S  S37  1  0.39960676  0.00275829  0.33532269  1
  S  S38  1  0.24492171  0.48686977  0.31159468  1
  S  S39  1  0.76446789  0.49003385  0.69889183  1
  S  S40  1  0.66664257  0.98268843  0.44814032  1
  S  S41  1  0.33070674  0.94285188  0.55242770  1
