# generated using pymatgen
data_Pr2Mn3(SbS3)4
_symmetry_space_group_name_H-M   'P 1'
_cell_length_a   20.02960800
_cell_length_b   3.90410600
_cell_length_c   14.95364829
_cell_angle_alpha   90.00000000
_cell_angle_beta   126.33350609
_cell_angle_gamma   90.00000000
_symmetry_Int_Tables_number   1
_chemical_formula_structural   Pr2Mn3(SbS3)4
_chemical_formula_sum   'Pr4 Mn6 Sb8 S24'
_cell_volume   942.00006694
_cell_formula_units_Z   2
loop_
 _symmetry_equiv_pos_site_id
 _symmetry_equiv_pos_as_xyz
  1  'x, y, z'
loop_
 _atom_site_type_symbol
 _atom_site_label
 _atom_site_symmetry_multiplicity
 _atom_site_fract_x
 _atom_site_fract_y
 _atom_site_fract_z
 _atom_site_occupancy
  Pr  Pr0  1  0.27240459  0.49955305  0.88139968  1
  Pr  Pr1  1  0.72443120  0.51863507  0.12583979  1
  Pr  Pr2  1  0.76659400  0.01789879  0.87777427  1
  Pr  Pr3  1  0.22961482  0.96047873  0.12881685  1
  Mn  Mn4  1  0.30064260  0.43258269  0.61439658  1
  Mn  Mn5  1  0.68923193  0.46294851  0.36388401  1
  Mn  Mn6  1  0.00325048  0.96638477  0.00866963  1
  Mn  Mn7  1  0.79872569  0.01678910  0.62112924  1
  Mn  Mn8  1  0.20500972  0.04468358  0.38719617  1
  Mn  Mn9  1  0.48390383  0.48101650  0.97669834  1
  Sb  Sb10  1  0.88838930  0.96974262  0.44518835  1
  Sb  Sb11  1  0.11563536  0.98068867  0.54976822  1
  Sb  Sb12  1  0.04363291  0.51228479  0.83164523  1
  Sb  Sb13  1  0.96984903  0.49013277  0.19493619  1
  Sb  Sb14  1  0.40193525  0.52889857  0.45066691  1
  Sb  Sb15  1  0.60853500  0.47534089  0.53977975  1
  Sb  Sb16  1  0.52324533  0.97351268  0.79306565  1
  Sb  Sb17  1  0.46818723  0.03239135  0.18036901  1
  S  S18  1  0.92999949  0.00887087  0.79447761  1
  S  S19  1  0.05951282  0.97920093  0.18738726  1
  S  S20  1  0.40925320  0.97640813  0.97064839  1
  S  S21  1  0.57372071  0.02462525  0.99910937  1
  S  S22  1  0.16704391  0.00869207  0.90180444  1
  S  S23  1  0.82634563  0.97345844  0.10484106  1
  S  S24  1  0.08913986  0.46345765  0.63586793  1
  S  S25  1  0.91755277  0.46422116  0.36123221  1
  S  S26  1  0.73654176  0.98294312  0.29731765  1
  S  S27  1  0.26558751  0.97207248  0.69817861  1
  S  S28  1  0.17460990  0.54767670  0.44112722  1
  S  S29  1  0.81157832  0.49077403  0.53785574  1
  S  S30  1  0.43316785  0.47370391  0.79074605  1
  S  S31  1  0.55028328  0.51483273  0.16812169  1
  S  S32  1  0.91918108  0.50235438  0.99326581  1
  S  S33  1  0.08841632  0.44914159  0.03293570  1
  S  S34  1  0.66579119  0.49678954  0.88999228  1
  S  S35  1  0.32704825  0.47722923  0.10634801  1
  S  S36  1  0.59460361  0.99897502  0.63957614  1
  S  S37  1  0.39979508  0.00312987  0.33571540  1
  S  S38  1  0.24477058  0.48736124  0.31102592  1
  S  S39  1  0.76422357  0.48949532  0.69846785  1
  S  S40  1  0.66650357  0.98285073  0.44796865  1
  S  S41  1  0.33089834  0.94148418  0.55277089  1
