# generated using pymatgen
data_Pr2Mn3(SbS3)4
_symmetry_space_group_name_H-M   'P 1'
_cell_length_a   20.02960800
_cell_length_b   3.90410600
_cell_length_c   14.95364829
_cell_angle_alpha   90.00000000
_cell_angle_beta   126.33350609
_cell_angle_gamma   90.00000000
_symmetry_Int_Tables_number   1
_chemical_formula_structural   Pr2Mn3(SbS3)4
_chemical_formula_sum   'Pr4 Mn6 Sb8 S24'
_cell_volume   942.00006694
_cell_formula_units_Z   2
loop_
 _symmetry_equiv_pos_site_id
 _symmetry_equiv_pos_as_xyz
  1  'x, y, z'
loop_
 _atom_site_type_symbol
 _atom_site_label
 _atom_site_symmetry_multiplicity
 _atom_site_fract_x
 _atom_site_fract_y
 _atom_site_fract_z
 _atom_site_occupancy
  Pr  Pr0  1  0.27253988  0.49972230  0.88147057  1
  Pr  Pr1  1  0.72437002  0.51890745  0.12577198  1
  Pr  Pr2  1  0.76657471  0.01750363  0.87784498  1
  Pr  Pr3  1  0.22965036  0.96017291  0.12887044  1
  Mn  Mn4  1  0.30043268  0.43229848  0.61406087  1
  Mn  Mn5  1  0.68924893  0.46291583  0.36393531  1
  Mn  Mn6  1  0.00323286  0.96623183  0.00885546  1
  Mn  Mn7  1  0.79878690  0.01703669  0.62130062  1
  Mn  Mn8  1  0.20513928  0.04477773  0.38736382  1
  Mn  Mn9  1  0.48365134  0.48151612  0.97626568  1
  Sb  Sb10  1  0.88836462  0.96997341  0.44523137  1
  Sb  Sb11  1  0.11552458  0.98089452  0.54968348  1
  Sb  Sb12  1  0.04363637  0.51247870  0.83162886  1
  Sb  Sb13  1  0.96990140  0.48947556  0.19493075  1
  Sb  Sb14  1  0.40207508  0.52898803  0.45070281  1
  Sb  Sb15  1  0.60861254  0.47520818  0.53992176  1
  Sb  Sb16  1  0.52332704  0.97343609  0.79323409  1
  Sb  Sb17  1  0.46816997  0.03300445  0.18030938  1
  S  S18  1  0.92980815  0.00849901  0.79398502  1
  S  S19  1  0.05946716  0.97862806  0.18746188  1
  S  S20  1  0.40911893  0.97695440  0.97055269  1
  S  S21  1  0.57380712  0.02507999  0.99915216  1
  S  S22  1  0.16711982  0.00795266  0.90210780  1
  S  S23  1  0.82615523  0.97385859  0.10460244  1
  S  S24  1  0.08933295  0.46322582  0.63608469  1
  S  S25  1  0.91776829  0.46276490  0.36139711  1
  S  S26  1  0.73646605  0.98314758  0.29725748  1
  S  S27  1  0.26568462  0.97196365  0.69799546  1
  S  S28  1  0.17499246  0.54830234  0.44127204  1
  S  S29  1  0.81158267  0.48978204  0.53795445  1
  S  S30  1  0.43318212  0.47422549  0.79077072  1
  S  S31  1  0.55068982  0.51424694  0.16814134  1
  S  S32  1  0.91908742  0.50103419  0.99323802  1
  S  S33  1  0.08857776  0.44702725  0.03284702  1
  S  S34  1  0.66551212  0.49606732  0.88961327  1
  S  S35  1  0.32679062  0.47745857  0.10638688  1
  S  S36  1  0.59451462  0.99936231  0.63933650  1
  S  S37  1  0.39995736  0.00341914  0.33604676  1
  S  S38  1  0.24469863  0.48766668  0.31050689  1
  S  S39  1  0.76389662  0.48873583  0.69798314  1
  S  S40  1  0.66635293  0.98291042  0.44795469  1
  S  S41  1  0.33112963  0.94069814  0.55316206  1
