# generated using pymatgen
data_Pr2Mn3(SbS3)4
_symmetry_space_group_name_H-M   'P 1'
_cell_length_a   20.02960800
_cell_length_b   3.90410600
_cell_length_c   14.95364829
_cell_angle_alpha   90.00000000
_cell_angle_beta   126.33350609
_cell_angle_gamma   90.00000000
_symmetry_Int_Tables_number   1
_chemical_formula_structural   Pr2Mn3(SbS3)4
_chemical_formula_sum   'Pr4 Mn6 Sb8 S24'
_cell_volume   942.00006694
_cell_formula_units_Z   2
loop_
 _symmetry_equiv_pos_site_id
 _symmetry_equiv_pos_as_xyz
  1  'x, y, z'
loop_
 _atom_site_type_symbol
 _atom_site_label
 _atom_site_symmetry_multiplicity
 _atom_site_fract_x
 _atom_site_fract_y
 _atom_site_fract_z
 _atom_site_occupancy
  Pr  Pr0  1  0.27272235  0.49983909  0.88160379  1
  Pr  Pr1  1  0.72435152  0.51948301  0.12576029  1
  Pr  Pr2  1  0.76655378  0.01705663  0.87792267  1
  Pr  Pr3  1  0.22969702  0.95977129  0.12889848  1
  Mn  Mn4  1  0.30026947  0.43184114  0.61381412  1
  Mn  Mn5  1  0.68931738  0.46290753  0.36403315  1
  Mn  Mn6  1  0.00326732  0.96573751  0.00905557  1
  Mn  Mn7  1  0.79880307  0.01733785  0.62143973  1
  Mn  Mn8  1  0.20523142  0.04510146  0.38753052  1
  Mn  Mn9  1  0.48348553  0.48212229  0.97593432  1
  Sb  Sb10  1  0.88834335  0.97021895  0.44523811  1
  Sb  Sb11  1  0.11544263  0.98154407  0.54965967  1
  Sb  Sb12  1  0.04369776  0.51282737  0.83162013  1
  Sb  Sb13  1  0.96993217  0.48889707  0.19489911  1
  Sb  Sb14  1  0.40216579  0.52909291  0.45071870  1
  Sb  Sb15  1  0.60867683  0.47526444  0.53999068  1
  Sb  Sb16  1  0.52344141  0.97355687  0.79341738  1
  Sb  Sb17  1  0.46811092  0.03349802  0.18025080  1
  S  S18  1  0.92974883  0.00833091  0.79374150  1
  S  S19  1  0.05947525  0.97803660  0.18751234  1
  S  S20  1  0.40907062  0.97734058  0.97060173  1
  S  S21  1  0.57396742  0.02528438  0.99923558  1
  S  S22  1  0.16714540  0.00781056  0.90236513  1
  S  S23  1  0.82588378  0.97410441  0.10441235  1
  S  S24  1  0.08942237  0.46326147  0.63616307  1
  S  S25  1  0.91795021  0.46128822  0.36160576  1
  S  S26  1  0.73624188  0.98304724  0.29700365  1
  S  S27  1  0.26571270  0.97200976  0.69782180  1
  S  S28  1  0.17536895  0.54897576  0.44151982  1
  S  S29  1  0.81169303  0.48891284  0.53814579  1
  S  S30  1  0.43330413  0.47458762  0.79084242  1
  S  S31  1  0.55103059  0.51413739  0.16798741  1
  S  S32  1  0.91895519  0.50024771  0.99309466  1
  S  S33  1  0.08878405  0.44494170  0.03276527  1
  S  S34  1  0.66523862  0.49512985  0.88922881  1
  S  S35  1  0.32660875  0.47739777  0.10656644  1
  S  S36  1  0.59450106  0.99992757  0.63922384  1
  S  S37  1  0.40009473  0.00363333  0.33638270  1
  S  S38  1  0.24471150  0.48802242  0.31009426  1
  S  S39  1  0.76362466  0.48749137  0.69761863  1
  S  S40  1  0.66614698  0.98334318  0.44789882  1
  S  S41  1  0.33140539  0.94031101  0.55354103  1
