# generated using pymatgen
data_Pr2Mn3(SbS3)4
_symmetry_space_group_name_H-M   'P 1'
_cell_length_a   20.02960800
_cell_length_b   3.90410600
_cell_length_c   14.95364829
_cell_angle_alpha   90.00000000
_cell_angle_beta   126.33350609
_cell_angle_gamma   90.00000000
_symmetry_Int_Tables_number   1
_chemical_formula_structural   Pr2Mn3(SbS3)4
_chemical_formula_sum   'Pr4 Mn6 Sb8 S24'
_cell_volume   942.00006694
_cell_formula_units_Z   2
loop_
 _symmetry_equiv_pos_site_id
 _symmetry_equiv_pos_as_xyz
  1  'x, y, z'
loop_
 _atom_site_type_symbol
 _atom_site_label
 _atom_site_symmetry_multiplicity
 _atom_site_fract_x
 _atom_site_fract_y
 _atom_site_fract_z
 _atom_site_occupancy
  Pr  Pr0  1  0.27280615  0.49990663  0.88166450  1
  Pr  Pr1  1  0.72427211  0.52027759  0.12576391  1
  Pr  Pr2  1  0.76660932  0.01665522  0.87803700  1
  Pr  Pr3  1  0.22973254  0.95926155  0.12892156  1
  Mn  Mn4  1  0.30009934  0.43111978  0.61359521  1
  Mn  Mn5  1  0.68955810  0.46287259  0.36429878  1
  Mn  Mn6  1  0.00333807  0.96556325  0.00920735  1
  Mn  Mn7  1  0.79876455  0.01788509  0.62148286  1
  Mn  Mn8  1  0.20526991  0.04543174  0.38755007  1
  Mn  Mn9  1  0.48332940  0.48267267  0.97571454  1
  Sb  Sb10  1  0.88825483  0.97040014  0.44525875  1
  Sb  Sb11  1  0.11533367  0.98218381  0.54961775  1
  Sb  Sb12  1  0.04373104  0.51342540  0.83162611  1
  Sb  Sb13  1  0.96993465  0.48874812  0.19482057  1
  Sb  Sb14  1  0.40234764  0.52941721  0.45076144  1
  Sb  Sb15  1  0.60871873  0.47543954  0.53994280  1
  Sb  Sb16  1  0.52353981  0.97353840  0.79358609  1
  Sb  Sb17  1  0.46803196  0.03371153  0.18018998  1
  S  S18  1  0.92987422  0.00805045  0.79363712  1
  S  S19  1  0.05936977  0.97738532  0.18754046  1
  S  S20  1  0.40912314  0.97776047  0.97063955  1
  S  S21  1  0.57410490  0.02531700  0.99922159  1
  S  S22  1  0.16720630  0.00769993  0.90260015  1
  S  S23  1  0.82569762  0.97388062  0.10425925  1
  S  S24  1  0.08952984  0.46281890  0.63626138  1
  S  S25  1  0.91813376  0.46041672  0.36183156  1
  S  S26  1  0.73595510  0.98314906  0.29685481  1
  S  S27  1  0.26577712  0.97154915  0.69758127  1
  S  S28  1  0.17578838  0.54964152  0.44179703  1
  S  S29  1  0.81193444  0.48753443  0.53848680  1
  S  S30  1  0.43349599  0.47498273  0.79089178  1
  S  S31  1  0.55140973  0.51382913  0.16786385  1
  S  S32  1  0.91879883  0.49982473  0.99295055  1
  S  S33  1  0.08908930  0.44294696  0.03303184  1
  S  S34  1  0.66509724  0.49424443  0.88899078  1
  S  S35  1  0.32638021  0.47736543  0.10663137  1
  S  S36  1  0.59450052  0.00062233  0.63915809  1
  S  S37  1  0.40026035  0.00381684  0.33680760  1
  S  S38  1  0.24462677  0.48876200  0.30958338  1
  S  S39  1  0.76331162  0.48656658  0.69724940  1
  S  S40  1  0.66592616  0.98362487  0.44794828  1
  S  S41  1  0.33163019  0.94022413  0.55386703  1
