# generated using pymatgen
data_Pr2Mn3(SbS3)4
_symmetry_space_group_name_H-M   'P 1'
_cell_length_a   20.02960800
_cell_length_b   3.90410600
_cell_length_c   14.95364829
_cell_angle_alpha   90.00000000
_cell_angle_beta   126.33350609
_cell_angle_gamma   90.00000000
_symmetry_Int_Tables_number   1
_chemical_formula_structural   Pr2Mn3(SbS3)4
_chemical_formula_sum   'Pr4 Mn6 Sb8 S24'
_cell_volume   942.00006694
_cell_formula_units_Z   2
loop_
 _symmetry_equiv_pos_site_id
 _symmetry_equiv_pos_as_xyz
  1  'x, y, z'
loop_
 _atom_site_type_symbol
 _atom_site_label
 _atom_site_symmetry_multiplicity
 _atom_site_fract_x
 _atom_site_fract_y
 _atom_site_fract_z
 _atom_site_occupancy
  Pr  Pr0  1  0.27281682  0.49984020  0.88168568  1
  Pr  Pr1  1  0.72425350  0.52087483  0.12579433  1
  Pr  Pr2  1  0.76667335  0.01648302  0.87824939  1
  Pr  Pr3  1  0.22976953  0.95877255  0.12896395  1
  Mn  Mn4  1  0.29994800  0.43034494  0.61337806  1
  Mn  Mn5  1  0.68981506  0.46248094  0.36445617  1
  Mn  Mn6  1  0.00333494  0.96540399  0.00931478  1
  Mn  Mn7  1  0.79867813  0.01892814  0.62153777  1
  Mn  Mn8  1  0.20532952  0.04625903  0.38765020  1
  Mn  Mn9  1  0.48319570  0.48330867  0.97546713  1
  Sb  Sb10  1  0.88817793  0.97051397  0.44531594  1
  Sb  Sb11  1  0.11520722  0.98278072  0.54955341  1
  Sb  Sb12  1  0.04374432  0.51392208  0.83164074  1
  Sb  Sb13  1  0.96999143  0.48873500  0.19483744  1
  Sb  Sb14  1  0.40247558  0.52967435  0.45074687  1
  Sb  Sb15  1  0.60873291  0.47546314  0.53990602  1
  Sb  Sb16  1  0.52363133  0.97341102  0.79373044  1
  Sb  Sb17  1  0.46787946  0.03425476  0.18009078  1
  S  S18  1  0.93002125  0.00788145  0.79351165  1
  S  S19  1  0.05915847  0.97673915  0.18751877  1
  S  S20  1  0.40913061  0.97812695  0.97070410  1
  S  S21  1  0.57431054  0.02563126  0.99928952  1
  S  S22  1  0.16732653  0.00748374  0.90282716  1
  S  S23  1  0.82559703  0.97371438  0.10402186  1
  S  S24  1  0.08952264  0.46259589  0.63639694  1
  S  S25  1  0.91849857  0.46006706  0.36227795  1
  S  S26  1  0.73570314  0.98285780  0.29668372  1
  S  S27  1  0.26585463  0.97066739  0.69732201  1
  S  S28  1  0.17621812  0.54985891  0.44223386  1
  S  S29  1  0.81208846  0.48647557  0.53860812  1
  S  S30  1  0.43358762  0.47522325  0.79081885  1
  S  S31  1  0.55179334  0.51338112  0.16777953  1
  S  S32  1  0.91861983  0.49899402  0.99270402  1
  S  S33  1  0.08946939  0.44170786  0.03332680  1
  S  S34  1  0.66486464  0.49324199  0.88844349  1
  S  S35  1  0.32612461  0.47771534  0.10661266  1
  S  S36  1  0.59452794  0.00128653  0.63917415  1
  S  S37  1  0.40031803  0.00392034  0.33703549  1
  S  S38  1  0.24449335  0.48937225  0.30903483  1
  S  S39  1  0.76300263  0.48547712  0.69696419  1
  S  S40  1  0.66577288  0.98366373  0.44813358  1
  S  S41  1  0.33185657  0.93974037  0.55417519  1
