# generated using pymatgen
data_Pr2Mn3(SbS3)4
_symmetry_space_group_name_H-M   'P 1'
_cell_length_a   20.02960800
_cell_length_b   3.90410600
_cell_length_c   14.95364829
_cell_angle_alpha   90.00000000
_cell_angle_beta   126.33350609
_cell_angle_gamma   90.00000000
_symmetry_Int_Tables_number   1
_chemical_formula_structural   Pr2Mn3(SbS3)4
_chemical_formula_sum   'Pr4 Mn6 Sb8 S24'
_cell_volume   942.00006694
_cell_formula_units_Z   2
loop_
 _symmetry_equiv_pos_site_id
 _symmetry_equiv_pos_as_xyz
  1  'x, y, z'
loop_
 _atom_site_type_symbol
 _atom_site_label
 _atom_site_symmetry_multiplicity
 _atom_site_fract_x
 _atom_site_fract_y
 _atom_site_fract_z
 _atom_site_occupancy
  Pr  Pr0  1  0.27283663  0.49975658  0.88166039  1
  Pr  Pr1  1  0.72428640  0.52170574  0.12580713  1
  Pr  Pr2  1  0.76667643  0.01639595  0.87837779  1
  Pr  Pr3  1  0.22982670  0.95815683  0.12899942  1
  Mn  Mn4  1  0.29979974  0.42945357  0.61323383  1
  Mn  Mn5  1  0.69015222  0.46189201  0.36464758  1
  Mn  Mn6  1  0.00344026  0.96547256  0.00953825  1
  Mn  Mn7  1  0.79854983  0.02038031  0.62157796  1
  Mn  Mn8  1  0.20534462  0.04695056  0.38769186  1
  Mn  Mn9  1  0.48313270  0.48371319  0.97527666  1
  Sb  Sb10  1  0.88814981  0.97021179  0.44538459  1
  Sb  Sb11  1  0.11509034  0.98329480  0.54946638  1
  Sb  Sb12  1  0.04372926  0.51452347  0.83165083  1
  Sb  Sb13  1  0.97002345  0.48870222  0.19480782  1
  Sb  Sb14  1  0.40256539  0.52983017  0.45074433  1
  Sb  Sb15  1  0.60872883  0.47537630  0.53982880  1
  Sb  Sb16  1  0.52370854  0.97320949  0.79383778  1
  Sb  Sb17  1  0.46779236  0.03490056  0.18002594  1
  S  S18  1  0.93011685  0.00755829  0.79339056  1
  S  S19  1  0.05892806  0.97589640  0.18748302  1
  S  S20  1  0.40913625  0.97834390  0.97082096  1
  S  S21  1  0.57443834  0.02575718  0.99912193  1
  S  S22  1  0.16751288  0.00761411  0.90311726  1
  S  S23  1  0.82546980  0.97366364  0.10376611  1
  S  S24  1  0.08944461  0.46255484  0.63650993  1
  S  S25  1  0.91881540  0.45954635  0.36271277  1
  S  S26  1  0.73552816  0.98244222  0.29655762  1
  S  S27  1  0.26599737  0.96936052  0.69710138  1
  S  S28  1  0.17659688  0.55011526  0.44263442  1
  S  S29  1  0.81228844  0.48520227  0.53882380  1
  S  S30  1  0.43368455  0.47507109  0.79073227  1
  S  S31  1  0.55208421  0.51264444  0.16771368  1
  S  S32  1  0.91838152  0.49851504  0.99236971  1
  S  S33  1  0.08959867  0.44075236  0.03335131  1
  S  S34  1  0.66450111  0.49230110  0.88779472  1
  S  S35  1  0.32586868  0.47785294  0.10658298  1
  S  S36  1  0.59446125  0.00144485  0.63906761  1
  S  S37  1  0.40031936  0.00400504  0.33716305  1
  S  S38  1  0.24433028  0.49016630  0.30856692  1
  S  S39  1  0.76261968  0.48439335  0.69683556  1
  S  S40  1  0.66568623  0.98371115  0.44846295  1
  S  S41  1  0.33205960  0.93935203  0.55448200  1
