# generated using pymatgen
data_Pr2Mn3(SbS3)4
_symmetry_space_group_name_H-M   'P 1'
_cell_length_a   20.02960800
_cell_length_b   3.90410600
_cell_length_c   14.95364829
_cell_angle_alpha   90.00000000
_cell_angle_beta   126.33350609
_cell_angle_gamma   90.00000000
_symmetry_Int_Tables_number   1
_chemical_formula_structural   Pr2Mn3(SbS3)4
_chemical_formula_sum   'Pr4 Mn6 Sb8 S24'
_cell_volume   942.00006694
_cell_formula_units_Z   2
loop_
 _symmetry_equiv_pos_site_id
 _symmetry_equiv_pos_as_xyz
  1  'x, y, z'
loop_
 _atom_site_type_symbol
 _atom_site_label
 _atom_site_symmetry_multiplicity
 _atom_site_fract_x
 _atom_site_fract_y
 _atom_site_fract_z
 _atom_site_occupancy
  Pr  Pr0  1  0.27286879  0.49986018  0.88168526  1
  Pr  Pr1  1  0.72428110  0.52221255  0.12580680  1
  Pr  Pr2  1  0.76668052  0.01627276  0.87849529  1
  Pr  Pr3  1  0.22989355  0.95764805  0.12891950  1
  Mn  Mn4  1  0.29964613  0.42845958  0.61313334  1
  Mn  Mn5  1  0.69050633  0.46141721  0.36494973  1
  Mn  Mn6  1  0.00352602  0.96545458  0.00968808  1
  Mn  Mn7  1  0.79849370  0.02173424  0.62177020  1
  Mn  Mn8  1  0.20527634  0.04771608  0.38773216  1
  Mn  Mn9  1  0.48305834  0.48410102  0.97515882  1
  Sb  Sb10  1  0.88811300  0.96965750  0.44545047  1
  Sb  Sb11  1  0.11496526  0.98347761  0.54939515  1
  Sb  Sb12  1  0.04374100  0.51520053  0.83158489  1
  Sb  Sb13  1  0.97006883  0.48884843  0.19483736  1
  Sb  Sb14  1  0.40268890  0.53005656  0.45072275  1
  Sb  Sb15  1  0.60867122  0.47521784  0.53978985  1
  Sb  Sb16  1  0.52375824  0.97314915  0.79393035  1
  Sb  Sb17  1  0.46773792  0.03535886  0.17998159  1
  S  S18  1  0.93034705  0.00755300  0.79356133  1
  S  S19  1  0.05876554  0.97554513  0.18755533  1
  S  S20  1  0.40914725  0.97934868  0.97089277  1
  S  S21  1  0.57464839  0.02569200  0.99878902  1
  S  S22  1  0.16756675  0.00687752  0.90332043  1
  S  S23  1  0.82529434  0.97328023  0.10355403  1
  S  S24  1  0.08938383  0.46209948  0.63666838  1
  S  S25  1  0.91909598  0.45907650  0.36306391  1
  S  S26  1  0.73542206  0.98181389  0.29651669  1
  S  S27  1  0.26605985  0.96830125  0.69683834  1
  S  S28  1  0.17703831  0.55037955  0.44302975  1
  S  S29  1  0.81248848  0.48406980  0.53886918  1
  S  S30  1  0.43378225  0.47486138  0.79071027  1
  S  S31  1  0.55235354  0.51171126  0.16768490  1
  S  S32  1  0.91823713  0.49787683  0.99202474  1
  S  S33  1  0.08966872  0.43990034  0.03329245  1
  S  S34  1  0.66418227  0.49116156  0.88704234  1
  S  S35  1  0.32573246  0.47817110  0.10657902  1
  S  S36  1  0.59444449  0.00147509  0.63905335  1
  S  S37  1  0.40035410  0.00383948  0.33734219  1
  S  S38  1  0.24421893  0.49106649  0.30826061  1
  S  S39  1  0.76226070  0.48286689  0.69665735  1
  S  S40  1  0.66565223  0.98362064  0.44873594  1
  S  S41  1  0.33224980  0.93845890  0.55482931  1
