# generated using pymatgen
data_Pr2Mn3(SbS3)4
_symmetry_space_group_name_H-M   'P 1'
_cell_length_a   20.02960800
_cell_length_b   3.90410600
_cell_length_c   14.95364829
_cell_angle_alpha   90.00000000
_cell_angle_beta   126.33350609
_cell_angle_gamma   90.00000000
_symmetry_Int_Tables_number   1
_chemical_formula_structural   Pr2Mn3(SbS3)4
_chemical_formula_sum   'Pr4 Mn6 Sb8 S24'
_cell_volume   942.00006694
_cell_formula_units_Z   2
loop_
 _symmetry_equiv_pos_site_id
 _symmetry_equiv_pos_as_xyz
  1  'x, y, z'
loop_
 _atom_site_type_symbol
 _atom_site_label
 _atom_site_symmetry_multiplicity
 _atom_site_fract_x
 _atom_site_fract_y
 _atom_site_fract_z
 _atom_site_occupancy
  Pr  Pr0  1  0.27291509  0.49984927  0.88168479  1
  Pr  Pr1  1  0.72431603  0.52274692  0.12585141  1
  Pr  Pr2  1  0.76667335  0.01621922  0.87862456  1
  Pr  Pr3  1  0.22992269  0.95725641  0.12884178  1
  Mn  Mn4  1  0.29951813  0.42792014  0.61303394  1
  Mn  Mn5  1  0.69071813  0.46134237  0.36506226  1
  Mn  Mn6  1  0.00370043  0.96549030  0.00981172  1
  Mn  Mn7  1  0.79847868  0.02240300  0.62191598  1
  Mn  Mn8  1  0.20524142  0.04818609  0.38779098  1
  Mn  Mn9  1  0.48301480  0.48465426  0.97514337  1
  Sb  Sb10  1  0.88809826  0.96938984  0.44550854  1
  Sb  Sb11  1  0.11481528  0.98338566  0.54927356  1
  Sb  Sb12  1  0.04377139  0.51586915  0.83153808  1
  Sb  Sb13  1  0.97014396  0.48904370  0.19487355  1
  Sb  Sb14  1  0.40274842  0.53037544  0.45073031  1
  Sb  Sb15  1  0.60859514  0.47494908  0.53972915  1
  Sb  Sb16  1  0.52381470  0.97306900  0.79402849  1
  Sb  Sb17  1  0.46773856  0.03570853  0.17993105  1
  S  S18  1  0.93064323  0.00704424  0.79374483  1
  S  S19  1  0.05870954  0.97484769  0.18774319  1
  S  S20  1  0.40913687  0.98045591  0.97091935  1
  S  S21  1  0.57479191  0.02596806  0.99859109  1
  S  S22  1  0.16744915  0.00611206  0.90331523  1
  S  S23  1  0.82508271  0.97284798  0.10339771  1
  S  S24  1  0.08953078  0.46164520  0.63715443  1
  S  S25  1  0.91938551  0.45871455  0.36344784  1
  S  S26  1  0.73530550  0.98174624  0.29654092  1
  S  S27  1  0.26615306  0.96746400  0.69660856  1
  S  S28  1  0.17729042  0.55066678  0.44329619  1
  S  S29  1  0.81263574  0.48301237  0.53898183  1
  S  S30  1  0.43385136  0.47473557  0.79079868  1
  S  S31  1  0.55257736  0.51073071  0.16766450  1
  S  S32  1  0.91798058  0.49734799  0.99162737  1
  S  S33  1  0.08965001  0.43894534  0.03306969  1
  S  S34  1  0.66396032  0.49062924  0.88640326  1
  S  S35  1  0.32553080  0.47839907  0.10661782  1
  S  S36  1  0.59439553  0.00156678  0.63912051  1
  S  S37  1  0.40042203  0.00374741  0.33749915  1
  S  S38  1  0.24404220  0.49164200  0.30784907  1
  S  S39  1  0.76189936  0.48139328  0.69640013  1
  S  S40  1  0.66578612  0.98311943  0.44916241  1
  S  S41  1  0.33244760  0.93764362  0.55517024  1
