# generated using pymatgen
data_Pr2Mn3(SbS3)4
_symmetry_space_group_name_H-M   'P 1'
_cell_length_a   20.02960800
_cell_length_b   3.90410600
_cell_length_c   14.95364829
_cell_angle_alpha   90.00000000
_cell_angle_beta   126.33350609
_cell_angle_gamma   90.00000000
_symmetry_Int_Tables_number   1
_chemical_formula_structural   Pr2Mn3(SbS3)4
_chemical_formula_sum   'Pr4 Mn6 Sb8 S24'
_cell_volume   942.00006694
_cell_formula_units_Z   2
loop_
 _symmetry_equiv_pos_site_id
 _symmetry_equiv_pos_as_xyz
  1  'x, y, z'
loop_
 _atom_site_type_symbol
 _atom_site_label
 _atom_site_symmetry_multiplicity
 _atom_site_fract_x
 _atom_site_fract_y
 _atom_site_fract_z
 _atom_site_occupancy
  Pr  Pr0  1  0.27302016  0.49968765  0.88166429  1
  Pr  Pr1  1  0.72443018  0.52323030  0.12596552  1
  Pr  Pr2  1  0.76669288  0.01624973  0.87873451  1
  Pr  Pr3  1  0.23000038  0.95689026  0.12887793  1
  Mn  Mn4  1  0.29938799  0.42768531  0.61294390  1
  Mn  Mn5  1  0.69102118  0.46162342  0.36523183  1
  Mn  Mn6  1  0.00385888  0.96542710  0.00995192  1
  Mn  Mn7  1  0.79843598  0.02299544  0.62204910  1
  Mn  Mn8  1  0.20516760  0.04856315  0.38791202  1
  Mn  Mn9  1  0.48303201  0.48485243  0.97527421  1
  Sb  Sb10  1  0.88806895  0.96927207  0.44560026  1
  Sb  Sb11  1  0.11465016  0.98348918  0.54911576  1
  Sb  Sb12  1  0.04383189  0.51642936  0.83147164  1
  Sb  Sb13  1  0.97026072  0.48964227  0.19491988  1
  Sb  Sb14  1  0.40278747  0.53078839  0.45073358  1
  Sb  Sb15  1  0.60855717  0.47463967  0.53965806  1
  Sb  Sb16  1  0.52385171  0.97294836  0.79416852  1
  Sb  Sb17  1  0.46774263  0.03576279  0.17990252  1
  S  S18  1  0.93095557  0.00647613  0.79394057  1
  S  S19  1  0.05859152  0.97464167  0.18788314  1
  S  S20  1  0.40913811  0.98115048  0.97083200  1
  S  S21  1  0.57488310  0.02625079  0.99822842  1
  S  S22  1  0.16737251  0.00541554  0.90324819  1
  S  S23  1  0.82490347  0.97259336  0.10334597  1
  S  S24  1  0.08972326  0.46060907  0.63764387  1
  S  S25  1  0.91955719  0.45822446  0.36376966  1
  S  S26  1  0.73517112  0.98159628  0.29661558  1
  S  S27  1  0.26612639  0.96647099  0.69628407  1
  S  S28  1  0.17738572  0.55114861  0.44339340  1
  S  S29  1  0.81272307  0.48230893  0.53910289  1
  S  S30  1  0.43370409  0.47419264  0.79090075  1
  S  S31  1  0.55274378  0.50915004  0.16760853  1
  S  S32  1  0.91775678  0.49676082  0.99141765  1
  S  S33  1  0.08959995  0.43800667  0.03281002  1
  S  S34  1  0.66385163  0.49040343  0.88578112  1
  S  S35  1  0.32539661  0.47859787  0.10662161  1
  S  S36  1  0.59429808  0.00136900  0.63915173  1
  S  S37  1  0.40043116  0.00378363  0.33753889  1
  S  S38  1  0.24391260  0.49236870  0.30745756  1
  S  S39  1  0.76143417  0.48002337  0.69593524  1
  S  S40  1  0.66594960  0.98275085  0.44954669  1
  S  S41  1  0.33254970  0.93649192  0.55558314  1
