# generated using pymatgen
data_Pr2Mn3(SbS3)4
_symmetry_space_group_name_H-M   'P 1'
_cell_length_a   20.02960800
_cell_length_b   3.90410600
_cell_length_c   14.95364829
_cell_angle_alpha   90.00000000
_cell_angle_beta   126.33350609
_cell_angle_gamma   90.00000000
_symmetry_Int_Tables_number   1
_chemical_formula_structural   Pr2Mn3(SbS3)4
_chemical_formula_sum   'Pr4 Mn6 Sb8 S24'
_cell_volume   942.00006694
_cell_formula_units_Z   2
loop_
 _symmetry_equiv_pos_site_id
 _symmetry_equiv_pos_as_xyz
  1  'x, y, z'
loop_
 _atom_site_type_symbol
 _atom_site_label
 _atom_site_symmetry_multiplicity
 _atom_site_fract_x
 _atom_site_fract_y
 _atom_site_fract_z
 _atom_site_occupancy
  Pr  Pr0  1  0.26315025  0.48784185  0.86768227  1
  Pr  Pr1  1  0.73824676  0.50594743  0.13633188  1
  Pr  Pr2  1  0.76159607  0.00782642  0.86224610  1
  Pr  Pr3  1  0.23839823  0.99457414  0.13998125  1
  Mn  Mn4  1  0.29842534  0.50280023  0.61778930  1
  Mn  Mn5  1  0.69713467  0.50880151  0.38104649  1
  Mn  Mn6  1  0.00205526  0.99805469  0.99849643  1
  Mn  Mn7  1  0.80337272  0.99287730  0.61441348  1
  Mn  Mn8  1  0.19857026  0.98039316  0.37906307  1
  Mn  Mn9  1  0.50220021  0.48443556  0.99663099  1
  Sb  Sb10  1  0.89416852  0.00870615  0.45405771  1
  Sb  Sb11  1  0.10840269  0.97985056  0.55114166  1
  Sb  Sb12  1  0.03837194  0.48593720  0.81559522  1
  Sb  Sb13  1  0.96137309  0.51580808  0.18717665  1
  Sb  Sb14  1  0.39548329  0.48838802  0.45716117  1
  Sb  Sb15  1  0.60716477  0.50082996  0.54974059  1
  Sb  Sb16  1  0.53677135  0.00379245  0.81586082  1
  Sb  Sb17  1  0.46212701  0.00184472  0.18049819  1
  S  S18  1  0.93594118  0.97779277  0.79752555  1
  S  S19  1  0.06063453  0.00174999  0.19198848  1
  S  S20  1  0.40756416  0.99533989  0.97891463  1
  S  S21  1  0.59247494  0.99472280  0.01540326  1
  S  S22  1  0.17151381  0.98927371  0.90142045  1
  S  S23  1  0.82891933  0.01428114  0.10653888  1
  S  S24  1  0.08399512  0.48648640  0.64257752  1
  S  S25  1  0.91446474  0.48007275  0.36083479  1
  S  S26  1  0.74322532  0.94926892  0.29524671  1
  S  S27  1  0.25680167  0.99843429  0.70277522  1
  S  S28  1  0.16311487  0.49330298  0.44638043  1
  S  S29  1  0.83039237  0.48938277  0.54865773  1
  S  S30  1  0.43626076  0.51045792  0.80042018  1
  S  S31  1  0.56051141  0.50963388  0.19109683  1
  S  S32  1  0.90163460  0.47883496  0.97506648  1
  S  S33  1  0.08955554  0.48214272  0.01728576  1
  S  S34  1  0.66413193  0.50332033  0.89492170  1
  S  S35  1  0.33127086  0.51770888  0.10030815  1
  S  S36  1  0.59273415  0.01239356  0.65078309  1
  S  S37  1  0.41356403  0.97340347  0.35856153  1
  S  S38  1  0.24366559  0.47539348  0.29865478  1
  S  S39  1  0.76182987  0.50296886  0.69963480  1
  S  S40  1  0.66661266  0.01127816  0.46171396  1
  S  S41  1  0.33103378  0.98099663  0.54151883  1
