# generated using pymatgen
data_Pr2Mn3(SbS3)4
_symmetry_space_group_name_H-M   'P 1'
_cell_length_a   20.02960800
_cell_length_b   3.90410600
_cell_length_c   14.95364829
_cell_angle_alpha   90.00000000
_cell_angle_beta   126.33350609
_cell_angle_gamma   90.00000000
_symmetry_Int_Tables_number   1
_chemical_formula_structural   Pr2Mn3(SbS3)4
_chemical_formula_sum   'Pr4 Mn6 Sb8 S24'
_cell_volume   942.00006694
_cell_formula_units_Z   2
loop_
 _symmetry_equiv_pos_site_id
 _symmetry_equiv_pos_as_xyz
  1  'x, y, z'
loop_
 _atom_site_type_symbol
 _atom_site_label
 _atom_site_symmetry_multiplicity
 _atom_site_fract_x
 _atom_site_fract_y
 _atom_site_fract_z
 _atom_site_occupancy
  Pr  Pr0  1  0.27308745  0.49943525  0.88159927  1
  Pr  Pr1  1  0.72453727  0.52364311  0.12613013  1
  Pr  Pr2  1  0.76674489  0.01627834  0.87883763  1
  Pr  Pr3  1  0.23007839  0.95660175  0.12888721  1
  Mn  Mn4  1  0.29923390  0.42755247  0.61286269  1
  Mn  Mn5  1  0.69118881  0.46166775  0.36529026  1
  Mn  Mn6  1  0.00394422  0.96561128  0.00987189  1
  Mn  Mn7  1  0.79838537  0.02385547  0.62210657  1
  Mn  Mn8  1  0.20507547  0.04847630  0.38803491  1
  Mn  Mn9  1  0.48303443  0.48508430  0.97541221  1
  Sb  Sb10  1  0.88805058  0.96922101  0.44569090  1
  Sb  Sb11  1  0.11462142  0.98366429  0.54911511  1
  Sb  Sb12  1  0.04389026  0.51703023  0.83139201  1
  Sb  Sb13  1  0.97040774  0.49007899  0.19500828  1
  Sb  Sb14  1  0.40283250  0.53129133  0.45073452  1
  Sb  Sb15  1  0.60856468  0.47439160  0.53966433  1
  Sb  Sb16  1  0.52393051  0.97278512  0.79435309  1
  Sb  Sb17  1  0.46776170  0.03564987  0.17994181  1
  S  S18  1  0.93118592  0.00621569  0.79403364  1
  S  S19  1  0.05842120  0.97477289  0.18799849  1
  S  S20  1  0.40921644  0.98201333  0.97089742  1
  S  S21  1  0.57497359  0.02604396  0.99781719  1
  S  S22  1  0.16727340  0.00512341  0.90320624  1
  S  S23  1  0.82484418  0.97190261  0.10336544  1
  S  S24  1  0.08994718  0.45975551  0.63830865  1
  S  S25  1  0.91972125  0.45768316  0.36409609  1
  S  S26  1  0.73508547  0.98106321  0.29677006  1
  S  S27  1  0.26613415  0.96558542  0.69593954  1
  S  S28  1  0.17740788  0.55129400  0.44338679  1
  S  S29  1  0.81267839  0.48228181  0.53922321  1
  S  S30  1  0.43359949  0.47342773  0.79102931  1
  S  S31  1  0.55287989  0.50740419  0.16756816  1
  S  S32  1  0.91756555  0.49615942  0.99126600  1
  S  S33  1  0.08959117  0.43693766  0.03277583  1
  S  S34  1  0.66379347  0.49029359  0.88535555  1
  S  S35  1  0.32525167  0.47842708  0.10656634  1
  S  S36  1  0.59429882  0.00137793  0.63924718  1
  S  S37  1  0.40039350  0.00418714  0.33761006  1
  S  S38  1  0.24370024  0.49244384  0.30687296  1
  S  S39  1  0.76109287  0.47895482  0.69567434  1
  S  S40  1  0.66598568  0.98242720  0.44973029  1
  S  S41  1  0.33273842  0.93577108  0.55616391  1
