# generated using pymatgen
data_Pr2Mn3(SbS3)4
_symmetry_space_group_name_H-M   'P 1'
_cell_length_a   20.02960800
_cell_length_b   3.90410600
_cell_length_c   14.95364829
_cell_angle_alpha   90.00000000
_cell_angle_beta   126.33350609
_cell_angle_gamma   90.00000000
_symmetry_Int_Tables_number   1
_chemical_formula_structural   Pr2Mn3(SbS3)4
_chemical_formula_sum   'Pr4 Mn6 Sb8 S24'
_cell_volume   942.00006694
_cell_formula_units_Z   2
loop_
 _symmetry_equiv_pos_site_id
 _symmetry_equiv_pos_as_xyz
  1  'x, y, z'
loop_
 _atom_site_type_symbol
 _atom_site_label
 _atom_site_symmetry_multiplicity
 _atom_site_fract_x
 _atom_site_fract_y
 _atom_site_fract_z
 _atom_site_occupancy
  Pr  Pr0  1  0.27314790  0.49917678  0.88156129  1
  Pr  Pr1  1  0.72465149  0.52425912  0.12633655  1
  Pr  Pr2  1  0.76672802  0.01633003  0.87880419  1
  Pr  Pr3  1  0.23017390  0.95639666  0.12893073  1
  Mn  Mn4  1  0.29918524  0.42776731  0.61304957  1
  Mn  Mn5  1  0.69131116  0.46192493  0.36522812  1
  Mn  Mn6  1  0.00414228  0.96577279  0.00993459  1
  Mn  Mn7  1  0.79841567  0.02457817  0.62233639  1
  Mn  Mn8  1  0.20503198  0.04843789  0.38813983  1
  Mn  Mn9  1  0.48298766  0.48542097  0.97555585  1
  Sb  Sb10  1  0.88812243  0.96902352  0.44585439  1
  Sb  Sb11  1  0.11455607  0.98387565  0.54903386  1
  Sb  Sb12  1  0.04392569  0.51756434  0.83127390  1
  Sb  Sb13  1  0.97052835  0.49051465  0.19505261  1
  Sb  Sb14  1  0.40280223  0.53161429  0.45066298  1
  Sb  Sb15  1  0.60852833  0.47429112  0.53953733  1
  Sb  Sb16  1  0.52402577  0.97282595  0.79456521  1
  Sb  Sb17  1  0.46771969  0.03534559  0.17993233  1
  S  S18  1  0.93131368  0.00637642  0.79406708  1
  S  S19  1  0.05831283  0.97466018  0.18805487  1
  S  S20  1  0.40928095  0.98260329  0.97093500  1
  S  S21  1  0.57504607  0.02536540  0.99744000  1
  S  S22  1  0.16716599  0.00501229  0.90312613  1
  S  S23  1  0.82471545  0.97139959  0.10337602  1
  S  S24  1  0.09013156  0.45912076  0.63895592  1
  S  S25  1  0.91980802  0.45765225  0.36447660  1
  S  S26  1  0.73507014  0.98080088  0.29691884  1
  S  S27  1  0.26619450  0.96496685  0.69568384  1
  S  S28  1  0.17731602  0.55131416  0.44335305  1
  S  S29  1  0.81264524  0.48267254  0.53923027  1
  S  S30  1  0.43362212  0.47242982  0.79132538  1
  S  S31  1  0.55304903  0.50571177  0.16749016  1
  S  S32  1  0.91727542  0.49494544  0.99112378  1
  S  S33  1  0.08961050  0.43622003  0.03280124  1
  S  S34  1  0.66375673  0.49013781  0.88487244  1
  S  S35  1  0.32508524  0.47816082  0.10640597  1
  S  S36  1  0.59422609  0.00145266  0.63912117  1
  S  S37  1  0.40041265  0.00483196  0.33776119  1
  S  S38  1  0.24359651  0.49235532  0.30646789  1
  S  S39  1  0.76076444  0.47835933  0.69556563  1
  S  S40  1  0.66592955  0.98217050  0.44978747  1
  S  S41  1  0.33304953  0.93483424  0.55690751  1
