# generated using pymatgen
data_Pr2Mn3(SbS3)4
_symmetry_space_group_name_H-M   'P 1'
_cell_length_a   20.02960800
_cell_length_b   3.90410600
_cell_length_c   14.95364829
_cell_angle_alpha   90.00000000
_cell_angle_beta   126.33350609
_cell_angle_gamma   90.00000000
_symmetry_Int_Tables_number   1
_chemical_formula_structural   Pr2Mn3(SbS3)4
_chemical_formula_sum   'Pr4 Mn6 Sb8 S24'
_cell_volume   942.00006694
_cell_formula_units_Z   2
loop_
 _symmetry_equiv_pos_site_id
 _symmetry_equiv_pos_as_xyz
  1  'x, y, z'
loop_
 _atom_site_type_symbol
 _atom_site_label
 _atom_site_symmetry_multiplicity
 _atom_site_fract_x
 _atom_site_fract_y
 _atom_site_fract_z
 _atom_site_occupancy
  Pr  Pr0  1  0.27315735  0.49905271  0.88147910  1
  Pr  Pr1  1  0.72473788  0.52491550  0.12652777  1
  Pr  Pr2  1  0.76670212  0.01651064  0.87880477  1
  Pr  Pr3  1  0.23016574  0.95623170  0.12887913  1
  Mn  Mn4  1  0.29915719  0.42829884  0.61317764  1
  Mn  Mn5  1  0.69150437  0.46240077  0.36523395  1
  Mn  Mn6  1  0.00432624  0.96582739  0.00986942  1
  Mn  Mn7  1  0.79843059  0.02502907  0.62262476  1
  Mn  Mn8  1  0.20487216  0.04853131  0.38802971  1
  Mn  Mn9  1  0.48303564  0.48582246  0.97578759  1
  Sb  Sb10  1  0.88818185  0.96873427  0.44597526  1
  Sb  Sb11  1  0.11446897  0.98415421  0.54900488  1
  Sb  Sb12  1  0.04391400  0.51828524  0.83111140  1
  Sb  Sb13  1  0.97060884  0.49091386  0.19510957  1
  Sb  Sb14  1  0.40272694  0.53196678  0.45057004  1
  Sb  Sb15  1  0.60843795  0.47389268  0.53935729  1
  Sb  Sb16  1  0.52410999  0.97289732  0.79473567  1
  Sb  Sb17  1  0.46770257  0.03508197  0.17994659  1
  S  S18  1  0.93123243  0.00643169  0.79379829  1
  S  S19  1  0.05831890  0.97482600  0.18836059  1
  S  S20  1  0.40935771  0.98280130  0.97101573  1
  S  S21  1  0.57503275  0.02479558  0.99705384  1
  S  S22  1  0.16708738  0.00522555  0.90304774  1
  S  S23  1  0.82468422  0.97091924  0.10351123  1
  S  S24  1  0.09029797  0.45879851  0.63964014  1
  S  S25  1  0.91985285  0.45757415  0.36486446  1
  S  S26  1  0.73513929  0.98034896  0.29726026  1
  S  S27  1  0.26621854  0.96416081  0.69543090  1
  S  S28  1  0.17722986  0.55098958  0.44342958  1
  S  S29  1  0.81270756  0.48296294  0.53927248  1
  S  S30  1  0.43362725  0.47124295  0.79161535  1
  S  S31  1  0.55315344  0.50418503  0.16744358  1
  S  S32  1  0.91693557  0.49364721  0.99096085  1
  S  S33  1  0.08964733  0.43521241  0.03279019  1
  S  S34  1  0.66375036  0.48982113  0.88452317  1
  S  S35  1  0.32502478  0.47782613  0.10642138  1
  S  S36  1  0.59409872  0.00126009  0.63894769  1
  S  S37  1  0.40044751  0.00585763  0.33796776  1
  S  S38  1  0.24363414  0.49220534  0.30624220  1
  S  S39  1  0.76057578  0.47813855  0.69555595  1
  S  S40  1  0.66577894  0.98195018  0.44964519  1
  S  S41  1  0.33331626  0.93373496  0.55756235  1
