# generated using pymatgen
data_Pr2Mn3(SbS3)4
_symmetry_space_group_name_H-M   'P 1'
_cell_length_a   20.02960800
_cell_length_b   3.90410600
_cell_length_c   14.95364829
_cell_angle_alpha   90.00000000
_cell_angle_beta   126.33350609
_cell_angle_gamma   90.00000000
_symmetry_Int_Tables_number   1
_chemical_formula_structural   Pr2Mn3(SbS3)4
_chemical_formula_sum   'Pr4 Mn6 Sb8 S24'
_cell_volume   942.00006694
_cell_formula_units_Z   2
loop_
 _symmetry_equiv_pos_site_id
 _symmetry_equiv_pos_as_xyz
  1  'x, y, z'
loop_
 _atom_site_type_symbol
 _atom_site_label
 _atom_site_symmetry_multiplicity
 _atom_site_fract_x
 _atom_site_fract_y
 _atom_site_fract_z
 _atom_site_occupancy
  Pr  Pr0  1  0.27315084  0.49889994  0.88138130  1
  Pr  Pr1  1  0.72483466  0.52560759  0.12668624  1
  Pr  Pr2  1  0.76668891  0.01695751  0.87885149  1
  Pr  Pr3  1  0.23017277  0.95601626  0.12880054  1
  Mn  Mn4  1  0.29911618  0.42900109  0.61329474  1
  Mn  Mn5  1  0.69159552  0.46272291  0.36522285  1
  Mn  Mn6  1  0.00447153  0.96609565  0.00987817  1
  Mn  Mn7  1  0.79840776  0.02565692  0.62286628  1
  Mn  Mn8  1  0.20464378  0.04843203  0.38776573  1
  Mn  Mn9  1  0.48294689  0.48660834  0.97578781  1
  Sb  Sb10  1  0.88821109  0.96842846  0.44602874  1
  Sb  Sb11  1  0.11437861  0.98426924  0.54904349  1
  Sb  Sb12  1  0.04388306  0.51903066  0.83098485  1
  Sb  Sb13  1  0.97070236  0.49104247  0.19519820  1
  Sb  Sb14  1  0.40263061  0.53214228  0.45039964  1
  Sb  Sb15  1  0.60828265  0.47354246  0.53914407  1
  Sb  Sb16  1  0.52420332  0.97241025  0.79497388  1
  Sb  Sb17  1  0.46771791  0.03490124  0.17993765  1
  S  S18  1  0.93118881  0.00658619  0.79373121  1
  S  S19  1  0.05836777  0.97515458  0.18879044  1
  S  S20  1  0.40949123  0.98333114  0.97111741  1
  S  S21  1  0.57512632  0.02400907  0.99673759  1
  S  S22  1  0.16706505  0.00577367  0.90296253  1
  S  S23  1  0.82467295  0.97023274  0.10366233  1
  S  S24  1  0.09039353  0.45832329  0.64028482  1
  S  S25  1  0.91986333  0.45729653  0.36525363  1
  S  S26  1  0.73511159  0.97990409  0.29753704  1
  S  S27  1  0.26617300  0.96301342  0.69484283  1
  S  S28  1  0.17716670  0.55073151  0.44351628  1
  S  S29  1  0.81269019  0.48378591  0.53904259  1
  S  S30  1  0.43346841  0.47050050  0.79169507  1
  S  S31  1  0.55334629  0.50240871  0.16742013  1
  S  S32  1  0.91671083  0.49242728  0.99076853  1
  S  S33  1  0.08952459  0.43393564  0.03274216  1
  S  S34  1  0.66369844  0.48966804  0.88407948  1
  S  S35  1  0.32501562  0.47737210  0.10659260  1
  S  S36  1  0.59402109  0.00057663  0.63876278  1
  S  S37  1  0.40058033  0.00628604  0.33824105  1
  S  S38  1  0.24367356  0.49230411  0.30609768  1
  S  S39  1  0.76049556  0.47773522  0.69580424  1
  S  S40  1  0.66567294  0.98160904  0.44963268  1
  S  S41  1  0.33357166  0.93272621  0.55813681  1
