# generated using pymatgen
data_Pr2Mn3(SbS3)4
_symmetry_space_group_name_H-M   'P 1'
_cell_length_a   20.02960800
_cell_length_b   3.90410600
_cell_length_c   14.95364829
_cell_angle_alpha   90.00000000
_cell_angle_beta   126.33350609
_cell_angle_gamma   90.00000000
_symmetry_Int_Tables_number   1
_chemical_formula_structural   Pr2Mn3(SbS3)4
_chemical_formula_sum   'Pr4 Mn6 Sb8 S24'
_cell_volume   942.00006694
_cell_formula_units_Z   2
loop_
 _symmetry_equiv_pos_site_id
 _symmetry_equiv_pos_as_xyz
  1  'x, y, z'
loop_
 _atom_site_type_symbol
 _atom_site_label
 _atom_site_symmetry_multiplicity
 _atom_site_fract_x
 _atom_site_fract_y
 _atom_site_fract_z
 _atom_site_occupancy
  Pr  Pr0  1  0.27313374  0.49868259  0.88121265  1
  Pr  Pr1  1  0.72488882  0.52621624  0.12680873  1
  Pr  Pr2  1  0.76665961  0.01745779  0.87888664  1
  Pr  Pr3  1  0.23006897  0.95576318  0.12860642  1
  Mn  Mn4  1  0.29906172  0.42929886  0.61348845  1
  Mn  Mn5  1  0.69172098  0.46328900  0.36531606  1
  Mn  Mn6  1  0.00465066  0.96663097  0.00997678  1
  Mn  Mn7  1  0.79842924  0.02658234  0.62306146  1
  Mn  Mn8  1  0.20445751  0.04842604  0.38753434  1
  Mn  Mn9  1  0.48286814  0.48733770  0.97569431  1
  Sb  Sb10  1  0.88821289  0.96781840  0.44602513  1
  Sb  Sb11  1  0.11432431  0.98430646  0.54908027  1
  Sb  Sb12  1  0.04386264  0.51972170  0.83088290  1
  Sb  Sb13  1  0.97082739  0.49107285  0.19529210  1
  Sb  Sb14  1  0.40250716  0.53223437  0.45010802  1
  Sb  Sb15  1  0.60811077  0.47339070  0.53886462  1
  Sb  Sb16  1  0.52433176  0.97218964  0.79524724  1
  Sb  Sb17  1  0.46774341  0.03465221  0.17992476  1
  S  S18  1  0.93122743  0.00704886  0.79378482  1
  S  S19  1  0.05841368  0.97547927  0.18916150  1
  S  S20  1  0.40971662  0.98358065  0.97120634  1
  S  S21  1  0.57511448  0.02338829  0.99640049  1
  S  S22  1  0.16700703  0.00665694  0.90285966  1
  S  S23  1  0.82455693  0.96947445  0.10367216  1
  S  S24  1  0.09041012  0.45833410  0.64069787  1
  S  S25  1  0.91987591  0.45701469  0.36557488  1
  S  S26  1  0.73506047  0.97929303  0.29780695  1
  S  S27  1  0.26611227  0.96170647  0.69432131  1
  S  S28  1  0.17699862  0.55078028  0.44342366  1
  S  S29  1  0.81277633  0.48489898  0.53897085  1
  S  S30  1  0.43342283  0.47025077  0.79184449  1
  S  S31  1  0.55347603  0.50028589  0.16740673  1
  S  S32  1  0.91649455  0.49154359  0.99046097  1
  S  S33  1  0.08936459  0.43249862  0.03264056  1
  S  S34  1  0.66362943  0.48932121  0.88372145  1
  S  S35  1  0.32501505  0.47653631  0.10670216  1
  S  S36  1  0.59402069  0.99956807  0.63870713  1
  S  S37  1  0.40069896  0.00673708  0.33845348  1
  S  S38  1  0.24375576  0.49267696  0.30597850  1
  S  S39  1  0.76035195  0.47687855  0.69605495  1
  S  S40  1  0.66564843  0.98110412  0.44961105  1
  S  S41  1  0.33380448  0.93149260  0.55865832  1
