# generated using pymatgen
data_Pr2Mn3(SbS3)4
_symmetry_space_group_name_H-M   'P 1'
_cell_length_a   20.02960800
_cell_length_b   3.90410600
_cell_length_c   14.95364829
_cell_angle_alpha   90.00000000
_cell_angle_beta   126.33350609
_cell_angle_gamma   90.00000000
_symmetry_Int_Tables_number   1
_chemical_formula_structural   Pr2Mn3(SbS3)4
_chemical_formula_sum   'Pr4 Mn6 Sb8 S24'
_cell_volume   942.00006694
_cell_formula_units_Z   2
loop_
 _symmetry_equiv_pos_site_id
 _symmetry_equiv_pos_as_xyz
  1  'x, y, z'
loop_
 _atom_site_type_symbol
 _atom_site_label
 _atom_site_symmetry_multiplicity
 _atom_site_fract_x
 _atom_site_fract_y
 _atom_site_fract_z
 _atom_site_occupancy
  Pr  Pr0  1  0.27310900  0.49837952  0.88103742  1
  Pr  Pr1  1  0.72493040  0.52670361  0.12694705  1
  Pr  Pr2  1  0.76666595  0.01784249  0.87885336  1
  Pr  Pr3  1  0.23000437  0.95551102  0.12838773  1
  Mn  Mn4  1  0.29889013  0.42992168  0.61354267  1
  Mn  Mn5  1  0.69188696  0.46432626  0.36532071  1
  Mn  Mn6  1  0.00477200  0.96721684  0.01005509  1
  Mn  Mn7  1  0.79852651  0.02766311  0.62333410  1
  Mn  Mn8  1  0.20426685  0.04852448  0.38731888  1
  Mn  Mn9  1  0.48286349  0.48774690  0.97573481  1
  Sb  Sb10  1  0.88817711  0.96737722  0.44595790  1
  Sb  Sb11  1  0.11432618  0.98425673  0.54917127  1
  Sb  Sb12  1  0.04380296  0.52046262  0.83070074  1
  Sb  Sb13  1  0.97088143  0.49134868  0.19530825  1
  Sb  Sb14  1  0.40237296  0.53242824  0.44985565  1
  Sb  Sb15  1  0.60793103  0.47314721  0.53861548  1
  Sb  Sb16  1  0.52441322  0.97194261  0.79540477  1
  Sb  Sb17  1  0.46770409  0.03461960  0.17984788  1
  S  S18  1  0.93118998  0.00698879  0.79369802  1
  S  S19  1  0.05844489  0.97594240  0.18937173  1
  S  S20  1  0.40997744  0.98426187  0.97126724  1
  S  S21  1  0.57506302  0.02261519  0.99605895  1
  S  S22  1  0.16695569  0.00695212  0.90285691  1
  S  S23  1  0.82468164  0.96903984  0.10386787  1
  S  S24  1  0.09042034  0.45808611  0.64116515  1
  S  S25  1  0.91989593  0.45684540  0.36589963  1
  S  S26  1  0.73516085  0.97868251  0.29825684  1
  S  S27  1  0.26614329  0.96035870  0.69398268  1
  S  S28  1  0.17683714  0.55023499  0.44347346  1
  S  S29  1  0.81278849  0.48574663  0.53900832  1
  S  S30  1  0.43352105  0.47052363  0.79207947  1
  S  S31  1  0.55368651  0.49804106  0.16744894  1
  S  S32  1  0.91627861  0.49031736  0.99021167  1
  S  S33  1  0.08917006  0.43168330  0.03251057  1
  S  S34  1  0.66370030  0.48915453  0.88363443  1
  S  S35  1  0.32501252  0.47594986  0.10682848  1
  S  S36  1  0.59405884  0.99876192  0.63881968  1
  S  S37  1  0.40088796  0.00747451  0.33857470  1
  S  S38  1  0.24380870  0.49216603  0.30577657  1
  S  S39  1  0.76015136  0.47577801  0.69618321  1
  S  S40  1  0.66575424  0.98070116  0.44969925  1
  S  S41  1  0.33404343  0.93010091  0.55912800  1
