# generated using pymatgen
data_Pr2Mn3(SbS3)4
_symmetry_space_group_name_H-M   'P 1'
_cell_length_a   20.02960800
_cell_length_b   3.90410600
_cell_length_c   14.95364829
_cell_angle_alpha   90.00000000
_cell_angle_beta   126.33350609
_cell_angle_gamma   90.00000000
_symmetry_Int_Tables_number   1
_chemical_formula_structural   Pr2Mn3(SbS3)4
_chemical_formula_sum   'Pr4 Mn6 Sb8 S24'
_cell_volume   942.00006694
_cell_formula_units_Z   2
loop_
 _symmetry_equiv_pos_site_id
 _symmetry_equiv_pos_as_xyz
  1  'x, y, z'
loop_
 _atom_site_type_symbol
 _atom_site_label
 _atom_site_symmetry_multiplicity
 _atom_site_fract_x
 _atom_site_fract_y
 _atom_site_fract_z
 _atom_site_occupancy
  Pr  Pr0  1  0.27306319  0.49821957  0.88086570  1
  Pr  Pr1  1  0.72498023  0.52721876  0.12710412  1
  Pr  Pr2  1  0.76672337  0.01829011  0.87882900  1
  Pr  Pr3  1  0.22998101  0.95522026  0.12819633  1
  Mn  Mn4  1  0.29874032  0.43057901  0.61358880  1
  Mn  Mn5  1  0.69193940  0.46527331  0.36534072  1
  Mn  Mn6  1  0.00485026  0.96759769  0.01007468  1
  Mn  Mn7  1  0.79863801  0.02887652  0.62354444  1
  Mn  Mn8  1  0.20405001  0.04859212  0.38705613  1
  Mn  Mn9  1  0.48296421  0.48816745  0.97592335  1
  Sb  Sb10  1  0.88810163  0.96707936  0.44586446  1
  Sb  Sb11  1  0.11429682  0.98415565  0.54920672  1
  Sb  Sb12  1  0.04373657  0.52126044  0.83060047  1
  Sb  Sb13  1  0.97102138  0.49166073  0.19539371  1
  Sb  Sb14  1  0.40226117  0.53270672  0.44964599  1
  Sb  Sb15  1  0.60775093  0.47304907  0.53839779  1
  Sb  Sb16  1  0.52449991  0.97168431  0.79563402  1
  Sb  Sb17  1  0.46766284  0.03457605  0.17975517  1
  S  S18  1  0.93112108  0.00689226  0.79357782  1
  S  S19  1  0.05847607  0.97678032  0.18952293  1
  S  S20  1  0.41021307  0.98489821  0.97126197  1
  S  S21  1  0.57510261  0.02206153  0.99572288  1
  S  S22  1  0.16687462  0.00728683  0.90286399  1
  S  S23  1  0.82475835  0.96824536  0.10409385  1
  S  S24  1  0.09055634  0.45779079  0.64183757  1
  S  S25  1  0.91992906  0.45667856  0.36625338  1
  S  S26  1  0.73518130  0.97837140  0.29857390  1
  S  S27  1  0.26616909  0.95829513  0.69362940  1
  S  S28  1  0.17660582  0.54958339  0.44358176  1
  S  S29  1  0.81287041  0.48630887  0.53906328  1
  S  S30  1  0.43360052  0.47052421  0.79225664  1
  S  S31  1  0.55383230  0.49623140  0.16748496  1
  S  S32  1  0.91601932  0.48939183  0.98990532  1
  S  S33  1  0.08882884  0.43079705  0.03223737  1
  S  S34  1  0.66367481  0.48925136  0.88343267  1
  S  S35  1  0.32504596  0.47516866  0.10695789  1
  S  S36  1  0.59414873  0.99773090  0.63891384  1
  S  S37  1  0.40100255  0.00837298  0.33864760  1
  S  S38  1  0.24381284  0.49202007  0.30551888  1
  S  S39  1  0.76006336  0.47488483  0.69645018  1
  S  S40  1  0.66595434  0.98021267  0.44978840  1
  S  S41  1  0.33419662  0.92873820  0.55938279  1
