# generated using pymatgen
data_Pr2Mn3(SbS3)4
_symmetry_space_group_name_H-M   'P 1'
_cell_length_a   20.02960800
_cell_length_b   3.90410600
_cell_length_c   14.95364829
_cell_angle_alpha   90.00000000
_cell_angle_beta   126.33350609
_cell_angle_gamma   90.00000000
_symmetry_Int_Tables_number   1
_chemical_formula_structural   Pr2Mn3(SbS3)4
_chemical_formula_sum   'Pr4 Mn6 Sb8 S24'
_cell_volume   942.00006694
_cell_formula_units_Z   2
loop_
 _symmetry_equiv_pos_site_id
 _symmetry_equiv_pos_as_xyz
  1  'x, y, z'
loop_
 _atom_site_type_symbol
 _atom_site_label
 _atom_site_symmetry_multiplicity
 _atom_site_fract_x
 _atom_site_fract_y
 _atom_site_fract_z
 _atom_site_occupancy
  Pr  Pr0  1  0.27295658  0.49825808  0.88068842  1
  Pr  Pr1  1  0.72505090  0.52769684  0.12723021  1
  Pr  Pr2  1  0.76679856  0.01878839  0.87882678  1
  Pr  Pr3  1  0.22994989  0.95491364  0.12807172  1
  Mn  Mn4  1  0.29862989  0.43118105  0.61369767  1
  Mn  Mn5  1  0.69194834  0.46640455  0.36530233  1
  Mn  Mn6  1  0.00491078  0.96807416  0.01009628  1
  Mn  Mn7  1  0.79879451  0.02975429  0.62381759  1
  Mn  Mn8  1  0.20390703  0.04875139  0.38676446  1
  Mn  Mn9  1  0.48307785  0.48884144  0.97606153  1
  Sb  Sb10  1  0.88802556  0.96666431  0.44576451  1
  Sb  Sb11  1  0.11433348  0.98417570  0.54929457  1
  Sb  Sb12  1  0.04366511  0.52208776  0.83050346  1
  Sb  Sb13  1  0.97117455  0.49203136  0.19551735  1
  Sb  Sb14  1  0.40215839  0.53278211  0.44941097  1
  Sb  Sb15  1  0.60764877  0.47309587  0.53830525  1
  Sb  Sb16  1  0.52450363  0.97154100  0.79573200  1
  Sb  Sb17  1  0.46759366  0.03467967  0.17963793  1
  S  S18  1  0.93111456  0.00686611  0.79350495  1
  S  S19  1  0.05859155  0.97760754  0.18973963  1
  S  S20  1  0.41045913  0.98521221  0.97119100  1
  S  S21  1  0.57517863  0.02131272  0.99547478  1
  S  S22  1  0.16669342  0.00765969  0.90290140  1
  S  S23  1  0.82481275  0.96757176  0.10434314  1
  S  S24  1  0.09052740  0.45743673  0.64227083  1
  S  S25  1  0.92000812  0.45627611  0.36660385  1
  S  S26  1  0.73520476  0.97844506  0.29887800  1
  S  S27  1  0.26631952  0.95632863  0.69335778  1
  S  S28  1  0.17633859  0.54897136  0.44371243  1
  S  S29  1  0.81300653  0.48704960  0.53915774  1
  S  S30  1  0.43352395  0.47004056  0.79241146  1
  S  S31  1  0.55389120  0.49461936  0.16742686  1
  S  S32  1  0.91581871  0.48847448  0.98963300  1
  S  S33  1  0.08848359  0.42958255  0.03185332  1
  S  S34  1  0.66367588  0.48938525  0.88318239  1
  S  S35  1  0.32506086  0.47441767  0.10705333  1
  S  S36  1  0.59406497  0.99641899  0.63887982  1
  S  S37  1  0.40098612  0.00889213  0.33878777  1
  S  S38  1  0.24376637  0.49211528  0.30527289  1
  S  S39  1  0.76002974  0.47430577  0.69675002  1
  S  S40  1  0.66600720  0.98007748  0.44973712  1
  S  S41  1  0.33436797  0.92749528  0.55966131  1
