# generated using pymatgen
data_Pr2Mn3(SbS3)4
_symmetry_space_group_name_H-M   'P 1'
_cell_length_a   20.02960800
_cell_length_b   3.90410600
_cell_length_c   14.95364829
_cell_angle_alpha   90.00000000
_cell_angle_beta   126.33350609
_cell_angle_gamma   90.00000000
_symmetry_Int_Tables_number   1
_chemical_formula_structural   Pr2Mn3(SbS3)4
_chemical_formula_sum   'Pr4 Mn6 Sb8 S24'
_cell_volume   942.00006694
_cell_formula_units_Z   2
loop_
 _symmetry_equiv_pos_site_id
 _symmetry_equiv_pos_as_xyz
  1  'x, y, z'
loop_
 _atom_site_type_symbol
 _atom_site_label
 _atom_site_symmetry_multiplicity
 _atom_site_fract_x
 _atom_site_fract_y
 _atom_site_fract_z
 _atom_site_occupancy
  Pr  Pr0  1  0.27282925  0.49820541  0.88050397  1
  Pr  Pr1  1  0.72512837  0.52815934  0.12735217  1
  Pr  Pr2  1  0.76681522  0.01929608  0.87879124  1
  Pr  Pr3  1  0.22992917  0.95451309  0.12801575  1
  Mn  Mn4  1  0.29859309  0.43175162  0.61378413  1
  Mn  Mn5  1  0.69200291  0.46755499  0.36531755  1
  Mn  Mn6  1  0.00508730  0.96869877  0.01013858  1
  Mn  Mn7  1  0.79900172  0.03061949  0.62409288  1
  Mn  Mn8  1  0.20391051  0.04880068  0.38651028  1
  Mn  Mn9  1  0.48321101  0.48944074  0.97625461  1
  Sb  Sb10  1  0.88791063  0.96616811  0.44552532  1
  Sb  Sb11  1  0.11443057  0.98415105  0.54939390  1
  Sb  Sb12  1  0.04358862  0.52278600  0.83054974  1
  Sb  Sb13  1  0.97133908  0.49231798  0.19563828  1
  Sb  Sb14  1  0.40211052  0.53303125  0.44927749  1
  Sb  Sb15  1  0.60751938  0.47312979  0.53812318  1
  Sb  Sb16  1  0.52446986  0.97141812  0.79580220  1
  Sb  Sb17  1  0.46751760  0.03492739  0.17951768  1
  S  S18  1  0.93100515  0.00642138  0.79315017  1
  S  S19  1  0.05868368  0.97823616  0.18994793  1
  S  S20  1  0.41057517  0.98530360  0.97096141  1
  S  S21  1  0.57531329  0.02049916  0.99531636  1
  S  S22  1  0.16658014  0.00807038  0.90295576  1
  S  S23  1  0.82495015  0.96757583  0.10455874  1
  S  S24  1  0.09047231  0.45723519  0.64260053  1
  S  S25  1  0.91998135  0.45552502  0.36700260  1
  S  S26  1  0.73515267  0.97897254  0.29920059  1
  S  S27  1  0.26646621  0.95402342  0.69300062  1
  S  S28  1  0.17610370  0.54833644  0.44395878  1
  S  S29  1  0.81325510  0.48734604  0.53939593  1
  S  S30  1  0.43350895  0.46983496  0.79264605  1
  S  S31  1  0.55394606  0.49365305  0.16750236  1
  S  S32  1  0.91575406  0.48763551  0.98933252  1
  S  S33  1  0.08814326  0.42869583  0.03152424  1
  S  S34  1  0.66383662  0.48962928  0.88309256  1
  S  S35  1  0.32520289  0.47342168  0.10703170  1
  S  S36  1  0.59398128  0.99508975  0.63875806  1
  S  S37  1  0.40089724  0.00949953  0.33877616  1
  S  S38  1  0.24371182  0.49228451  0.30499383  1
  S  S39  1  0.75988652  0.47358440  0.69698606  1
  S  S40  1  0.66612333  0.97986365  0.44962663  1
  S  S41  1  0.33451829  0.92689592  0.55976537  1
