# generated using pymatgen
data_Pr2Mn3(SbS3)4
_symmetry_space_group_name_H-M   'P 1'
_cell_length_a   20.02960800
_cell_length_b   3.90410600
_cell_length_c   14.95364829
_cell_angle_alpha   90.00000000
_cell_angle_beta   126.33350609
_cell_angle_gamma   90.00000000
_symmetry_Int_Tables_number   1
_chemical_formula_structural   Pr2Mn3(SbS3)4
_chemical_formula_sum   'Pr4 Mn6 Sb8 S24'
_cell_volume   942.00006694
_cell_formula_units_Z   2
loop_
 _symmetry_equiv_pos_site_id
 _symmetry_equiv_pos_as_xyz
  1  'x, y, z'
loop_
 _atom_site_type_symbol
 _atom_site_label
 _atom_site_symmetry_multiplicity
 _atom_site_fract_x
 _atom_site_fract_y
 _atom_site_fract_z
 _atom_site_occupancy
  Pr  Pr0  1  0.27270049  0.49828229  0.88030850  1
  Pr  Pr1  1  0.72515831  0.52849445  0.12744419  1
  Pr  Pr2  1  0.76675265  0.01965200  0.87873210  1
  Pr  Pr3  1  0.22983213  0.95379733  0.12784512  1
  Mn  Mn4  1  0.29858318  0.43265876  0.61393854  1
  Mn  Mn5  1  0.69202516  0.46859032  0.36535095  1
  Mn  Mn6  1  0.00530864  0.96950037  0.01029297  1
  Mn  Mn7  1  0.79924783  0.03110322  0.62437132  1
  Mn  Mn8  1  0.20382452  0.04865568  0.38612639  1
  Mn  Mn9  1  0.48335191  0.49000106  0.97645984  1
  Sb  Sb10  1  0.88783406  0.96574946  0.44534731  1
  Sb  Sb11  1  0.11458704  0.98429920  0.54950546  1
  Sb  Sb12  1  0.04344152  0.52350231  0.83058627  1
  Sb  Sb13  1  0.97141281  0.49268537  0.19568289  1
  Sb  Sb14  1  0.40205827  0.53297378  0.44901946  1
  Sb  Sb15  1  0.60742873  0.47315325  0.53797702  1
  Sb  Sb16  1  0.52441113  0.97131902  0.79580825  1
  Sb  Sb17  1  0.46741538  0.03521188  0.17942873  1
  S  S18  1  0.93107027  0.00626328  0.79300543  1
  S  S19  1  0.05867387  0.97945726  0.19004688  1
  S  S20  1  0.41082904  0.98566195  0.97084878  1
  S  S21  1  0.57537289  0.01963423  0.99523615  1
  S  S22  1  0.16640795  0.00855136  0.90294246  1
  S  S23  1  0.82515680  0.96754674  0.10475080  1
  S  S24  1  0.09049952  0.45658589  0.64297673  1
  S  S25  1  0.91995316  0.45514932  0.36741417  1
  S  S26  1  0.73505338  0.97937732  0.29955996  1
  S  S27  1  0.26647890  0.95172919  0.69264225  1
  S  S28  1  0.17586105  0.54787930  0.44415730  1
  S  S29  1  0.81351866  0.48778789  0.53956666  1
  S  S30  1  0.43359871  0.46976798  0.79297495  1
  S  S31  1  0.55403956  0.49292578  0.16761668  1
  S  S32  1  0.91571671  0.48669932  0.98912444  1
  S  S33  1  0.08770923  0.42756900  0.03112394  1
  S  S34  1  0.66394292  0.48973411  0.88306540  1
  S  S35  1  0.32541011  0.47191262  0.10715325  1
  S  S36  1  0.59385460  0.99381601  0.63863167  1
  S  S37  1  0.40086516  0.01033669  0.33881774  1
  S  S38  1  0.24368643  0.49227879  0.30469215  1
  S  S39  1  0.75978437  0.47307700  0.69713914  1
  S  S40  1  0.66619957  0.98014577  0.44949343  1
  S  S41  1  0.33459491  0.92634125  0.55994753  1
