# generated using pymatgen
data_Pr2Mn3(SbS3)4
_symmetry_space_group_name_H-M   'P 1'
_cell_length_a   20.02960800
_cell_length_b   3.90410600
_cell_length_c   14.95364829
_cell_angle_alpha   90.00000000
_cell_angle_beta   126.33350609
_cell_angle_gamma   90.00000000
_symmetry_Int_Tables_number   1
_chemical_formula_structural   Pr2Mn3(SbS3)4
_chemical_formula_sum   'Pr4 Mn6 Sb8 S24'
_cell_volume   942.00006694
_cell_formula_units_Z   2
loop_
 _symmetry_equiv_pos_site_id
 _symmetry_equiv_pos_as_xyz
  1  'x, y, z'
loop_
 _atom_site_type_symbol
 _atom_site_label
 _atom_site_symmetry_multiplicity
 _atom_site_fract_x
 _atom_site_fract_y
 _atom_site_fract_z
 _atom_site_occupancy
  Pr  Pr0  1  0.26341171  0.48739782  0.86792703  1
  Pr  Pr1  1  0.73809411  0.50606229  0.13607132  1
  Pr  Pr2  1  0.76166373  0.00781800  0.86224401  1
  Pr  Pr3  1  0.23828133  0.99492294  0.14002474  1
  Mn  Mn4  1  0.29831570  0.50240763  0.61749184  1
  Mn  Mn5  1  0.69706236  0.50850973  0.38094430  1
  Mn  Mn6  1  0.00206710  0.99815604  0.99847475  1
  Mn  Mn7  1  0.80348300  0.99259976  0.61458361  1
  Mn  Mn8  1  0.19853537  0.98018996  0.37908047  1
  Mn  Mn9  1  0.50203921  0.48353826  0.99624607  1
  Sb  Sb10  1  0.89409029  0.00838179  0.45405470  1
  Sb  Sb11  1  0.10840874  0.97977044  0.55114173  1
  Sb  Sb12  1  0.03849397  0.48611865  0.81572671  1
  Sb  Sb13  1  0.96143049  0.51644538  0.18718156  1
  Sb  Sb14  1  0.39555999  0.48877825  0.45714466  1
  Sb  Sb15  1  0.60719293  0.50054236  0.54966687  1
  Sb  Sb16  1  0.53682458  0.00391444  0.81598751  1
  Sb  Sb17  1  0.46208347  0.00195243  0.18037597  1
  S  S18  1  0.93587140  0.97741741  0.79731987  1
  S  S19  1  0.06080837  0.00115363  0.19201479  1
  S  S20  1  0.40787537  0.99656829  0.97875681  1
  S  S21  1  0.59222692  0.99423022  0.01529531  1
  S  S22  1  0.17138590  0.98976071  0.90097015  1
  S  S23  1  0.82881057  0.01398421  0.10626003  1
  S  S24  1  0.08402303  0.48535456  0.64232331  1
  S  S25  1  0.91459511  0.47992604  0.36082160  1
  S  S26  1  0.74301275  0.94828494  0.29489095  1
  S  S27  1  0.25709774  0.99825875  0.70304469  1
  S  S28  1  0.16317909  0.49274204  0.44634960  1
  S  S29  1  0.83035367  0.48812405  0.54891959  1
  S  S30  1  0.43631721  0.50997257  0.80076047  1
  S  S31  1  0.56053782  0.51074826  0.19095550  1
  S  S32  1  0.90166511  0.47953441  0.97518983  1
  S  S33  1  0.08924990  0.48274159  0.01718812  1
  S  S34  1  0.66400223  0.50357151  0.89478410  1
  S  S35  1  0.33103762  0.51798081  0.10031283  1
  S  S36  1  0.59260012  0.01220280  0.65066470  1
  S  S37  1  0.41359286  0.97191661  0.35850915  1
  S  S38  1  0.24372275  0.47656037  0.29906313  1
  S  S39  1  0.76164458  0.50262189  0.69924455  1
  S  S40  1  0.66705376  0.01248159  0.46178407  1
  S  S41  1  0.33075638  0.98048225  0.54132957  1
