# generated using pymatgen
data_Pr2Mn3(SbS3)4
_symmetry_space_group_name_H-M   'P 1'
_cell_length_a   20.02960800
_cell_length_b   3.90410600
_cell_length_c   14.95364829
_cell_angle_alpha   90.00000000
_cell_angle_beta   126.33350609
_cell_angle_gamma   90.00000000
_symmetry_Int_Tables_number   1
_chemical_formula_structural   Pr2Mn3(SbS3)4
_chemical_formula_sum   'Pr4 Mn6 Sb8 S24'
_cell_volume   942.00006694
_cell_formula_units_Z   2
loop_
 _symmetry_equiv_pos_site_id
 _symmetry_equiv_pos_as_xyz
  1  'x, y, z'
loop_
 _atom_site_type_symbol
 _atom_site_label
 _atom_site_symmetry_multiplicity
 _atom_site_fract_x
 _atom_site_fract_y
 _atom_site_fract_z
 _atom_site_occupancy
  Pr  Pr0  1  0.27256374  0.49813188  0.88012074  1
  Pr  Pr1  1  0.72526383  0.52898590  0.12761905  1
  Pr  Pr2  1  0.76673448  0.01995089  0.87870084  1
  Pr  Pr3  1  0.22975618  0.95309596  0.12770282  1
  Mn  Mn4  1  0.29849793  0.43354619  0.61392048  1
  Mn  Mn5  1  0.69211903  0.46946131  0.36547079  1
  Mn  Mn6  1  0.00560073  0.97002233  0.01056181  1
  Mn  Mn7  1  0.79943857  0.03136754  0.62460560  1
  Mn  Mn8  1  0.20389955  0.04866877  0.38586649  1
  Mn  Mn9  1  0.48343125  0.49095548  0.97664869  1
  Sb  Sb10  1  0.88773862  0.96536438  0.44513447  1
  Sb  Sb11  1  0.11470058  0.98442240  0.54958146  1
  Sb  Sb12  1  0.04340701  0.52379394  0.83064464  1
  Sb  Sb13  1  0.97153283  0.49282622  0.19579120  1
  Sb  Sb14  1  0.40207744  0.53309302  0.44892799  1
  Sb  Sb15  1  0.60737904  0.47356385  0.53797171  1
  Sb  Sb16  1  0.52433386  0.97107029  0.79577306  1
  Sb  Sb17  1  0.46738249  0.03550615  0.17938696  1
  S  S18  1  0.93112618  0.00583108  0.79263726  1
  S  S19  1  0.05852578  0.98071399  0.18996538  1
  S  S20  1  0.41103786  0.98597406  0.97063840  1
  S  S21  1  0.57543030  0.01944558  0.99525079  1
  S  S22  1  0.16611266  0.00841069  0.90285999  1
  S  S23  1  0.82523311  0.96760384  0.10465688  1
  S  S24  1  0.09054466  0.45644808  0.64332442  1
  S  S25  1  0.91984775  0.45407431  0.36783078  1
  S  S26  1  0.73499822  0.97988640  0.29999377  1
  S  S27  1  0.26643241  0.94993453  0.69239259  1
  S  S28  1  0.17559722  0.54705165  0.44444262  1
  S  S29  1  0.81375574  0.48856063  0.53975717  1
  S  S30  1  0.43365760  0.46960590  0.79331849  1
  S  S31  1  0.55416097  0.49230934  0.16784178  1
  S  S32  1  0.91570210  0.48588706  0.98889462  1
  S  S33  1  0.08719653  0.42591308  0.03069661  1
  S  S34  1  0.66399653  0.49006488  0.88304314  1
  S  S35  1  0.32556434  0.47072544  0.10727328  1
  S  S36  1  0.59382090  0.99309238  0.63839601  1
  S  S37  1  0.40091808  0.01167867  0.33900216  1
  S  S38  1  0.24356951  0.49217065  0.30441441  1
  S  S39  1  0.75979354  0.47258160  0.69730849  1
  S  S40  1  0.66645629  0.98098323  0.44940155  1
  S  S41  1  0.33457789  0.92596576  0.56005903  1
