# generated using pymatgen
data_Pr2Mn3(SbS3)4
_symmetry_space_group_name_H-M   'P 1'
_cell_length_a   20.02960800
_cell_length_b   3.90410600
_cell_length_c   14.95364829
_cell_angle_alpha   90.00000000
_cell_angle_beta   126.33350609
_cell_angle_gamma   90.00000000
_symmetry_Int_Tables_number   1
_chemical_formula_structural   Pr2Mn3(SbS3)4
_chemical_formula_sum   'Pr4 Mn6 Sb8 S24'
_cell_volume   942.00006694
_cell_formula_units_Z   2
loop_
 _symmetry_equiv_pos_site_id
 _symmetry_equiv_pos_as_xyz
  1  'x, y, z'
loop_
 _atom_site_type_symbol
 _atom_site_label
 _atom_site_symmetry_multiplicity
 _atom_site_fract_x
 _atom_site_fract_y
 _atom_site_fract_z
 _atom_site_occupancy
  Pr  Pr0  1  0.27238437  0.49817257  0.87988863  1
  Pr  Pr1  1  0.72537780  0.52943240  0.12772933  1
  Pr  Pr2  1  0.76675239  0.02033395  0.87870794  1
  Pr  Pr3  1  0.22971542  0.95261016  0.12762368  1
  Mn  Mn4  1  0.29846106  0.43447239  0.61392161  1
  Mn  Mn5  1  0.69222882  0.47041945  0.36557908  1
  Mn  Mn6  1  0.00585215  0.97046720  0.01075056  1
  Mn  Mn7  1  0.79969001  0.03136378  0.62485327  1
  Mn  Mn8  1  0.20386690  0.04884942  0.38549973  1
  Mn  Mn9  1  0.48348886  0.49209364  0.97680002  1
  Sb  Sb10  1  0.88763815  0.96511631  0.44496689  1
  Sb  Sb11  1  0.11481475  0.98445690  0.54965964  1
  Sb  Sb12  1  0.04337159  0.52407203  0.83070282  1
  Sb  Sb13  1  0.97160053  0.49284199  0.19586060  1
  Sb  Sb14  1  0.40210499  0.53309223  0.44886554  1
  Sb  Sb15  1  0.60731978  0.47411881  0.53796020  1
  Sb  Sb16  1  0.52429593  0.97093966  0.79578407  1
  Sb  Sb17  1  0.46732378  0.03573620  0.17936214  1
  S  S18  1  0.93128089  0.00556377  0.79236012  1
  S  S19  1  0.05838701  0.98211153  0.18997626  1
  S  S20  1  0.41112181  0.98668412  0.97025277  1
  S  S21  1  0.57549808  0.01914833  0.99525399  1
  S  S22  1  0.16591708  0.00848444  0.90264363  1
  S  S23  1  0.82522234  0.96734068  0.10434218  1
  S  S24  1  0.09064535  0.45652511  0.64368082  1
  S  S25  1  0.91986235  0.45349927  0.36818220  1
  S  S26  1  0.73499543  0.98022261  0.30037044  1
  S  S27  1  0.26631866  0.94853413  0.69211706  1
  S  S28  1  0.17535397  0.54627666  0.44472324  1
  S  S29  1  0.81389513  0.48943806  0.53992773  1
  S  S30  1  0.43375133  0.46931334  0.79362774  1
  S  S31  1  0.55425337  0.49149658  0.16818310  1
  S  S32  1  0.91556053  0.48568571  0.98866693  1
  S  S33  1  0.08677828  0.42475569  0.03035175  1
  S  S34  1  0.66406740  0.48994633  0.88294930  1
  S  S35  1  0.32567904  0.46993046  0.10742847  1
  S  S36  1  0.59386618  0.99226097  0.63831012  1
  S  S37  1  0.40103483  0.01320116  0.33922356  1
  S  S38  1  0.24353844  0.49208042  0.30428867  1
  S  S39  1  0.75981568  0.47205069  0.69729134  1
  S  S40  1  0.66669694  0.98246002  0.44930185  1
  S  S41  1  0.33466603  0.92584043  0.56019544  1
