# generated using pymatgen
data_Pr2Mn3(SbS3)4
_symmetry_space_group_name_H-M   'P 1'
_cell_length_a   20.02960800
_cell_length_b   3.90410600
_cell_length_c   14.95364829
_cell_angle_alpha   90.00000000
_cell_angle_beta   126.33350609
_cell_angle_gamma   90.00000000
_symmetry_Int_Tables_number   1
_chemical_formula_structural   Pr2Mn3(SbS3)4
_chemical_formula_sum   'Pr4 Mn6 Sb8 S24'
_cell_volume   942.00006694
_cell_formula_units_Z   2
loop_
 _symmetry_equiv_pos_site_id
 _symmetry_equiv_pos_as_xyz
  1  'x, y, z'
loop_
 _atom_site_type_symbol
 _atom_site_label
 _atom_site_symmetry_multiplicity
 _atom_site_fract_x
 _atom_site_fract_y
 _atom_site_fract_z
 _atom_site_occupancy
  Pr  Pr0  1  0.27219701  0.49821471  0.87967620  1
  Pr  Pr1  1  0.72550561  0.52980367  0.12777760  1
  Pr  Pr2  1  0.76681932  0.02077970  0.87871547  1
  Pr  Pr3  1  0.22968568  0.95212108  0.12755490  1
  Mn  Mn4  1  0.29835796  0.43551130  0.61380811  1
  Mn  Mn5  1  0.69235085  0.47097610  0.36570613  1
  Mn  Mn6  1  0.00601287  0.97117560  0.01087731  1
  Mn  Mn7  1  0.79983470  0.03144643  0.62501796  1
  Mn  Mn8  1  0.20389927  0.04933356  0.38523935  1
  Mn  Mn9  1  0.48357420  0.49308934  0.97691217  1
  Sb  Sb10  1  0.88756930  0.96486911  0.44486986  1
  Sb  Sb11  1  0.11490991  0.98425794  0.54978167  1
  Sb  Sb12  1  0.04344527  0.52419782  0.83087282  1
  Sb  Sb13  1  0.97167713  0.49261827  0.19595086  1
  Sb  Sb14  1  0.40214726  0.53308284  0.44880259  1
  Sb  Sb15  1  0.60722732  0.47472010  0.53797163  1
  Sb  Sb16  1  0.52419411  0.97085090  0.79572927  1
  Sb  Sb17  1  0.46723332  0.03613169  0.17933283  1
  S  S18  1  0.93144997  0.00538048  0.79194717  1
  S  S19  1  0.05824033  0.98363132  0.19003086  1
  S  S20  1  0.41116640  0.98759417  0.96997586  1
  S  S21  1  0.57557781  0.01877722  0.99525277  1
  S  S22  1  0.16578729  0.00849299  0.90248536  1
  S  S23  1  0.82509931  0.96753378  0.10394767  1
  S  S24  1  0.09083007  0.45619391  0.64427561  1
  S  S25  1  0.91996729  0.45326476  0.36862283  1
  S  S26  1  0.73495238  0.98002134  0.30054202  1
  S  S27  1  0.26624602  0.94738939  0.69181272  1
  S  S28  1  0.17503800  0.54559441  0.44496529  1
  S  S29  1  0.81397644  0.49054343  0.54000764  1
  S  S30  1  0.43380927  0.46919082  0.79374845  1
  S  S31  1  0.55442937  0.49096525  0.16853046  1
  S  S32  1  0.91534680  0.48553677  0.98838151  1
  S  S33  1  0.08643727  0.42366547  0.03017064  1
  S  S34  1  0.66423192  0.49016377  0.88314698  1
  S  S35  1  0.32582947  0.46866496  0.10763744  1
  S  S36  1  0.59382843  0.99187170  0.63816870  1
  S  S37  1  0.40108365  0.01427639  0.33939224  1
  S  S38  1  0.24339258  0.49207036  0.30395339  1
  S  S39  1  0.75993272  0.47159465  0.69735698  1
  S  S40  1  0.66685219  0.98362978  0.44910112  1
  S  S41  1  0.33481205  0.92522829  0.56038449  1
