# generated using pymatgen
data_Pr2Mn3(SbS3)4
_symmetry_space_group_name_H-M   'P 1'
_cell_length_a   20.02960800
_cell_length_b   3.90410600
_cell_length_c   14.95364829
_cell_angle_alpha   90.00000000
_cell_angle_beta   126.33350609
_cell_angle_gamma   90.00000000
_symmetry_Int_Tables_number   1
_chemical_formula_structural   Pr2Mn3(SbS3)4
_chemical_formula_sum   'Pr4 Mn6 Sb8 S24'
_cell_volume   942.00006694
_cell_formula_units_Z   2
loop_
 _symmetry_equiv_pos_site_id
 _symmetry_equiv_pos_as_xyz
  1  'x, y, z'
loop_
 _atom_site_type_symbol
 _atom_site_label
 _atom_site_symmetry_multiplicity
 _atom_site_fract_x
 _atom_site_fract_y
 _atom_site_fract_z
 _atom_site_occupancy
  Pr  Pr0  1  0.27201102  0.49813258  0.87945025  1
  Pr  Pr1  1  0.72563349  0.53012690  0.12784360  1
  Pr  Pr2  1  0.76684993  0.02146468  0.87873796  1
  Pr  Pr3  1  0.22970437  0.95163383  0.12753841  1
  Mn  Mn4  1  0.29832069  0.43620720  0.61377547  1
  Mn  Mn5  1  0.69249172  0.47116595  0.36578559  1
  Mn  Mn6  1  0.00616507  0.97159650  0.01097973  1
  Mn  Mn7  1  0.80008998  0.03137226  0.62524087  1
  Mn  Mn8  1  0.20385390  0.04959066  0.38497055  1
  Mn  Mn9  1  0.48362999  0.49402222  0.97714643  1
  Sb  Sb10  1  0.88753189  0.96450462  0.44479916  1
  Sb  Sb11  1  0.11494906  0.98423636  0.54985942  1
  Sb  Sb12  1  0.04349780  0.52421035  0.83099955  1
  Sb  Sb13  1  0.97178511  0.49208957  0.19602989  1
  Sb  Sb14  1  0.40218411  0.53308582  0.44873001  1
  Sb  Sb15  1  0.60719747  0.47522953  0.53808836  1
  Sb  Sb16  1  0.52402762  0.97082342  0.79561889  1
  Sb  Sb17  1  0.46711285  0.03665646  0.17932408  1
  S  S18  1  0.93170715  0.00512729  0.79172625  1
  S  S19  1  0.05811970  0.98471328  0.19006392  1
  S  S20  1  0.41124993  0.98875343  0.96983669  1
  S  S21  1  0.57567697  0.01856943  0.99541112  1
  S  S22  1  0.16563014  0.00854377  0.90230132  1
  S  S23  1  0.82500185  0.96751938  0.10365891  1
  S  S24  1  0.09094190  0.45567403  0.64468588  1
  S  S25  1  0.91995357  0.45310005  0.36897072  1
  S  S26  1  0.73495576  0.97958368  0.30062255  1
  S  S27  1  0.26617143  0.94648855  0.69147474  1
  S  S28  1  0.17472652  0.54521420  0.44518895  1
  S  S29  1  0.81402144  0.49139929  0.54011484  1
  S  S30  1  0.43376268  0.46922327  0.79366708  1
  S  S31  1  0.55448926  0.49030432  0.16876320  1
  S  S32  1  0.91526485  0.48540027  0.98832387  1
  S  S33  1  0.08610609  0.42294710  0.02999050  1
  S  S34  1  0.66434189  0.49109786  0.88336863  1
  S  S35  1  0.32600446  0.46714050  0.10793383  1
  S  S36  1  0.59386606  0.99097068  0.63811911  1
  S  S37  1  0.40116433  0.01537706  0.33965594  1
  S  S38  1  0.24328444  0.49200643  0.30369537  1
  S  S39  1  0.75999215  0.47137600  0.69748874  1
  S  S40  1  0.66696815  0.98493271  0.44890167  1
  S  S41  1  0.33487985  0.92468155  0.56053566  1
