# generated using pymatgen
data_Pr2Mn3(SbS3)4
_symmetry_space_group_name_H-M   'P 1'
_cell_length_a   20.02960800
_cell_length_b   3.90410600
_cell_length_c   14.95364829
_cell_angle_alpha   90.00000000
_cell_angle_beta   126.33350609
_cell_angle_gamma   90.00000000
_symmetry_Int_Tables_number   1
_chemical_formula_structural   Pr2Mn3(SbS3)4
_chemical_formula_sum   'Pr4 Mn6 Sb8 S24'
_cell_volume   942.00006694
_cell_formula_units_Z   2
loop_
 _symmetry_equiv_pos_site_id
 _symmetry_equiv_pos_as_xyz
  1  'x, y, z'
loop_
 _atom_site_type_symbol
 _atom_site_label
 _atom_site_symmetry_multiplicity
 _atom_site_fract_x
 _atom_site_fract_y
 _atom_site_fract_z
 _atom_site_occupancy
  Pr  Pr0  1  0.27180293  0.49831041  0.87927464  1
  Pr  Pr1  1  0.72576718  0.53045061  0.12797157  1
  Pr  Pr2  1  0.76683966  0.02191141  0.87876264  1
  Pr  Pr3  1  0.22976059  0.95106275  0.12763292  1
  Mn  Mn4  1  0.29830850  0.43686092  0.61378951  1
  Mn  Mn5  1  0.69264311  0.47173459  0.36581907  1
  Mn  Mn6  1  0.00633188  0.97200749  0.01105849  1
  Mn  Mn7  1  0.80029485  0.03122919  0.62537269  1
  Mn  Mn8  1  0.20379441  0.04997427  0.38462736  1
  Mn  Mn9  1  0.48373384  0.49476384  0.97745923  1
  Sb  Sb10  1  0.88750286  0.96401983  0.44479818  1
  Sb  Sb11  1  0.11495055  0.98417967  0.54988713  1
  Sb  Sb12  1  0.04353652  0.52444388  0.83116359  1
  Sb  Sb13  1  0.97185869  0.49165992  0.19613260  1
  Sb  Sb14  1  0.40218178  0.53296270  0.44861994  1
  Sb  Sb15  1  0.60713234  0.47577674  0.53817008  1
  Sb  Sb16  1  0.52380547  0.97062956  0.79542968  1
  Sb  Sb17  1  0.46696457  0.03728506  0.17937146  1
  S  S18  1  0.93187190  0.00515942  0.79154478  1
  S  S19  1  0.05808777  0.98566762  0.19000794  1
  S  S20  1  0.41134100  0.99004973  0.96968604  1
  S  S21  1  0.57568993  0.01840553  0.99554744  1
  S  S22  1  0.16539394  0.00852785  0.90198118  1
  S  S23  1  0.82488992  0.96737033  0.10331560  1
  S  S24  1  0.09095813  0.45599834  0.64510514  1
  S  S25  1  0.91986668  0.45244997  0.36908296  1
  S  S26  1  0.73491786  0.97968841  0.30083142  1
  S  S27  1  0.26604941  0.94606446  0.69112719  1
  S  S28  1  0.17448649  0.54480741  0.44553881  1
  S  S29  1  0.81396977  0.49194136  0.54020263  1
  S  S30  1  0.43377767  0.46894815  0.79361529  1
  S  S31  1  0.55459096  0.48930096  0.16911861  1
  S  S32  1  0.91514170  0.48578363  0.98827432  1
  S  S33  1  0.08579061  0.42261480  0.02975272  1
  S  S34  1  0.66440409  0.49154190  0.88360881  1
  S  S35  1  0.32622372  0.46550517  0.10823292  1
  S  S36  1  0.59399578  0.99008583  0.63798527  1
  S  S37  1  0.40108215  0.01607525  0.33969732  1
  S  S38  1  0.24315545  0.49203108  0.30344416  1
  S  S39  1  0.76002170  0.47095541  0.69764921  1
  S  S40  1  0.66710011  0.98578747  0.44882987  1
  S  S41  1  0.33495292  0.92426851  0.56068306  1
