# generated using pymatgen
data_Pr2Mn3(SbS3)4
_symmetry_space_group_name_H-M   'P 1'
_cell_length_a   20.02960800
_cell_length_b   3.90410600
_cell_length_c   14.95364829
_cell_angle_alpha   90.00000000
_cell_angle_beta   126.33350609
_cell_angle_gamma   90.00000000
_symmetry_Int_Tables_number   1
_chemical_formula_structural   Pr2Mn3(SbS3)4
_chemical_formula_sum   'Pr4 Mn6 Sb8 S24'
_cell_volume   942.00006694
_cell_formula_units_Z   2
loop_
 _symmetry_equiv_pos_site_id
 _symmetry_equiv_pos_as_xyz
  1  'x, y, z'
loop_
 _atom_site_type_symbol
 _atom_site_label
 _atom_site_symmetry_multiplicity
 _atom_site_fract_x
 _atom_site_fract_y
 _atom_site_fract_z
 _atom_site_occupancy
  Pr  Pr0  1  0.27160554  0.49872688  0.87910507  1
  Pr  Pr1  1  0.72590002  0.53077694  0.12807682  1
  Pr  Pr2  1  0.76685544  0.02243939  0.87882094  1
  Pr  Pr3  1  0.22983034  0.95033658  0.12771805  1
  Mn  Mn4  1  0.29820496  0.43796546  0.61360632  1
  Mn  Mn5  1  0.69269677  0.47233608  0.36577863  1
  Mn  Mn6  1  0.00646654  0.97238239  0.01111852  1
  Mn  Mn7  1  0.80049152  0.03079384  0.62551220  1
  Mn  Mn8  1  0.20369888  0.05004755  0.38429774  1
  Mn  Mn9  1  0.48380976  0.49559797  0.97765262  1
  Sb  Sb10  1  0.88751035  0.96345166  0.44481603  1
  Sb  Sb11  1  0.11489662  0.98421691  0.54980475  1
  Sb  Sb12  1  0.04352082  0.52451091  0.83117915  1
  Sb  Sb13  1  0.97196663  0.49142277  0.19632753  1
  Sb  Sb14  1  0.40211812  0.53285374  0.44842702  1
  Sb  Sb15  1  0.60705383  0.47608562  0.53827177  1
  Sb  Sb16  1  0.52357895  0.97040180  0.79525937  1
  Sb  Sb17  1  0.46683758  0.03777329  0.17938691  1
  S  S18  1  0.93198737  0.00545728  0.79136714  1
  S  S19  1  0.05812279  0.98634971  0.18997678  1
  S  S20  1  0.41129078  0.99185531  0.96948285  1
  S  S21  1  0.57575124  0.01856940  0.99586756  1
  S  S22  1  0.16510802  0.00881335  0.90170734  1
  S  S23  1  0.82485881  0.96712344  0.10318777  1
  S  S24  1  0.09097799  0.45637532  0.64541740  1
  S  S25  1  0.91965546  0.45220379  0.36903731  1
  S  S26  1  0.73480956  0.97976861  0.30093440  1
  S  S27  1  0.26587125  0.94553154  0.69074030  1
  S  S28  1  0.17439655  0.54432585  0.44597371  1
  S  S29  1  0.81387379  0.49214354  0.54038949  1
  S  S30  1  0.43378689  0.46813310  0.79362927  1
  S  S31  1  0.55477858  0.48826641  0.16948648  1
  S  S32  1  0.91506403  0.48608684  0.98820014  1
  S  S33  1  0.08545685  0.42205128  0.02953995  1
  S  S34  1  0.66450524  0.49185208  0.88383876  1
  S  S35  1  0.32641496  0.46380425  0.10848677  1
  S  S36  1  0.59411890  0.98953987  0.63792871  1
  S  S37  1  0.40109223  0.01658665  0.33976598  1
  S  S38  1  0.24305095  0.49187419  0.30338116  1
  S  S39  1  0.76011289  0.47053150  0.69792165  1
  S  S40  1  0.66731265  0.98674536  0.44898175  1
  S  S41  1  0.33504530  0.92403827  0.56072201  1
