# generated using pymatgen
data_Pr2Mn3(SbS3)4
_symmetry_space_group_name_H-M   'P 1'
_cell_length_a   20.02960800
_cell_length_b   3.90410600
_cell_length_c   14.95364829
_cell_angle_alpha   90.00000000
_cell_angle_beta   126.33350609
_cell_angle_gamma   90.00000000
_symmetry_Int_Tables_number   1
_chemical_formula_structural   Pr2Mn3(SbS3)4
_chemical_formula_sum   'Pr4 Mn6 Sb8 S24'
_cell_volume   942.00006694
_cell_formula_units_Z   2
loop_
 _symmetry_equiv_pos_site_id
 _symmetry_equiv_pos_as_xyz
  1  'x, y, z'
loop_
 _atom_site_type_symbol
 _atom_site_label
 _atom_site_symmetry_multiplicity
 _atom_site_fract_x
 _atom_site_fract_y
 _atom_site_fract_z
 _atom_site_occupancy
  Pr  Pr0  1  0.27142007  0.49911170  0.87900518  1
  Pr  Pr1  1  0.72605171  0.53105128  0.12824716  1
  Pr  Pr2  1  0.76686039  0.02286004  0.87879986  1
  Pr  Pr3  1  0.22990365  0.94947036  0.12778153  1
  Mn  Mn4  1  0.29814098  0.43919780  0.61347279  1
  Mn  Mn5  1  0.69274089  0.47295448  0.36579413  1
  Mn  Mn6  1  0.00655351  0.97225332  0.01107726  1
  Mn  Mn7  1  0.80072852  0.03035680  0.62569673  1
  Mn  Mn8  1  0.20358275  0.05009443  0.38393874  1
  Mn  Mn9  1  0.48393662  0.49640084  0.97798933  1
  Sb  Sb10  1  0.88761544  0.96267380  0.44487540  1
  Sb  Sb11  1  0.11481878  0.98455016  0.54968064  1
  Sb  Sb12  1  0.04353203  0.52460018  0.83126780  1
  Sb  Sb13  1  0.97207444  0.49117807  0.19650504  1
  Sb  Sb14  1  0.40200508  0.53283771  0.44829063  1
  Sb  Sb15  1  0.60701707  0.47633757  0.53842060  1
  Sb  Sb16  1  0.52340135  0.97019205  0.79507499  1
  Sb  Sb17  1  0.46677606  0.03830876  0.17941628  1
  S  S18  1  0.93204337  0.00571933  0.79121458  1
  S  S19  1  0.05823722  0.98681564  0.18994459  1
  S  S20  1  0.41127200  0.99367215  0.96914932  1
  S  S21  1  0.57575271  0.01907232  0.99603224  1
  S  S22  1  0.16471308  0.00901706  0.90132000  1
  S  S23  1  0.82481908  0.96734593  0.10285530  1
  S  S24  1  0.09096936  0.45671048  0.64563535  1
  S  S25  1  0.91934037  0.45186155  0.36888773  1
  S  S26  1  0.73479279  0.97987718  0.30110727  1
  S  S27  1  0.26553031  0.94522444  0.69025299  1
  S  S28  1  0.17422157  0.54372723  0.44618790  1
  S  S29  1  0.81377302  0.49203327  0.54044580  1
  S  S30  1  0.43380145  0.46777572  0.79341109  1
  S  S31  1  0.55492447  0.48720718  0.16994102  1
  S  S32  1  0.91504545  0.48638311  0.98833737  1
  S  S33  1  0.08508250  0.42141125  0.02939900  1
  S  S34  1  0.66446019  0.49189547  0.88386752  1
  S  S35  1  0.32658609  0.46242427  0.10874977  1
  S  S36  1  0.59435108  0.98906761  0.63797071  1
  S  S37  1  0.40123299  0.01704321  0.33997358  1
  S  S38  1  0.24309087  0.49153836  0.30340718  1
  S  S39  1  0.76010176  0.46977451  0.69806909  1
  S  S40  1  0.66761194  0.98800888  0.44923849  1
  S  S41  1  0.33509104  0.92374459  0.56069854  1
