# generated using pymatgen
data_Pr2Mn3(SbS3)4
_symmetry_space_group_name_H-M   'P 1'
_cell_length_a   20.02960800
_cell_length_b   3.90410600
_cell_length_c   14.95364829
_cell_angle_alpha   90.00000000
_cell_angle_beta   126.33350609
_cell_angle_gamma   90.00000000
_symmetry_Int_Tables_number   1
_chemical_formula_structural   Pr2Mn3(SbS3)4
_chemical_formula_sum   'Pr4 Mn6 Sb8 S24'
_cell_volume   942.00006694
_cell_formula_units_Z   2
loop_
 _symmetry_equiv_pos_site_id
 _symmetry_equiv_pos_as_xyz
  1  'x, y, z'
loop_
 _atom_site_type_symbol
 _atom_site_label
 _atom_site_symmetry_multiplicity
 _atom_site_fract_x
 _atom_site_fract_y
 _atom_site_fract_z
 _atom_site_occupancy
  Pr  Pr0  1  0.27124418  0.49932012  0.87889543  1
  Pr  Pr1  1  0.72616088  0.53128895  0.12838212  1
  Pr  Pr2  1  0.76684603  0.02308905  0.87869623  1
  Pr  Pr3  1  0.23004237  0.94867427  0.12791704  1
  Mn  Mn4  1  0.29807945  0.44016611  0.61327505  1
  Mn  Mn5  1  0.69286234  0.47333782  0.36590552  1
  Mn  Mn6  1  0.00664872  0.97217461  0.01098711  1
  Mn  Mn7  1  0.80089883  0.02963089  0.62589722  1
  Mn  Mn8  1  0.20341033  0.05000289  0.38345993  1
  Mn  Mn9  1  0.48405672  0.49673196  0.97837175  1
  Sb  Sb10  1  0.88768976  0.96226189  0.44492169  1
  Sb  Sb11  1  0.11475341  0.98476203  0.54963348  1
  Sb  Sb12  1  0.04355132  0.52463126  0.83137077  1
  Sb  Sb13  1  0.97219701  0.49098429  0.19671606  1
  Sb  Sb14  1  0.40188392  0.53284711  0.44823470  1
  Sb  Sb15  1  0.60693023  0.47642215  0.53857888  1
  Sb  Sb16  1  0.52325275  0.97019285  0.79488330  1
  Sb  Sb17  1  0.46669584  0.03917128  0.17940779  1
  S  S18  1  0.93210590  0.00569860  0.79108916  1
  S  S19  1  0.05825021  0.98759253  0.18987228  1
  S  S20  1  0.41136654  0.99479697  0.96901120  1
  S  S21  1  0.57579056  0.01934438  0.99635900  1
  S  S22  1  0.16427885  0.00882201  0.90085084  1
  S  S23  1  0.82486466  0.96730799  0.10258371  1
  S  S24  1  0.09099053  0.45709330  0.64587349  1
  S  S25  1  0.91912784  0.45168272  0.36881643  1
  S  S26  1  0.73472433  0.98018735  0.30125075  1
  S  S27  1  0.26507683  0.94534560  0.68965520  1
  S  S28  1  0.17411252  0.54301074  0.44630672  1
  S  S29  1  0.81368488  0.49195606  0.54057078  1
  S  S30  1  0.43379003  0.46769465  0.79312285  1
  S  S31  1  0.55497325  0.48609296  0.17033791  1
  S  S32  1  0.91510767  0.48741360  0.98858306  1
  S  S33  1  0.08478555  0.42091143  0.02930814  1
  S  S34  1  0.66432169  0.49164046  0.88381825  1
  S  S35  1  0.32666687  0.46117772  0.10899688  1
  S  S36  1  0.59458732  0.98905487  0.63794749  1
  S  S37  1  0.40150262  0.01781909  0.34017033  1
  S  S38  1  0.24315231  0.49123158  0.30346593  1
  S  S39  1  0.76002381  0.46940162  0.69815134  1
  S  S40  1  0.66794753  0.98934064  0.44950305  1
  S  S41  1  0.33519409  0.92382004  0.56066790  1
