# generated using pymatgen
data_Pr2Mn3(SbS3)4
_symmetry_space_group_name_H-M   'P 1'
_cell_length_a   20.02960800
_cell_length_b   3.90410600
_cell_length_c   14.95364829
_cell_angle_alpha   90.00000000
_cell_angle_beta   126.33350609
_cell_angle_gamma   90.00000000
_symmetry_Int_Tables_number   1
_chemical_formula_structural   Pr2Mn3(SbS3)4
_chemical_formula_sum   'Pr4 Mn6 Sb8 S24'
_cell_volume   942.00006694
_cell_formula_units_Z   2
loop_
 _symmetry_equiv_pos_site_id
 _symmetry_equiv_pos_as_xyz
  1  'x, y, z'
loop_
 _atom_site_type_symbol
 _atom_site_label
 _atom_site_symmetry_multiplicity
 _atom_site_fract_x
 _atom_site_fract_y
 _atom_site_fract_z
 _atom_site_occupancy
  Pr  Pr0  1  0.27108932  0.49969767  0.87880035  1
  Pr  Pr1  1  0.72633521  0.53130035  0.12853878  1
  Pr  Pr2  1  0.76676830  0.02342648  0.87851007  1
  Pr  Pr3  1  0.23013116  0.94765442  0.12798782  1
  Mn  Mn4  1  0.29796545  0.44110340  0.61293478  1
  Mn  Mn5  1  0.69304937  0.47365257  0.36604163  1
  Mn  Mn6  1  0.00678327  0.97214946  0.01101027  1
  Mn  Mn7  1  0.80107500  0.02868344  0.62616731  1
  Mn  Mn8  1  0.20328823  0.05009950  0.38304962  1
  Mn  Mn9  1  0.48406515  0.49710835  0.97871732  1
  Sb  Sb10  1  0.88774214  0.96205715  0.44496457  1
  Sb  Sb11  1  0.11467172  0.98498881  0.54954948  1
  Sb  Sb12  1  0.04361653  0.52464138  0.83152520  1
  Sb  Sb13  1  0.97228901  0.49065906  0.19687516  1
  Sb  Sb14  1  0.40181643  0.53298065  0.44824946  1
  Sb  Sb15  1  0.60689805  0.47645870  0.53878241  1
  Sb  Sb16  1  0.52312123  0.97015925  0.79478502  1
  Sb  Sb17  1  0.46670307  0.04009715  0.17937672  1
  S  S18  1  0.93232023  0.00586528  0.79114138  1
  S  S19  1  0.05831549  0.98805173  0.18977070  1
  S  S20  1  0.41147169  0.99557849  0.96886990  1
  S  S21  1  0.57584626  0.01978388  0.99665780  1
  S  S22  1  0.16385864  0.00858451  0.90050318  1
  S  S23  1  0.82501647  0.96743903  0.10246497  1
  S  S24  1  0.09113663  0.45700799  0.64622017  1
  S  S25  1  0.91891544  0.45098305  0.36881785  1
  S  S26  1  0.73460234  0.98032922  0.30130122  1
  S  S27  1  0.26485028  0.94557607  0.68925459  1
  S  S28  1  0.17399375  0.54141607  0.44640270  1
  S  S29  1  0.81361039  0.49214424  0.54068403  1
  S  S30  1  0.43376023  0.46764345  0.79273143  1
  S  S31  1  0.55502379  0.48474008  0.17068775  1
  S  S32  1  0.91511412  0.48850766  0.98878752  1
  S  S33  1  0.08453836  0.42015072  0.02920108  1
  S  S34  1  0.66423352  0.49155206  0.88380103  1
  S  S35  1  0.32666828  0.45977155  0.10911937  1
  S  S36  1  0.59489979  0.98940734  0.63789670  1
  S  S37  1  0.40171911  0.01879943  0.34024402  1
  S  S38  1  0.24319090  0.49121865  0.30345894  1
  S  S39  1  0.75994321  0.46893911  0.69812126  1
  S  S40  1  0.66835290  0.99042742  0.44975618  1
  S  S41  1  0.33518050  0.92387681  0.56063810  1
