# generated using pymatgen
data_Pr2Mn3(SbS3)4
_symmetry_space_group_name_H-M   'P 1'
_cell_length_a   20.02960800
_cell_length_b   3.90410600
_cell_length_c   14.95364829
_cell_angle_alpha   90.00000000
_cell_angle_beta   126.33350609
_cell_angle_gamma   90.00000000
_symmetry_Int_Tables_number   1
_chemical_formula_structural   Pr2Mn3(SbS3)4
_chemical_formula_sum   'Pr4 Mn6 Sb8 S24'
_cell_volume   942.00006694
_cell_formula_units_Z   2
loop_
 _symmetry_equiv_pos_site_id
 _symmetry_equiv_pos_as_xyz
  1  'x, y, z'
loop_
 _atom_site_type_symbol
 _atom_site_label
 _atom_site_symmetry_multiplicity
 _atom_site_fract_x
 _atom_site_fract_y
 _atom_site_fract_z
 _atom_site_occupancy
  Pr  Pr0  1  0.27094974  0.50018376  0.87872461  1
  Pr  Pr1  1  0.72645595  0.53144697  0.12863507  1
  Pr  Pr2  1  0.76667230  0.02365417  0.87831694  1
  Pr  Pr3  1  0.23022157  0.94652661  0.12807003  1
  Mn  Mn4  1  0.29790447  0.44217897  0.61264823  1
  Mn  Mn5  1  0.69325250  0.47350298  0.36612074  1
  Mn  Mn6  1  0.00681605  0.97221421  0.01088366  1
  Mn  Mn7  1  0.80121832  0.02783783  0.62639807  1
  Mn  Mn8  1  0.20317606  0.05032017  0.38280035  1
  Mn  Mn9  1  0.48412550  0.49754134  0.97895690  1
  Sb  Sb10  1  0.88768909  0.96180734  0.44495648  1
  Sb  Sb11  1  0.11462672  0.98537098  0.54951060  1
  Sb  Sb12  1  0.04362801  0.52493876  0.83158954  1
  Sb  Sb13  1  0.97234117  0.49039618  0.19699356  1
  Sb  Sb14  1  0.40174948  0.53313959  0.44825555  1
  Sb  Sb15  1  0.60689221  0.47677598  0.53898236  1
  Sb  Sb16  1  0.52297966  0.97004509  0.79464735  1
  Sb  Sb17  1  0.46669296  0.04069342  0.17934796  1
  S  S18  1  0.93254248  0.00626797  0.79120392  1
  S  S19  1  0.05843627  0.98856047  0.18963772  1
  S  S20  1  0.41158640  0.99622777  0.96875721  1
  S  S21  1  0.57595732  0.01999456  0.99714599  1
  S  S22  1  0.16356709  0.00807491  0.90026845  1
  S  S23  1  0.82510490  0.96733794  0.10229940  1
  S  S24  1  0.09120949  0.45697834  0.64649390  1
  S  S25  1  0.91870212  0.45026605  0.36882555  1
  S  S26  1  0.73459454  0.98036572  0.30136349  1
  S  S27  1  0.26471706  0.94603309  0.68892437  1
  S  S28  1  0.17386154  0.53953178  0.44638559  1
  S  S29  1  0.81356022  0.49231123  0.54075535  1
  S  S30  1  0.43373849  0.46737656  0.79239227  1
  S  S31  1  0.55507620  0.48343891  0.17096520  1
  S  S32  1  0.91500712  0.48962451  0.98899300  1
  S  S33  1  0.08428064  0.41991110  0.02895241  1
  S  S34  1  0.66421456  0.49196962  0.88379372  1
  S  S35  1  0.32670453  0.45833996  0.10927352  1
  S  S36  1  0.59521005  0.98970766  0.63779654  1
  S  S37  1  0.40204518  0.01966696  0.34045825  1
  S  S38  1  0.24321369  0.49124798  0.30343483  1
  S  S39  1  0.75988958  0.46827557  0.69806830  1
  S  S40  1  0.66878052  0.99161795  0.45007226  1
  S  S41  1  0.33520883  0.92458180  0.56066354  1
