# generated using pymatgen
data_Pr2Mn3(SbS3)4
_symmetry_space_group_name_H-M   'P 1'
_cell_length_a   20.02960800
_cell_length_b   3.90410600
_cell_length_c   14.95364829
_cell_angle_alpha   90.00000000
_cell_angle_beta   126.33350609
_cell_angle_gamma   90.00000000
_symmetry_Int_Tables_number   1
_chemical_formula_structural   Pr2Mn3(SbS3)4
_chemical_formula_sum   'Pr4 Mn6 Sb8 S24'
_cell_volume   942.00006694
_cell_formula_units_Z   2
loop_
 _symmetry_equiv_pos_site_id
 _symmetry_equiv_pos_as_xyz
  1  'x, y, z'
loop_
 _atom_site_type_symbol
 _atom_site_label
 _atom_site_symmetry_multiplicity
 _atom_site_fract_x
 _atom_site_fract_y
 _atom_site_fract_z
 _atom_site_occupancy
  Pr  Pr0  1  0.26370891  0.48668962  0.86814985  1
  Pr  Pr1  1  0.73793960  0.50622468  0.13582147  1
  Pr  Pr2  1  0.76174121  0.00792659  0.86217700  1
  Pr  Pr3  1  0.23821939  0.99557321  0.14019612  1
  Mn  Mn4  1  0.29824046  0.50217341  0.61718805  1
  Mn  Mn5  1  0.69697397  0.50831769  0.38081540  1
  Mn  Mn6  1  0.00202931  0.99803961  0.99841013  1
  Mn  Mn7  1  0.80349089  0.99224145  0.61466983  1
  Mn  Mn8  1  0.19852817  0.97982627  0.37907430  1
  Mn  Mn9  1  0.50185649  0.48262025  0.99586820  1
  Sb  Sb10  1  0.89400098  0.00793362  0.45401711  1
  Sb  Sb11  1  0.10841336  0.97940684  0.55114055  1
  Sb  Sb12  1  0.03854213  0.48632961  0.81578216  1
  Sb  Sb13  1  0.96149920  0.51708848  0.18718834  1
  Sb  Sb14  1  0.39570492  0.48926284  0.45722878  1
  Sb  Sb15  1  0.60716406  0.50023137  0.54962370  1
  Sb  Sb16  1  0.53685290  0.00409250  0.81609143  1
  Sb  Sb17  1  0.46204462  0.00201725  0.18028104  1
  S  S18  1  0.93573245  0.97735642  0.79705403  1
  S  S19  1  0.06105987  0.00067934  0.19203258  1
  S  S20  1  0.40810812  0.99733744  0.97865809  1
  S  S21  1  0.59200522  0.99352929  0.01525715  1
  S  S22  1  0.17121747  0.99044078  0.90043824  1
  S  S23  1  0.82868498  0.01421368  0.10589889  1
  S  S24  1  0.08402524  0.48372715  0.64212717  1
  S  S25  1  0.91465145  0.48005826  0.36077076  1
  S  S26  1  0.74281442  0.94737369  0.29458328  1
  S  S27  1  0.25728726  0.99791606  0.70317227  1
  S  S28  1  0.16319270  0.49222346  0.44618760  1
  S  S29  1  0.83032303  0.48696916  0.54912226  1
  S  S30  1  0.43633913  0.51006826  0.80101476  1
  S  S31  1  0.56046580  0.51230953  0.19068373  1
  S  S32  1  0.90175499  0.48030890  0.97525809  1
  S  S33  1  0.08902730  0.48334139  0.01705806  1
  S  S34  1  0.66392839  0.50399826  0.89471037  1
  S  S35  1  0.33083414  0.51868271  0.10017081  1
  S  S36  1  0.59250458  0.01211731  0.65062613  1
  S  S37  1  0.41365388  0.97055200  0.35855096  1
  S  S38  1  0.24365188  0.47804720  0.29942982  1
  S  S39  1  0.76140447  0.50243597  0.69889679  1
  S  S40  1  0.66748609  0.01328740  0.46181988  1
  S  S41  1  0.33054234  0.98008595  0.54121411  1
