# generated using pymatgen
data_Pr2Mn3(SbS3)4
_symmetry_space_group_name_H-M   'P 1'
_cell_length_a   20.02960800
_cell_length_b   3.90410600
_cell_length_c   14.95364829
_cell_angle_alpha   90.00000000
_cell_angle_beta   126.33350609
_cell_angle_gamma   90.00000000
_symmetry_Int_Tables_number   1
_chemical_formula_structural   Pr2Mn3(SbS3)4
_chemical_formula_sum   'Pr4 Mn6 Sb8 S24'
_cell_volume   942.00006694
_cell_formula_units_Z   2
loop_
 _symmetry_equiv_pos_site_id
 _symmetry_equiv_pos_as_xyz
  1  'x, y, z'
loop_
 _atom_site_type_symbol
 _atom_site_label
 _atom_site_symmetry_multiplicity
 _atom_site_fract_x
 _atom_site_fract_y
 _atom_site_fract_z
 _atom_site_occupancy
  Pr  Pr0  1  0.27082842  0.50079966  0.87868626  1
  Pr  Pr1  1  0.72658033  0.53159575  0.12874629  1
  Pr  Pr2  1  0.76653122  0.02361858  0.87815219  1
  Pr  Pr3  1  0.23034658  0.94563458  0.12816809  1
  Mn  Mn4  1  0.29779561  0.44317663  0.61226049  1
  Mn  Mn5  1  0.69352013  0.47353693  0.36636019  1
  Mn  Mn6  1  0.00678141  0.97208604  0.01076976  1
  Mn  Mn7  1  0.80130277  0.02654275  0.62658644  1
  Mn  Mn8  1  0.20312000  0.05069922  0.38262027  1
  Mn  Mn9  1  0.48417178  0.49825556  0.97922786  1
  Sb  Sb10  1  0.88767851  0.96152174  0.44499048  1
  Sb  Sb11  1  0.11458279  0.98602942  0.54940262  1
  Sb  Sb12  1  0.04372606  0.52489039  0.83172604  1
  Sb  Sb13  1  0.97236956  0.49012936  0.19710432  1
  Sb  Sb14  1  0.40166632  0.53336943  0.44826383  1
  Sb  Sb15  1  0.60690789  0.47702463  0.53919110  1
  Sb  Sb16  1  0.52287623  0.97001513  0.79451321  1
  Sb  Sb17  1  0.46666012  0.04136647  0.17929820  1
  S  S18  1  0.93275582  0.00624574  0.79116165  1
  S  S19  1  0.05849555  0.98931606  0.18956286  1
  S  S20  1  0.41172532  0.99644478  0.96872074  1
  S  S21  1  0.57618259  0.01984459  0.99765000  1
  S  S22  1  0.16337564  0.00762133  0.90017868  1
  S  S23  1  0.82517162  0.96731003  0.10211179  1
  S  S24  1  0.09132769  0.45692947  0.64682148  1
  S  S25  1  0.91845627  0.44908841  0.36882883  1
  S  S26  1  0.73462683  0.97965266  0.30145612  1
  S  S27  1  0.26461830  0.94652763  0.68861128  1
  S  S28  1  0.17393240  0.53769596  0.44642191  1
  S  S29  1  0.81356501  0.49197961  0.54095376  1
  S  S30  1  0.43368390  0.46688665  0.79214052  1
  S  S31  1  0.55517649  0.48195185  0.17135596  1
  S  S32  1  0.91493947  0.49061684  0.98913969  1
  S  S33  1  0.08405744  0.42013564  0.02862000  1
  S  S34  1  0.66411007  0.49215847  0.88362935  1
  S  S35  1  0.32669210  0.45694151  0.10929275  1
  S  S36  1  0.59546721  0.99040969  0.63778295  1
  S  S37  1  0.40234957  0.02083799  0.34068123  1
  S  S38  1  0.24312020  0.49176159  0.30332656  1
  S  S39  1  0.75983653  0.46758078  0.69797426  1
  S  S40  1  0.66931358  0.99272057  0.45046975  1
  S  S41  1  0.33520208  0.92525873  0.56068328  1
