# generated using pymatgen
data_Pr2Mn3(SbS3)4
_symmetry_space_group_name_H-M   'P 1'
_cell_length_a   20.02960800
_cell_length_b   3.90410600
_cell_length_c   14.95364829
_cell_angle_alpha   90.00000000
_cell_angle_beta   126.33350609
_cell_angle_gamma   90.00000000
_symmetry_Int_Tables_number   1
_chemical_formula_structural   Pr2Mn3(SbS3)4
_chemical_formula_sum   'Pr4 Mn6 Sb8 S24'
_cell_volume   942.00006694
_cell_formula_units_Z   2
loop_
 _symmetry_equiv_pos_site_id
 _symmetry_equiv_pos_as_xyz
  1  'x, y, z'
loop_
 _atom_site_type_symbol
 _atom_site_label
 _atom_site_symmetry_multiplicity
 _atom_site_fract_x
 _atom_site_fract_y
 _atom_site_fract_z
 _atom_site_occupancy
  Pr  Pr0  1  0.27072410  0.50172721  0.87860269  1
  Pr  Pr1  1  0.72672683  0.53178306  0.12887140  1
  Pr  Pr2  1  0.76635916  0.02349176  0.87795252  1
  Pr  Pr3  1  0.23048955  0.94474412  0.12826351  1
  Mn  Mn4  1  0.29769252  0.44440953  0.61185272  1
  Mn  Mn5  1  0.69377951  0.47348729  0.36655981  1
  Mn  Mn6  1  0.00675358  0.97184202  0.01051810  1
  Mn  Mn7  1  0.80125834  0.02535896  0.62667494  1
  Mn  Mn8  1  0.20303680  0.05085677  0.38251526  1
  Mn  Mn9  1  0.48420364  0.49881411  0.97941427  1
  Sb  Sb10  1  0.88767999  0.96118279  0.44508246  1
  Sb  Sb11  1  0.11452758  0.98669046  0.54926000  1
  Sb  Sb12  1  0.04372392  0.52484122  0.83178078  1
  Sb  Sb13  1  0.97242843  0.48987554  0.19728120  1
  Sb  Sb14  1  0.40159012  0.53350203  0.44825739  1
  Sb  Sb15  1  0.60687124  0.47691394  0.53925429  1
  Sb  Sb16  1  0.52276070  0.97005533  0.79433849  1
  Sb  Sb17  1  0.46660809  0.04196740  0.17926817  1
  S  S18  1  0.93285363  0.00609536  0.79105605  1
  S  S19  1  0.05853746  0.99067372  0.18934227  1
  S  S20  1  0.41180081  0.99641106  0.96864616  1
  S  S21  1  0.57637188  0.02017843  0.99792635  1
  S  S22  1  0.16329062  0.00700985  0.90002092  1
  S  S23  1  0.82527242  0.96713937  0.10195631  1
  S  S24  1  0.09152737  0.45674042  0.64732976  1
  S  S25  1  0.91821471  0.44795460  0.36879212  1
  S  S26  1  0.73457505  0.97894256  0.30148519  1
  S  S27  1  0.26454368  0.94696834  0.68828262  1
  S  S28  1  0.17401306  0.53604502  0.44652881  1
  S  S29  1  0.81358023  0.49187800  0.54123677  1
  S  S30  1  0.43354311  0.46687355  0.79202471  1
  S  S31  1  0.55538967  0.48047168  0.17185184  1
  S  S32  1  0.91488702  0.49130635  0.98934410  1
  S  S33  1  0.08380951  0.42068420  0.02830040  1
  S  S34  1  0.66408841  0.49240600  0.88355209  1
  S  S35  1  0.32676325  0.45557649  0.10943072  1
  S  S36  1  0.59570282  0.99089789  0.63786222  1
  S  S37  1  0.40256420  0.02183966  0.34082426  1
  S  S38  1  0.24298547  0.49246384  0.30316859  1
  S  S39  1  0.75980663  0.46724201  0.69798444  1
  S  S40  1  0.66992375  0.99402624  0.45098748  1
  S  S41  1  0.33511716  0.92639163  0.56059356  1
