# generated using pymatgen
data_Pr2Mn3(SbS3)4
_symmetry_space_group_name_H-M   'P 1'
_cell_length_a   20.02960800
_cell_length_b   3.90410600
_cell_length_c   14.95364829
_cell_angle_alpha   90.00000000
_cell_angle_beta   126.33350609
_cell_angle_gamma   90.00000000
_symmetry_Int_Tables_number   1
_chemical_formula_structural   Pr2Mn3(SbS3)4
_chemical_formula_sum   'Pr4 Mn6 Sb8 S24'
_cell_volume   942.00006694
_cell_formula_units_Z   2
loop_
 _symmetry_equiv_pos_site_id
 _symmetry_equiv_pos_as_xyz
  1  'x, y, z'
loop_
 _atom_site_type_symbol
 _atom_site_label
 _atom_site_symmetry_multiplicity
 _atom_site_fract_x
 _atom_site_fract_y
 _atom_site_fract_z
 _atom_site_occupancy
  Pr  Pr0  1  0.27064190  0.50252415  0.87854901  1
  Pr  Pr1  1  0.72686834  0.53198954  0.12907743  1
  Pr  Pr2  1  0.76617439  0.02322028  0.87773480  1
  Pr  Pr3  1  0.23063054  0.94389483  0.12835412  1
  Mn  Mn4  1  0.29767054  0.44538142  0.61153204  1
  Mn  Mn5  1  0.69392950  0.47366070  0.36675664  1
  Mn  Mn6  1  0.00680403  0.97158423  0.01037252  1
  Mn  Mn7  1  0.80121505  0.02441529  0.62675658  1
  Mn  Mn8  1  0.20296747  0.05103881  0.38236577  1
  Mn  Mn9  1  0.48428279  0.49927789  0.97965229  1
  Sb  Sb10  1  0.88768240  0.96108529  0.44517827  1
  Sb  Sb11  1  0.11452497  0.98718783  0.54921682  1
  Sb  Sb12  1  0.04367984  0.52484035  0.83181652  1
  Sb  Sb13  1  0.97249523  0.48977654  0.19747935  1
  Sb  Sb14  1  0.40152408  0.53355766  0.44827667  1
  Sb  Sb15  1  0.60679416  0.47691000  0.53924275  1
  Sb  Sb16  1  0.52271238  0.96983881  0.79418404  1
  Sb  Sb17  1  0.46658279  0.04248488  0.17922758  1
  S  S18  1  0.93294784  0.00547292  0.79090885  1
  S  S19  1  0.05862196  0.99181578  0.18922169  1
  S  S20  1  0.41187471  0.99663793  0.96853268  1
  S  S21  1  0.57657083  0.02054816  0.99809763  1
  S  S22  1  0.16321329  0.00652554  0.89982090  1
  S  S23  1  0.82533923  0.96702737  0.10172831  1
  S  S24  1  0.09169330  0.45616884  0.64768316  1
  S  S25  1  0.91796442  0.44652698  0.36862549  1
  S  S26  1  0.73456756  0.97797660  0.30165598  1
  S  S27  1  0.26455353  0.94709452  0.68786805  1
  S  S28  1  0.17402277  0.53434443  0.44664050  1
  S  S29  1  0.81359062  0.49184614  0.54150053  1
  S  S30  1  0.43345306  0.46689035  0.79201140  1
  S  S31  1  0.55558815  0.47981072  0.17226189  1
  S  S32  1  0.91499971  0.49208494  0.98966761  1
  S  S33  1  0.08360893  0.42137184  0.02803008  1
  S  S34  1  0.66401392  0.49292713  0.88348533  1
  S  S35  1  0.32695358  0.45442119  0.10962373  1
  S  S36  1  0.59587657  0.99121910  0.63788761  1
  S  S37  1  0.40276303  0.02285822  0.34096623  1
  S  S38  1  0.24282039  0.49320870  0.30307232  1
  S  S39  1  0.75984017  0.46727861  0.69809556  1
  S  S40  1  0.67038160  0.99499540  0.45141722  1
  S  S41  1  0.33505784  0.92783200  0.56063764  1
