# generated using pymatgen
data_Pr2Mn3(SbS3)4
_symmetry_space_group_name_H-M   'P 1'
_cell_length_a   20.02960800
_cell_length_b   3.90410600
_cell_length_c   14.95364829
_cell_angle_alpha   90.00000000
_cell_angle_beta   126.33350609
_cell_angle_gamma   90.00000000
_symmetry_Int_Tables_number   1
_chemical_formula_structural   Pr2Mn3(SbS3)4
_chemical_formula_sum   'Pr4 Mn6 Sb8 S24'
_cell_volume   942.00006694
_cell_formula_units_Z   2
loop_
 _symmetry_equiv_pos_site_id
 _symmetry_equiv_pos_as_xyz
  1  'x, y, z'
loop_
 _atom_site_type_symbol
 _atom_site_label
 _atom_site_symmetry_multiplicity
 _atom_site_fract_x
 _atom_site_fract_y
 _atom_site_fract_z
 _atom_site_occupancy
  Pr  Pr0  1  0.27057206  0.50312911  0.87858668  1
  Pr  Pr1  1  0.72710624  0.53223130  0.12931597  1
  Pr  Pr2  1  0.76603464  0.02279604  0.87747770  1
  Pr  Pr3  1  0.23075304  0.94308722  0.12843779  1
  Mn  Mn4  1  0.29769069  0.44605343  0.61123444  1
  Mn  Mn5  1  0.69414981  0.47414373  0.36695945  1
  Mn  Mn6  1  0.00678740  0.97144839  0.01023976  1
  Mn  Mn7  1  0.80116247  0.02382559  0.62675195  1
  Mn  Mn8  1  0.20284199  0.05129826  0.38219548  1
  Mn  Mn9  1  0.48440667  0.49987091  0.97997897  1
  Sb  Sb10  1  0.88761181  0.96103462  0.44521246  1
  Sb  Sb11  1  0.11447548  0.98774410  0.54917203  1
  Sb  Sb12  1  0.04365619  0.52500375  0.83177900  1
  Sb  Sb13  1  0.97254873  0.48950202  0.19761780  1
  Sb  Sb14  1  0.40143844  0.53371418  0.44828709  1
  Sb  Sb15  1  0.60674205  0.47695461  0.53924321  1
  Sb  Sb16  1  0.52267779  0.96950475  0.79400888  1
  Sb  Sb17  1  0.46660657  0.04311283  0.17936107  1
  S  S18  1  0.93316444  0.00494452  0.79099120  1
  S  S19  1  0.05864905  0.99284355  0.18908279  1
  S  S20  1  0.41178713  0.99710735  0.96823453  1
  S  S21  1  0.57671687  0.02033185  0.99825121  1
  S  S22  1  0.16322087  0.00568742  0.89969000  1
  S  S23  1  0.82551950  0.96716921  0.10150331  1
  S  S24  1  0.09186180  0.45615117  0.64797512  1
  S  S25  1  0.91785480  0.44548105  0.36859754  1
  S  S26  1  0.73452848  0.97662441  0.30192032  1
  S  S27  1  0.26472541  0.94766061  0.68770975  1
  S  S28  1  0.17403302  0.53269832  0.44669937  1
  S  S29  1  0.81361820  0.49186028  0.54193819  1
  S  S30  1  0.43334846  0.46651883  0.79204030  1
  S  S31  1  0.55591624  0.47941795  0.17274897  1
  S  S32  1  0.91516992  0.49295701  0.99004101  1
  S  S33  1  0.08326877  0.42197928  0.02756672  1
  S  S34  1  0.66396460  0.49368918  0.88345628  1
  S  S35  1  0.32716736  0.45365316  0.10983523  1
  S  S36  1  0.59597563  0.99147800  0.63781645  1
  S  S37  1  0.40290469  0.02389032  0.34105646  1
  S  S38  1  0.24265366  0.49442398  0.30309111  1
  S  S39  1  0.75985147  0.46799162  0.69812041  1
  S  S40  1  0.67073424  0.99633810  0.45174489  1
  S  S41  1  0.33498036  0.92931526  0.56057380  1
