# generated using pymatgen
data_Pr2Mn3(SbS3)4
_symmetry_space_group_name_H-M   'P 1'
_cell_length_a   20.02960800
_cell_length_b   3.90410600
_cell_length_c   14.95364829
_cell_angle_alpha   90.00000000
_cell_angle_beta   126.33350609
_cell_angle_gamma   90.00000000
_symmetry_Int_Tables_number   1
_chemical_formula_structural   Pr2Mn3(SbS3)4
_chemical_formula_sum   'Pr4 Mn6 Sb8 S24'
_cell_volume   942.00006694
_cell_formula_units_Z   2
loop_
 _symmetry_equiv_pos_site_id
 _symmetry_equiv_pos_as_xyz
  1  'x, y, z'
loop_
 _atom_site_type_symbol
 _atom_site_label
 _atom_site_symmetry_multiplicity
 _atom_site_fract_x
 _atom_site_fract_y
 _atom_site_fract_z
 _atom_site_occupancy
  Pr  Pr0  1  0.27051483  0.50358698  0.87863172  1
  Pr  Pr1  1  0.72729368  0.53251117  0.12950038  1
  Pr  Pr2  1  0.76593576  0.02241920  0.87730042  1
  Pr  Pr3  1  0.23086733  0.94225848  0.12845749  1
  Mn  Mn4  1  0.29775169  0.44690448  0.61095024  1
  Mn  Mn5  1  0.69434216  0.47432631  0.36712309  1
  Mn  Mn6  1  0.00683612  0.97151849  0.01024450  1
  Mn  Mn7  1  0.80111765  0.02314794  0.62669536  1
  Mn  Mn8  1  0.20270235  0.05142922  0.38211337  1
  Mn  Mn9  1  0.48450681  0.50029881  0.98031710  1
  Sb  Sb10  1  0.88752128  0.96115540  0.44526329  1
  Sb  Sb11  1  0.11449290  0.98819353  0.54924235  1
  Sb  Sb12  1  0.04357720  0.52499894  0.83166025  1
  Sb  Sb13  1  0.97250018  0.48915767  0.19771283  1
  Sb  Sb14  1  0.40135876  0.53392876  0.44829707  1
  Sb  Sb15  1  0.60672296  0.47714519  0.53919087  1
  Sb  Sb16  1  0.52266175  0.96918225  0.79384354  1
  Sb  Sb17  1  0.46669426  0.04364588  0.17958474  1
  S  S18  1  0.93330956  0.00469490  0.79100281  1
  S  S19  1  0.05863178  0.99403218  0.18888127  1
  S  S20  1  0.41169567  0.99710129  0.96797552  1
  S  S21  1  0.57690502  0.02011059  0.99825088  1
  S  S22  1  0.16324851  0.00545190  0.89957692  1
  S  S23  1  0.82562757  0.96733637  0.10117431  1
  S  S24  1  0.09201948  0.45624134  0.64821895  1
  S  S25  1  0.91778550  0.44412805  0.36862954  1
  S  S26  1  0.73444964  0.97526690  0.30206876  1
  S  S27  1  0.26485510  0.94788998  0.68745515  1
  S  S28  1  0.17396874  0.53069706  0.44660189  1
  S  S29  1  0.81354916  0.49200468  0.54224257  1
  S  S30  1  0.43323349  0.46585772  0.79217995  1
  S  S31  1  0.55613567  0.47931912  0.17311356  1
  S  S32  1  0.91529018  0.49403816  0.99056724  1
  S  S33  1  0.08290098  0.42284337  0.02713705  1
  S  S34  1  0.66384848  0.49500684  0.88345969  1
  S  S35  1  0.32729328  0.45302617  0.10995641  1
  S  S36  1  0.59603352  0.99194313  0.63769582  1
  S  S37  1  0.40316358  0.02478038  0.34121390  1
  S  S38  1  0.24250787  0.49572780  0.30319405  1
  S  S39  1  0.75975600  0.46860758  0.69799818  1
  S  S40  1  0.67104483  0.99793705  0.45200647  1
  S  S41  1  0.33485127  0.93083747  0.56055482  1
