# generated using pymatgen
data_Pr2Mn3(SbS3)4
_symmetry_space_group_name_H-M   'P 1'
_cell_length_a   20.02960800
_cell_length_b   3.90410600
_cell_length_c   14.95364829
_cell_angle_alpha   90.00000000
_cell_angle_beta   126.33350609
_cell_angle_gamma   90.00000000
_symmetry_Int_Tables_number   1
_chemical_formula_structural   Pr2Mn3(SbS3)4
_chemical_formula_sum   'Pr4 Mn6 Sb8 S24'
_cell_volume   942.00006694
_cell_formula_units_Z   2
loop_
 _symmetry_equiv_pos_site_id
 _symmetry_equiv_pos_as_xyz
  1  'x, y, z'
loop_
 _atom_site_type_symbol
 _atom_site_label
 _atom_site_symmetry_multiplicity
 _atom_site_fract_x
 _atom_site_fract_y
 _atom_site_fract_z
 _atom_site_occupancy
  Pr  Pr0  1  0.27043613  0.50392593  0.87867995  1
  Pr  Pr1  1  0.72754196  0.53277073  0.12976916  1
  Pr  Pr2  1  0.76583329  0.02203655  0.87712743  1
  Pr  Pr3  1  0.23096758  0.94170668  0.12844898  1
  Mn  Mn4  1  0.29784772  0.44761218  0.61064533  1
  Mn  Mn5  1  0.69454743  0.47422602  0.36728862  1
  Mn  Mn6  1  0.00680403  0.97174958  0.01024449  1
  Mn  Mn7  1  0.80108034  0.02269259  0.62667035  1
  Mn  Mn8  1  0.20255479  0.05163898  0.38214423  1
  Mn  Mn9  1  0.48460906  0.50066852  0.98072428  1
  Sb  Sb10  1  0.88744205  0.96135598  0.44530663  1
  Sb  Sb11  1  0.11451526  0.98847745  0.54933239  1
  Sb  Sb12  1  0.04354187  0.52516718  0.83156560  1
  Sb  Sb13  1  0.97244434  0.48891927  0.19772225  1
  Sb  Sb14  1  0.40139015  0.53409140  0.44843375  1
  Sb  Sb15  1  0.60675242  0.47737219  0.53919666  1
  Sb  Sb16  1  0.52263332  0.96873520  0.79365498  1
  Sb  Sb17  1  0.46686918  0.04415542  0.17990922  1
  S  S18  1  0.93337547  0.00419569  0.79104113  1
  S  S19  1  0.05856106  0.99539010  0.18868307  1
  S  S20  1  0.41150284  0.99743734  0.96765054  1
  S  S21  1  0.57704319  0.02010957  0.99827006  1
  S  S22  1  0.16325574  0.00523787  0.89945576  1
  S  S23  1  0.82576107  0.96749404  0.10088894  1
  S  S24  1  0.09231670  0.45647669  0.64857399  1
  S  S25  1  0.91767526  0.44315693  0.36853102  1
  S  S26  1  0.73428782  0.97355873  0.30209266  1
  S  S27  1  0.26486920  0.94783852  0.68715094  1
  S  S28  1  0.17394959  0.52892561  0.44648697  1
  S  S29  1  0.81345995  0.49233722  0.54237435  1
  S  S30  1  0.43311950  0.46489816  0.79230329  1
  S  S31  1  0.55621911  0.47923354  0.17337919  1
  S  S32  1  0.91530321  0.49556991  0.99086264  1
  S  S33  1  0.08264678  0.42420648  0.02664259  1
  S  S34  1  0.66375724  0.49578938  0.88336198  1
  S  S35  1  0.32739594  0.45272776  0.10995928  1
  S  S36  1  0.59603488  0.99289872  0.63767070  1
  S  S37  1  0.40341500  0.02575699  0.34141185  1
  S  S38  1  0.24234352  0.49682819  0.30323715  1
  S  S39  1  0.75975886  0.46906661  0.69786731  1
  S  S40  1  0.67137066  0.99887149  0.45229644  1
  S  S41  1  0.33473211  0.93235176  0.56056261  1
