# generated using pymatgen
data_Pr2Mn3(SbS3)4
_symmetry_space_group_name_H-M   'P 1'
_cell_length_a   20.02960800
_cell_length_b   3.90410600
_cell_length_c   14.95364829
_cell_angle_alpha   90.00000000
_cell_angle_beta   126.33350609
_cell_angle_gamma   90.00000000
_symmetry_Int_Tables_number   1
_chemical_formula_structural   Pr2Mn3(SbS3)4
_chemical_formula_sum   'Pr4 Mn6 Sb8 S24'
_cell_volume   942.00006694
_cell_formula_units_Z   2
loop_
 _symmetry_equiv_pos_site_id
 _symmetry_equiv_pos_as_xyz
  1  'x, y, z'
loop_
 _atom_site_type_symbol
 _atom_site_label
 _atom_site_symmetry_multiplicity
 _atom_site_fract_x
 _atom_site_fract_y
 _atom_site_fract_z
 _atom_site_occupancy
  Pr  Pr0  1  0.27042271  0.50403253  0.87881977  1
  Pr  Pr1  1  0.72779318  0.53283001  0.13001654  1
  Pr  Pr2  1  0.76571733  0.02160742  0.87693213  1
  Pr  Pr3  1  0.23108212  0.94109647  0.12842372  1
  Mn  Mn4  1  0.29792691  0.44822380  0.61032302  1
  Mn  Mn5  1  0.69468679  0.47420766  0.36740802  1
  Mn  Mn6  1  0.00682583  0.97198504  0.01009902  1
  Mn  Mn7  1  0.80106077  0.02210335  0.62661522  1
  Mn  Mn8  1  0.20249421  0.05199203  0.38216967  1
  Mn  Mn9  1  0.48470794  0.50118303  0.98097710  1
  Sb  Sb10  1  0.88735827  0.96136941  0.44532426  1
  Sb  Sb11  1  0.11451430  0.98896479  0.54944668  1
  Sb  Sb12  1  0.04353069  0.52516885  0.83146718  1
  Sb  Sb13  1  0.97231756  0.48897170  0.19762309  1
  Sb  Sb14  1  0.40144712  0.53423297  0.44858312  1
  Sb  Sb15  1  0.60673045  0.47779474  0.53915157  1
  Sb  Sb16  1  0.52264655  0.96829733  0.79353393  1
  Sb  Sb17  1  0.46700542  0.04458432  0.18020001  1
  S  S18  1  0.93339739  0.00333681  0.79111416  1
  S  S19  1  0.05855162  0.99656449  0.18852123  1
  S  S20  1  0.41130070  0.99776196  0.96734124  1
  S  S21  1  0.57711193  0.02028712  0.99825268  1
  S  S22  1  0.16328917  0.00500167  0.89922301  1
  S  S23  1  0.82595548  0.96733765  0.10062876  1
  S  S24  1  0.09243940  0.45647773  0.64895315  1
  S  S25  1  0.91763965  0.44248918  0.36842996  1
  S  S26  1  0.73406379  0.97192865  0.30206235  1
  S  S27  1  0.26490772  0.94782987  0.68684674  1
  S  S28  1  0.17385082  0.52662194  0.44641897  1
  S  S29  1  0.81330938  0.49249852  0.54255513  1
  S  S30  1  0.43291035  0.46406722  0.79247633  1
  S  S31  1  0.55629824  0.47926896  0.17382098  1
  S  S32  1  0.91521671  0.49703866  0.99107402  1
  S  S33  1  0.08248207  0.42572394  0.02620771  1
  S  S34  1  0.66373054  0.49646796  0.88335339  1
  S  S35  1  0.32747032  0.45251055  0.10984491  1
  S  S36  1  0.59625719  0.99358916  0.63770341  1
  S  S37  1  0.40369545  0.02652599  0.34158534  1
  S  S38  1  0.24220538  0.49755352  0.30350759  1
  S  S39  1  0.75977912  0.46978026  0.69789284  1
  S  S40  1  0.67164841  0.99930623  0.45250170  1
  S  S41  1  0.33458005  0.93369873  0.56061852  1
