# generated using pymatgen
data_Pr2Mn3(SbS3)4
_symmetry_space_group_name_H-M   'P 1'
_cell_length_a   20.02960800
_cell_length_b   3.90410600
_cell_length_c   14.95364829
_cell_angle_alpha   90.00000000
_cell_angle_beta   126.33350609
_cell_angle_gamma   90.00000000
_symmetry_Int_Tables_number   1
_chemical_formula_structural   Pr2Mn3(SbS3)4
_chemical_formula_sum   'Pr4 Mn6 Sb8 S24'
_cell_volume   942.00006694
_cell_formula_units_Z   2
loop_
 _symmetry_equiv_pos_site_id
 _symmetry_equiv_pos_as_xyz
  1  'x, y, z'
loop_
 _atom_site_type_symbol
 _atom_site_label
 _atom_site_symmetry_multiplicity
 _atom_site_fract_x
 _atom_site_fract_y
 _atom_site_fract_z
 _atom_site_occupancy
  Pr  Pr0  1  0.27040139  0.50379138  0.87890774  1
  Pr  Pr1  1  0.72804498  0.53276159  0.13020582  1
  Pr  Pr2  1  0.76564947  0.02105554  0.87680052  1
  Pr  Pr3  1  0.23125258  0.94058597  0.12843210  1
  Mn  Mn4  1  0.29796103  0.44867403  0.61001470  1
  Mn  Mn5  1  0.69474320  0.47420111  0.36738216  1
  Mn  Mn6  1  0.00692006  0.97214087  0.01006136  1
  Mn  Mn7  1  0.80107873  0.02154376  0.62660272  1
  Mn  Mn8  1  0.20249990  0.05247946  0.38233729  1
  Mn  Mn9  1  0.48474578  0.50183696  0.98108111  1
  Sb  Sb10  1  0.88721321  0.96164833  0.44534795  1
  Sb  Sb11  1  0.11450208  0.98923985  0.54955126  1
  Sb  Sb12  1  0.04351596  0.52526165  0.83149376  1
  Sb  Sb13  1  0.97224077  0.48877348  0.19760584  1
  Sb  Sb14  1  0.40156807  0.53450980  0.44875276  1
  Sb  Sb15  1  0.60669801  0.47824471  0.53908458  1
  Sb  Sb16  1  0.52261702  0.96807164  0.79349075  1
  Sb  Sb17  1  0.46711989  0.04513492  0.18047142  1
  S  S18  1  0.93349978  0.00220014  0.79123992  1
  S  S19  1  0.05853781  0.99738757  0.18829331  1
  S  S20  1  0.41110246  0.99833495  0.96700869  1
  S  S21  1  0.57726488  0.02022304  0.99818348  1
  S  S22  1  0.16330287  0.00525430  0.89906765  1
  S  S23  1  0.82614458  0.96710795  0.10053825  1
  S  S24  1  0.09259461  0.45615587  0.64933500  1
  S  S25  1  0.91766827  0.44173018  0.36850478  1
  S  S26  1  0.73393809  0.97109045  0.30199409  1
  S  S27  1  0.26499950  0.94796381  0.68651470  1
  S  S28  1  0.17379948  0.52453248  0.44631187  1
  S  S29  1  0.81308640  0.49263328  0.54265533  1
  S  S30  1  0.43279507  0.46347957  0.79270785  1
  S  S31  1  0.55643442  0.47899834  0.17428614  1
  S  S32  1  0.91519013  0.49842909  0.99129308  1
  S  S33  1  0.08224556  0.42770486  0.02572670  1
  S  S34  1  0.66371891  0.49748251  0.88344242  1
  S  S35  1  0.32753931  0.45193053  0.10966675  1
  S  S36  1  0.59650484  0.99409873  0.63771984  1
  S  S37  1  0.40392511  0.02773245  0.34158051  1
  S  S38  1  0.24209204  0.49775636  0.30378155  1
  S  S39  1  0.75982974  0.47080056  0.69797284  1
  S  S40  1  0.67189044  0.99940724  0.45268932  1
  S  S41  1  0.33454924  0.93511099  0.56069477  1
