# generated using pymatgen
data_Pr2Mn3(SbS3)4
_symmetry_space_group_name_H-M   'P 1'
_cell_length_a   20.02960800
_cell_length_b   3.90410600
_cell_length_c   14.95364829
_cell_angle_alpha   90.00000000
_cell_angle_beta   126.33350609
_cell_angle_gamma   90.00000000
_symmetry_Int_Tables_number   1
_chemical_formula_structural   Pr2Mn3(SbS3)4
_chemical_formula_sum   'Pr4 Mn6 Sb8 S24'
_cell_volume   942.00006694
_cell_formula_units_Z   2
loop_
 _symmetry_equiv_pos_site_id
 _symmetry_equiv_pos_as_xyz
  1  'x, y, z'
loop_
 _atom_site_type_symbol
 _atom_site_label
 _atom_site_symmetry_multiplicity
 _atom_site_fract_x
 _atom_site_fract_y
 _atom_site_fract_z
 _atom_site_occupancy
  Pr  Pr0  1  0.27041860  0.50347269  0.87901715  1
  Pr  Pr1  1  0.72823746  0.53267623  0.13035943  1
  Pr  Pr2  1  0.76560128  0.02063131  0.87664303  1
  Pr  Pr3  1  0.23143075  0.94019568  0.12849593  1
  Mn  Mn4  1  0.29803285  0.44878815  0.60984856  1
  Mn  Mn5  1  0.69483619  0.47415992  0.36739686  1
  Mn  Mn6  1  0.00705221  0.97240773  0.01009241  1
  Mn  Mn7  1  0.80115060  0.02096426  0.62655030  1
  Mn  Mn8  1  0.20254319  0.05288715  0.38248138  1
  Mn  Mn9  1  0.48477967  0.50229070  0.98121130  1
  Sb  Sb10  1  0.88701337  0.96168771  0.44531158  1
  Sb  Sb11  1  0.11447376  0.98952505  0.54963406  1
  Sb  Sb12  1  0.04351681  0.52528002  0.83145480  1
  Sb  Sb13  1  0.97218550  0.48874818  0.19762335  1
  Sb  Sb14  1  0.40166677  0.53462833  0.44898442  1
  Sb  Sb15  1  0.60669430  0.47875775  0.53901594  1
  Sb  Sb16  1  0.52257117  0.96772157  0.79348397  1
  Sb  Sb17  1  0.46726907  0.04569467  0.18067487  1
  S  S18  1  0.93366839  0.00082967  0.79138173  1
  S  S19  1  0.05850958  0.99800759  0.18803215  1
  S  S20  1  0.41094279  0.99865920  0.96671801  1
  S  S21  1  0.57749796  0.02016103  0.99820633  1
  S  S22  1  0.16344546  0.00543931  0.89894525  1
  S  S23  1  0.82627147  0.96745506  0.10046380  1
  S  S24  1  0.09272923  0.45538036  0.64976420  1
  S  S25  1  0.91776647  0.44117267  0.36862798  1
  S  S26  1  0.73385595  0.97051526  0.30190911  1
  S  S27  1  0.26502193  0.94811240  0.68626076  1
  S  S28  1  0.17366635  0.52296133  0.44612007  1
  S  S29  1  0.81295052  0.49324815  0.54281016  1
  S  S30  1  0.43261305  0.46283363  0.79286041  1
  S  S31  1  0.55656351  0.47906703  0.17469258  1
  S  S32  1  0.91515074  0.50004030  0.99151135  1
  S  S33  1  0.08195034  0.42957883  0.02529127  1
  S  S34  1  0.66374707  0.49834617  0.88365396  1
  S  S35  1  0.32768367  0.45163316  0.10946785  1
  S  S36  1  0.59679188  0.99449580  0.63785273  1
  S  S37  1  0.40401962  0.02912058  0.34135645  1
  S  S38  1  0.24201474  0.49803843  0.30403751  1
  S  S39  1  0.75978475  0.47132880  0.69796750  1
  S  S40  1  0.67210501  0.99978918  0.45285609  1
  S  S41  1  0.33446862  0.93678589  0.56074335  1
