# generated using pymatgen
data_Pr2Mn3(SbS3)4
_symmetry_space_group_name_H-M   'P 1'
_cell_length_a   20.02960800
_cell_length_b   3.90410600
_cell_length_c   14.95364829
_cell_angle_alpha   90.00000000
_cell_angle_beta   126.33350609
_cell_angle_gamma   90.00000000
_symmetry_Int_Tables_number   1
_chemical_formula_structural   Pr2Mn3(SbS3)4
_chemical_formula_sum   'Pr4 Mn6 Sb8 S24'
_cell_volume   942.00006694
_cell_formula_units_Z   2
loop_
 _symmetry_equiv_pos_site_id
 _symmetry_equiv_pos_as_xyz
  1  'x, y, z'
loop_
 _atom_site_type_symbol
 _atom_site_label
 _atom_site_symmetry_multiplicity
 _atom_site_fract_x
 _atom_site_fract_y
 _atom_site_fract_z
 _atom_site_occupancy
  Pr  Pr0  1  0.27043453  0.50314035  0.87910697  1
  Pr  Pr1  1  0.72845068  0.53261979  0.13058273  1
  Pr  Pr2  1  0.76550213  0.02024861  0.87647537  1
  Pr  Pr3  1  0.23156892  0.93985827  0.12859486  1
  Mn  Mn4  1  0.29809482  0.44883300  0.60971383  1
  Mn  Mn5  1  0.69491274  0.47432551  0.36750175  1
  Mn  Mn6  1  0.00726875  0.97275294  0.01024409  1
  Mn  Mn7  1  0.80125446  0.02039527  0.62649053  1
  Mn  Mn8  1  0.20260229  0.05343558  0.38258719  1
  Mn  Mn9  1  0.48481666  0.50228903  0.98117485  1
  Sb  Sb10  1  0.88685828  0.96172542  0.44532436  1
  Sb  Sb11  1  0.11444311  0.98984523  0.54969691  1
  Sb  Sb12  1  0.04343384  0.52549600  0.83133094  1
  Sb  Sb13  1  0.97212222  0.48869406  0.19763657  1
  Sb  Sb14  1  0.40174768  0.53465439  0.44924561  1
  Sb  Sb15  1  0.60668629  0.47926526  0.53903577  1
  Sb  Sb16  1  0.52253297  0.96746809  0.79354541  1
  Sb  Sb17  1  0.46742303  0.04626466  0.18081252  1
  S  S18  1  0.93379477  0.99932985  0.79137466  1
  S  S19  1  0.05845358  0.99851893  0.18775556  1
  S  S20  1  0.41085357  0.99862440  0.96648175  1
  S  S21  1  0.57770626  0.01955108  0.99818066  1
  S  S22  1  0.16366864  0.00515309  0.89874812  1
  S  S23  1  0.82642663  0.96707440  0.10040141  1
  S  S24  1  0.09282218  0.45489336  0.65023463  1
  S  S25  1  0.91787724  0.44064840  0.36886154  1
  S  S26  1  0.73378306  0.97026839  0.30182533  1
  S  S27  1  0.26499422  0.94862137  0.68607737  1
  S  S28  1  0.17357037  0.52158827  0.44587934  1
  S  S29  1  0.81277428  0.49385502  0.54292190  1
  S  S30  1  0.43241329  0.46253749  0.79296879  1
  S  S31  1  0.55671628  0.47950686  0.17499140  1
  S  S32  1  0.91508195  0.50182927  0.99162447  1
  S  S33  1  0.08178243  0.43107536  0.02503830  1
  S  S34  1  0.66375451  0.49939486  0.88395063  1
  S  S35  1  0.32785710  0.45147516  0.10931083  1
  S  S36  1  0.59689722  0.99468360  0.63780700  1
  S  S37  1  0.40416084  0.03036776  0.34135016  1
  S  S38  1  0.24192271  0.49844787  0.30429900  1
  S  S39  1  0.75977665  0.47201170  0.69783734  1
  S  S40  1  0.67214884  0.00056415  0.45293974  1
  S  S41  1  0.33433383  0.93878297  0.56071608  1
