# generated using pymatgen
data_Pr2Mn3(SbS3)4
_symmetry_space_group_name_H-M   'P 1'
_cell_length_a   20.02960800
_cell_length_b   3.90410600
_cell_length_c   14.95364829
_cell_angle_alpha   90.00000000
_cell_angle_beta   126.33350609
_cell_angle_gamma   90.00000000
_symmetry_Int_Tables_number   1
_chemical_formula_structural   Pr2Mn3(SbS3)4
_chemical_formula_sum   'Pr4 Mn6 Sb8 S24'
_cell_volume   942.00006694
_cell_formula_units_Z   2
loop_
 _symmetry_equiv_pos_site_id
 _symmetry_equiv_pos_as_xyz
  1  'x, y, z'
loop_
 _atom_site_type_symbol
 _atom_site_label
 _atom_site_symmetry_multiplicity
 _atom_site_fract_x
 _atom_site_fract_y
 _atom_site_fract_z
 _atom_site_occupancy
  Pr  Pr0  1  0.26400835  0.48586114  0.86843854  1
  Pr  Pr1  1  0.73776457  0.50647962  0.13562542  1
  Pr  Pr2  1  0.76183083  0.00818860  0.86207086  1
  Pr  Pr3  1  0.23814958  0.99620028  0.14023897  1
  Mn  Mn4  1  0.29811065  0.50219822  0.61687286  1
  Mn  Mn5  1  0.69686396  0.50803113  0.38071639  1
  Mn  Mn6  1  0.00200158  0.99770532  0.99822623  1
  Mn  Mn7  1  0.80350622  0.99185532  0.61478703  1
  Mn  Mn8  1  0.19857453  0.97932845  0.37918658  1
  Mn  Mn9  1  0.50179344  0.48153442  0.99556861  1
  Sb  Sb10  1  0.89389296  0.00758307  0.45394670  1
  Sb  Sb11  1  0.10851534  0.97927657  0.55122261  1
  Sb  Sb12  1  0.03858383  0.48668875  0.81575883  1
  Sb  Sb13  1  0.96152001  0.51778354  0.18708925  1
  Sb  Sb14  1  0.39576870  0.49008763  0.45720910  1
  Sb  Sb15  1  0.60713066  0.50017168  0.54959210  1
  Sb  Sb16  1  0.53687401  0.00414425  0.81618229  1
  Sb  Sb17  1  0.46200756  0.00214511  0.18021910  1
  S  S18  1  0.93553118  0.97787853  0.79682189  1
  S  S19  1  0.06125096  0.00008315  0.19207262  1
  S  S20  1  0.40827108  0.99773625  0.97852226  1
  S  S21  1  0.59189495  0.99301509  0.01538924  1
  S  S22  1  0.17104070  0.99053146  0.89991551  1
  S  S23  1  0.82857313  0.01459979  0.10564143  1
  S  S24  1  0.08408351  0.48196540  0.64201297  1
  S  S25  1  0.91472100  0.48078310  0.36060001  1
  S  S26  1  0.74269515  0.94657022  0.29433701  1
  S  S27  1  0.25738475  0.99817244  0.70321781  1
  S  S28  1  0.16319918  0.49190481  0.44596672  1
  S  S29  1  0.83037526  0.48608958  0.54948775  1
  S  S30  1  0.43631940  0.50996324  0.80126830  1
  S  S31  1  0.56056735  0.51389707  0.19058909  1
  S  S32  1  0.90187626  0.48131127  0.97551072  1
  S  S33  1  0.08875408  0.48389287  0.01704440  1
  S  S34  1  0.66382387  0.50442605  0.89457560  1
  S  S35  1  0.33055781  0.51944466  0.09994209  1
  S  S36  1  0.59237880  0.01144930  0.65061117  1
  S  S37  1  0.41365419  0.96892233  0.35852540  1
  S  S38  1  0.24356604  0.47946956  0.29974151  1
  S  S39  1  0.76102783  0.50216407  0.69850861  1
  S  S40  1  0.66786248  0.01326649  0.46182706  1
  S  S41  1  0.33045587  0.98019080  0.54120236  1
