# generated using pymatgen
data_Pr2Mn3(SbS3)4
_symmetry_space_group_name_H-M   'P 1'
_cell_length_a   20.02960800
_cell_length_b   3.90410600
_cell_length_c   14.95364829
_cell_angle_alpha   90.00000000
_cell_angle_beta   126.33350609
_cell_angle_gamma   90.00000000
_symmetry_Int_Tables_number   1
_chemical_formula_structural   Pr2Mn3(SbS3)4
_chemical_formula_sum   'Pr4 Mn6 Sb8 S24'
_cell_volume   942.00006694
_cell_formula_units_Z   2
loop_
 _symmetry_equiv_pos_site_id
 _symmetry_equiv_pos_as_xyz
  1  'x, y, z'
loop_
 _atom_site_type_symbol
 _atom_site_label
 _atom_site_symmetry_multiplicity
 _atom_site_fract_x
 _atom_site_fract_y
 _atom_site_fract_z
 _atom_site_occupancy
  Pr  Pr0  1  0.27047623  0.50281110  0.87923819  1
  Pr  Pr1  1  0.72859735  0.53266348  0.13078044  1
  Pr  Pr2  1  0.76535989  0.02000373  0.87632061  1
  Pr  Pr3  1  0.23167652  0.93995501  0.12860964  1
  Mn  Mn4  1  0.29816832  0.44847463  0.60956363  1
  Mn  Mn5  1  0.69497338  0.47439311  0.36756970  1
  Mn  Mn6  1  0.00747654  0.97294222  0.01042746  1
  Mn  Mn7  1  0.80132596  0.01992101  0.62648347  1
  Mn  Mn8  1  0.20262830  0.05358740  0.38268169  1
  Mn  Mn9  1  0.48483613  0.50190822  0.98100305  1
  Sb  Sb10  1  0.88678551  0.96139240  0.44541372  1
  Sb  Sb11  1  0.11443435  0.99011534  0.54977838  1
  Sb  Sb12  1  0.04334914  0.52541390  0.83121932  1
  Sb  Sb13  1  0.97206035  0.48828799  0.19762564  1
  Sb  Sb14  1  0.40194389  0.53475590  0.44962366  1
  Sb  Sb15  1  0.60666111  0.47972740  0.53903627  1
  Sb  Sb16  1  0.52249671  0.96709360  0.79359542  1
  Sb  Sb17  1  0.46756452  0.04669782  0.18090215  1
  S  S18  1  0.93401597  0.99784760  0.79140324  1
  S  S19  1  0.05836537  0.99911461  0.18747419  1
  S  S20  1  0.41081134  0.99853064  0.96627604  1
  S  S21  1  0.57782515  0.01921889  0.99811788  1
  S  S22  1  0.16383909  0.00440692  0.89861170  1
  S  S23  1  0.82656027  0.96705453  0.10029043  1
  S  S24  1  0.09287569  0.45473781  0.65059921  1
  S  S25  1  0.91804877  0.44032142  0.36924552  1
  S  S26  1  0.73361985  0.97027363  0.30182760  1
  S  S27  1  0.26497636  0.94913717  0.68587887  1
  S  S28  1  0.17350454  0.52027617  0.44570616  1
  S  S29  1  0.81257715  0.49449180  0.54302224  1
  S  S30  1  0.43227050  0.46217762  0.79306217  1
  S  S31  1  0.55712449  0.47950916  0.17549002  1
  S  S32  1  0.91496420  0.50364628  0.99164789  1
  S  S33  1  0.08161947  0.43245311  0.02467916  1
  S  S34  1  0.66372892  0.50057260  0.88430020  1
  S  S35  1  0.32798131  0.45173778  0.10909504  1
  S  S36  1  0.59706338  0.99477308  0.63786659  1
  S  S37  1  0.40427802  0.03130646  0.34134366  1
  S  S38  1  0.24189767  0.49898655  0.30474758  1
  S  S39  1  0.75972646  0.47273988  0.69769125  1
  S  S40  1  0.67210248  0.00148757  0.45293356  1
  S  S41  1  0.33427201  0.94043378  0.56076708  1
