# generated using pymatgen
data_Pr2Mn3(SbS3)4
_symmetry_space_group_name_H-M   'P 1'
_cell_length_a   20.02960800
_cell_length_b   3.90410600
_cell_length_c   14.95364829
_cell_angle_alpha   90.00000000
_cell_angle_beta   126.33350609
_cell_angle_gamma   90.00000000
_symmetry_Int_Tables_number   1
_chemical_formula_structural   Pr2Mn3(SbS3)4
_chemical_formula_sum   'Pr4 Mn6 Sb8 S24'
_cell_volume   942.00006694
_cell_formula_units_Z   2
loop_
 _symmetry_equiv_pos_site_id
 _symmetry_equiv_pos_as_xyz
  1  'x, y, z'
loop_
 _atom_site_type_symbol
 _atom_site_label
 _atom_site_symmetry_multiplicity
 _atom_site_fract_x
 _atom_site_fract_y
 _atom_site_fract_z
 _atom_site_occupancy
  Pr  Pr0  1  0.27049209  0.50242201  0.87934815  1
  Pr  Pr1  1  0.72873049  0.53260343  0.13093805  1
  Pr  Pr2  1  0.76519503  0.01994544  0.87620203  1
  Pr  Pr3  1  0.23173683  0.94005278  0.12859910  1
  Mn  Mn4  1  0.29832092  0.44776207  0.60950549  1
  Mn  Mn5  1  0.69495231  0.47424529  0.36763610  1
  Mn  Mn6  1  0.00767384  0.97327764  0.01049404  1
  Mn  Mn7  1  0.80141513  0.01933159  0.62658885  1
  Mn  Mn8  1  0.20262218  0.05345021  0.38273513  1
  Mn  Mn9  1  0.48478328  0.50171190  0.98076388  1
  Sb  Sb10  1  0.88675511  0.96106282  0.44551039  1
  Sb  Sb11  1  0.11441592  0.99030066  0.54991384  1
  Sb  Sb12  1  0.04327356  0.52535985  0.83106139  1
  Sb  Sb13  1  0.97198323  0.48787937  0.19762332  1
  Sb  Sb14  1  0.40216992  0.53497089  0.45002094  1
  Sb  Sb15  1  0.60665778  0.47990634  0.53908845  1
  Sb  Sb16  1  0.52250040  0.96677598  0.79365053  1
  Sb  Sb17  1  0.46772827  0.04698538  0.18105171  1
  S  S18  1  0.93414115  0.99701917  0.79141395  1
  S  S19  1  0.05820546  0.99929350  0.18717628  1
  S  S20  1  0.41082779  0.99815397  0.96609423  1
  S  S21  1  0.57799164  0.01825705  0.99804585  1
  S  S22  1  0.16406312  0.00384796  0.89842597  1
  S  S23  1  0.82665138  0.96687454  0.10018282  1
  S  S24  1  0.09286691  0.45542237  0.65094121  1
  S  S25  1  0.91816557  0.44031029  0.36955695  1
  S  S26  1  0.73332898  0.97060195  0.30167112  1
  S  S27  1  0.26510288  0.94951007  0.68571642  1
  S  S28  1  0.17348460  0.51946102  0.44559541  1
  S  S29  1  0.81238536  0.49528536  0.54305834  1
  S  S30  1  0.43211333  0.46226572  0.79315162  1
  S  S31  1  0.55762239  0.47949638  0.17604331  1
  S  S32  1  0.91477195  0.50532435  0.99161450  1
  S  S33  1  0.08145511  0.43357176  0.02450695  1
  S  S34  1  0.66368768  0.50209115  0.88444430  1
  S  S35  1  0.32815694  0.45193452  0.10892335  1
  S  S36  1  0.59718465  0.99489253  0.63783481  1
  S  S37  1  0.40447939  0.03208241  0.34135590  1
  S  S38  1  0.24174452  0.49864709  0.30498975  1
  S  S39  1  0.75953482  0.47320484  0.69736664  1
  S  S40  1  0.67214676  0.00260554  0.45296962  1
  S  S41  1  0.33424322  0.94175128  0.56085689  1
