# generated using pymatgen
data_Pr2Mn3(SbS3)4
_symmetry_space_group_name_H-M   'P 1'
_cell_length_a   20.02960800
_cell_length_b   3.90410600
_cell_length_c   14.95364829
_cell_angle_alpha   90.00000000
_cell_angle_beta   126.33350609
_cell_angle_gamma   90.00000000
_symmetry_Int_Tables_number   1
_chemical_formula_structural   Pr2Mn3(SbS3)4
_chemical_formula_sum   'Pr4 Mn6 Sb8 S24'
_cell_volume   942.00006694
_cell_formula_units_Z   2
loop_
 _symmetry_equiv_pos_site_id
 _symmetry_equiv_pos_as_xyz
  1  'x, y, z'
loop_
 _atom_site_type_symbol
 _atom_site_label
 _atom_site_symmetry_multiplicity
 _atom_site_fract_x
 _atom_site_fract_y
 _atom_site_fract_z
 _atom_site_occupancy
  Pr  Pr0  1  0.27050167  0.50251999  0.87949689  1
  Pr  Pr1  1  0.72873322  0.53299567  0.13096203  1
  Pr  Pr2  1  0.76505635  0.01970221  0.87607728  1
  Pr  Pr3  1  0.23181311  0.94031184  0.12860494  1
  Mn  Mn4  1  0.29850257  0.44641438  0.60951804  1
  Mn  Mn5  1  0.69486946  0.47417844  0.36763830  1
  Mn  Mn6  1  0.00786809  0.97372624  0.01048643  1
  Mn  Mn7  1  0.80151482  0.01896399  0.62666720  1
  Mn  Mn8  1  0.20265876  0.05331969  0.38289525  1
  Mn  Mn9  1  0.48464055  0.50143981  0.98051211  1
  Sb  Sb10  1  0.88666358  0.96083655  0.44556223  1
  Sb  Sb11  1  0.11438046  0.99036057  0.54993246  1
  Sb  Sb12  1  0.04323382  0.52497080  0.83096073  1
  Sb  Sb13  1  0.97186866  0.48748488  0.19760854  1
  Sb  Sb14  1  0.40238994  0.53526025  0.45036310  1
  Sb  Sb15  1  0.60670705  0.48037151  0.53916839  1
  Sb  Sb16  1  0.52249034  0.96641263  0.79366364  1
  Sb  Sb17  1  0.46786697  0.04706228  0.18117736  1
  S  S18  1  0.93428303  0.99549833  0.79158203  1
  S  S19  1  0.05796937  0.99921983  0.18673975  1
  S  S20  1  0.41094512  0.99734128  0.96598565  1
  S  S21  1  0.57824282  0.01711492  0.99809304  1
  S  S22  1  0.16426233  0.00318686  0.89833664  1
  S  S23  1  0.82657007  0.96650294  0.09996166  1
  S  S24  1  0.09282649  0.45584700  0.65130632  1
  S  S25  1  0.91824665  0.44050855  0.36997962  1
  S  S26  1  0.73300001  0.97147450  0.30147416  1
  S  S27  1  0.26525989  0.94999062  0.68563083  1
  S  S28  1  0.17339168  0.51832388  0.44535575  1
  S  S29  1  0.81231418  0.49625516  0.54300788  1
  S  S30  1  0.43203963  0.46266936  0.79325536  1
  S  S31  1  0.55809654  0.48008059  0.17650851  1
  S  S32  1  0.91456808  0.50679252  0.99148926  1
  S  S33  1  0.08132979  0.43513392  0.02436617  1
  S  S34  1  0.66383273  0.50382200  0.88477140  1
  S  S35  1  0.32846840  0.45202310  0.10883404  1
  S  S36  1  0.59735303  0.99467107  0.63776362  1
  S  S37  1  0.40468707  0.03250016  0.34135941  1
  S  S38  1  0.24175436  0.49872104  0.30532573  1
  S  S39  1  0.75952354  0.47365442  0.69716703  1
  S  S40  1  0.67208707  0.00406650  0.45294073  1
  S  S41  1  0.33404240  0.94291999  0.56086997  1
