# generated using pymatgen
data_Pr2Mn3(SbS3)4
_symmetry_space_group_name_H-M   'P 1'
_cell_length_a   20.02960800
_cell_length_b   3.90410600
_cell_length_c   14.95364829
_cell_angle_alpha   90.00000000
_cell_angle_beta   126.33350609
_cell_angle_gamma   90.00000000
_symmetry_Int_Tables_number   1
_chemical_formula_structural   Pr2Mn3(SbS3)4
_chemical_formula_sum   'Pr4 Mn6 Sb8 S24'
_cell_volume   942.00006694
_cell_formula_units_Z   2
loop_
 _symmetry_equiv_pos_site_id
 _symmetry_equiv_pos_as_xyz
  1  'x, y, z'
loop_
 _atom_site_type_symbol
 _atom_site_label
 _atom_site_symmetry_multiplicity
 _atom_site_fract_x
 _atom_site_fract_y
 _atom_site_fract_z
 _atom_site_occupancy
  Pr  Pr0  1  0.27046027  0.50259742  0.87958335  1
  Pr  Pr1  1  0.72873998  0.53332041  0.13093822  1
  Pr  Pr2  1  0.76491140  0.01965347  0.87596648  1
  Pr  Pr3  1  0.23182158  0.94061629  0.12856295  1
  Mn  Mn4  1  0.29862635  0.44501935  0.60945211  1
  Mn  Mn5  1  0.69481627  0.47438494  0.36763305  1
  Mn  Mn6  1  0.00804662  0.97408149  0.01043082  1
  Mn  Mn7  1  0.80159914  0.01914152  0.62666336  1
  Mn  Mn8  1  0.20267878  0.05317872  0.38302763  1
  Mn  Mn9  1  0.48453065  0.50127072  0.98037967  1
  Sb  Sb10  1  0.88670221  0.96060636  0.44568758  1
  Sb  Sb11  1  0.11439720  0.99049483  0.55000926  1
  Sb  Sb12  1  0.04318014  0.52476426  0.83084486  1
  Sb  Sb13  1  0.97182580  0.48717853  0.19768294  1
  Sb  Sb14  1  0.40252886  0.53562857  0.45063964  1
  Sb  Sb15  1  0.60681530  0.48089181  0.53925825  1
  Sb  Sb16  1  0.52249871  0.96583527  0.79374122  1
  Sb  Sb17  1  0.46800874  0.04708147  0.18126598  1
  S  S18  1  0.93452045  0.99399364  0.79185666  1
  S  S19  1  0.05765794  0.99898383  0.18627901  1
  S  S20  1  0.41108410  0.99660495  0.96593543  1
  S  S21  1  0.57859309  0.01613647  0.99829785  1
  S  S22  1  0.16439232  0.00244297  0.89821066  1
  S  S23  1  0.82654106  0.96630391  0.09969690  1
  S  S24  1  0.09289430  0.45602909  0.65170316  1
  S  S25  1  0.91820218  0.44106565  0.37025612  1
  S  S26  1  0.73277288  0.97240595  0.30141939  1
  S  S27  1  0.26536480  0.95090236  0.68539809  1
  S  S28  1  0.17332742  0.51757678  0.44520898  1
  S  S29  1  0.81221173  0.49674749  0.54304719  1
  S  S30  1  0.43190517  0.46306850  0.79324811  1
  S  S31  1  0.55854535  0.48061482  0.17712171  1
  S  S32  1  0.91445502  0.50844871  0.99138608  1
  S  S33  1  0.08109218  0.43661909  0.02405543  1
  S  S34  1  0.66394970  0.50522663  0.88504479  1
  S  S35  1  0.32872934  0.45222398  0.10874459  1
  S  S36  1  0.59758802  0.99438581  0.63786912  1
  S  S37  1  0.40480436  0.03259222  0.34145040  1
  S  S38  1  0.24184323  0.49849141  0.30570114  1
  S  S39  1  0.75959294  0.47398275  0.69707598  1
  S  S40  1  0.67203237  0.00611141  0.45293960  1
  S  S41  1  0.33388616  0.94428033  0.56081025  1
