# generated using pymatgen
data_Pr2Mn3(SbS3)4
_symmetry_space_group_name_H-M   'P 1'
_cell_length_a   20.02960800
_cell_length_b   3.90410600
_cell_length_c   14.95364829
_cell_angle_alpha   90.00000000
_cell_angle_beta   126.33350609
_cell_angle_gamma   90.00000000
_symmetry_Int_Tables_number   1
_chemical_formula_structural   Pr2Mn3(SbS3)4
_chemical_formula_sum   'Pr4 Mn6 Sb8 S24'
_cell_volume   942.00006694
_cell_formula_units_Z   2
loop_
 _symmetry_equiv_pos_site_id
 _symmetry_equiv_pos_as_xyz
  1  'x, y, z'
loop_
 _atom_site_type_symbol
 _atom_site_label
 _atom_site_symmetry_multiplicity
 _atom_site_fract_x
 _atom_site_fract_y
 _atom_site_fract_z
 _atom_site_occupancy
  Pr  Pr0  1  0.27042966  0.50257915  0.87969152  1
  Pr  Pr1  1  0.72875095  0.53362005  0.13096655  1
  Pr  Pr2  1  0.76474134  0.01957085  0.87589087  1
  Pr  Pr3  1  0.23185138  0.94089288  0.12853477  1
  Mn  Mn4  1  0.29873117  0.44394594  0.60940428  1
  Mn  Mn5  1  0.69471858  0.47455863  0.36763220  1
  Mn  Mn6  1  0.00819660  0.97451217  0.01040164  1
  Mn  Mn7  1  0.80173200  0.01905477  0.62670307  1
  Mn  Mn8  1  0.20278468  0.05316069  0.38313856  1
  Mn  Mn9  1  0.48441710  0.50099320  0.98019436  1
  Sb  Sb10  1  0.88667655  0.96052014  0.44579255  1
  Sb  Sb11  1  0.11436032  0.99053725  0.55002951  1
  Sb  Sb12  1  0.04315607  0.52477354  0.83082235  1
  Sb  Sb13  1  0.97183202  0.48669805  0.19777613  1
  Sb  Sb14  1  0.40275265  0.53604073  0.45095274  1
  Sb  Sb15  1  0.60691573  0.48138736  0.53932857  1
  Sb  Sb16  1  0.52246448  0.96547793  0.79378064  1
  Sb  Sb17  1  0.46812421  0.04723745  0.18128750  1
  S  S18  1  0.93473164  0.99285319  0.79208792  1
  S  S19  1  0.05725189  0.99913452  0.18576977  1
  S  S20  1  0.41121402  0.99599222  0.96592529  1
  S  S21  1  0.57895599  0.01501642  0.99860627  1
  S  S22  1  0.16455689  0.00164402  0.89821890  1
  S  S23  1  0.82665894  0.96589205  0.09969464  1
  S  S24  1  0.09298400  0.45583610  0.65215724  1
  S  S25  1  0.91812674  0.44189741  0.37054440  1
  S  S26  1  0.73257623  0.97290376  0.30137397  1
  S  S27  1  0.26538447  0.95135011  0.68510158  1
  S  S28  1  0.17335600  0.51701259  0.44514893  1
  S  S29  1  0.81219625  0.49669747  0.54310727  1
  S  S30  1  0.43180557  0.46328524  0.79325324  1
  S  S31  1  0.55889052  0.48050032  0.17768119  1
  S  S32  1  0.91435772  0.50976336  0.99121746  1
  S  S33  1  0.08097869  0.43771293  0.02378058  1
  S  S34  1  0.66398645  0.50647428  0.88525895  1
  S  S35  1  0.32904963  0.45267814  0.10866779  1
  S  S36  1  0.59787351  0.99427547  0.63808420  1
  S  S37  1  0.40494297  0.03252016  0.34158491  1
  S  S38  1  0.24198068  0.49798536  0.30619103  1
  S  S39  1  0.75970628  0.47432391  0.69690139  1
  S  S40  1  0.67204144  0.00785004  0.45297847  1
  S  S41  1  0.33359860  0.94593533  0.56063407  1
