# generated using pymatgen
data_Pr2Mn3(SbS3)4
_symmetry_space_group_name_H-M   'P 1'
_cell_length_a   20.02960800
_cell_length_b   3.90410600
_cell_length_c   14.95364829
_cell_angle_alpha   90.00000000
_cell_angle_beta   126.33350609
_cell_angle_gamma   90.00000000
_symmetry_Int_Tables_number   1
_chemical_formula_structural   Pr2Mn3(SbS3)4
_chemical_formula_sum   'Pr4 Mn6 Sb8 S24'
_cell_volume   942.00006694
_cell_formula_units_Z   2
loop_
 _symmetry_equiv_pos_site_id
 _symmetry_equiv_pos_as_xyz
  1  'x, y, z'
loop_
 _atom_site_type_symbol
 _atom_site_label
 _atom_site_symmetry_multiplicity
 _atom_site_fract_x
 _atom_site_fract_y
 _atom_site_fract_z
 _atom_site_occupancy
  Pr  Pr0  1  0.27039301  0.50268642  0.87973658  1
  Pr  Pr1  1  0.72876439  0.53391695  0.13100355  1
  Pr  Pr2  1  0.76454960  0.01935508  0.87576781  1
  Pr  Pr3  1  0.23190358  0.94125702  0.12850100  1
  Mn  Mn4  1  0.29883534  0.44296671  0.60935059  1
  Mn  Mn5  1  0.69456172  0.47515638  0.36757043  1
  Mn  Mn6  1  0.00836634  0.97486315  0.01034215  1
  Mn  Mn7  1  0.80179381  0.01857859  0.62666224  1
  Mn  Mn8  1  0.20294359  0.05311818  0.38317836  1
  Mn  Mn9  1  0.48428053  0.50061670  0.98005756  1
  Sb  Sb10  1  0.88665361  0.96033140  0.44591745  1
  Sb  Sb11  1  0.11430717  0.99036084  0.54996646  1
  Sb  Sb12  1  0.04314539  0.52474047  0.83073758  1
  Sb  Sb13  1  0.97185506  0.48640203  0.19785671  1
  Sb  Sb14  1  0.40298162  0.53665653  0.45131496  1
  Sb  Sb15  1  0.60699677  0.48184534  0.53939008  1
  Sb  Sb16  1  0.52245057  0.96499786  0.79384878  1
  Sb  Sb17  1  0.46826818  0.04693391  0.18134887  1
  S  S18  1  0.93492692  0.99208708  0.79235932  1
  S  S19  1  0.05695541  0.99935985  0.18550933  1
  S  S20  1  0.41132514  0.99585588  0.96598133  1
  S  S21  1  0.57924675  0.01373415  0.99877547  1
  S  S22  1  0.16481681  0.00101626  0.89828392  1
  S  S23  1  0.82686735  0.96563362  0.09969210  1
  S  S24  1  0.09310903  0.45589990  0.65263593  1
  S  S25  1  0.91813101  0.44211841  0.37080286  1
  S  S26  1  0.73222473  0.97329638  0.30127534  1
  S  S27  1  0.26543896  0.95183754  0.68492441  1
  S  S28  1  0.17342896  0.51679640  0.44521877  1
  S  S29  1  0.81217276  0.49686214  0.54319813  1
  S  S30  1  0.43166522  0.46363204  0.79309009  1
  S  S31  1  0.55912675  0.48050489  0.17810158  1
  S  S32  1  0.91426307  0.51124465  0.99108760  1
  S  S33  1  0.08092983  0.43888075  0.02347560  1
  S  S34  1  0.66405899  0.50726047  0.88567452  1
  S  S35  1  0.32932267  0.45294023  0.10854490  1
  S  S36  1  0.59817567  0.99458561  0.63832422  1
  S  S37  1  0.40506031  0.03274468  0.34168793  1
  S  S38  1  0.24212852  0.49758724  0.30656604  1
  S  S39  1  0.75980951  0.47454926  0.69676719  1
  S  S40  1  0.67208484  0.00944348  0.45300214  1
  S  S41  1  0.33335436  0.94744508  0.56055057  1
