# generated using pymatgen
data_Pr2Mn3(SbS3)4
_symmetry_space_group_name_H-M   'P 1'
_cell_length_a   20.02960800
_cell_length_b   3.90410600
_cell_length_c   14.95364829
_cell_angle_alpha   90.00000000
_cell_angle_beta   126.33350609
_cell_angle_gamma   90.00000000
_symmetry_Int_Tables_number   1
_chemical_formula_structural   Pr2Mn3(SbS3)4
_chemical_formula_sum   'Pr4 Mn6 Sb8 S24'
_cell_volume   942.00006694
_cell_formula_units_Z   2
loop_
 _symmetry_equiv_pos_site_id
 _symmetry_equiv_pos_as_xyz
  1  'x, y, z'
loop_
 _atom_site_type_symbol
 _atom_site_label
 _atom_site_symmetry_multiplicity
 _atom_site_fract_x
 _atom_site_fract_y
 _atom_site_fract_z
 _atom_site_occupancy
  Pr  Pr0  1  0.27037988  0.50267059  0.87976902  1
  Pr  Pr1  1  0.72873612  0.53399569  0.13103623  1
  Pr  Pr2  1  0.76440627  0.01960722  0.87563439  1
  Pr  Pr3  1  0.23202417  0.94193866  0.12851538  1
  Mn  Mn4  1  0.29902024  0.44186243  0.60934317  1
  Mn  Mn5  1  0.69426297  0.47523759  0.36733611  1
  Mn  Mn6  1  0.00847870  0.97510075  0.01020639  1
  Mn  Mn7  1  0.80183815  0.01837198  0.62669423  1
  Mn  Mn8  1  0.20297207  0.05328741  0.38324781  1
  Mn  Mn9  1  0.48417160  0.50036545  0.98002774  1
  Sb  Sb10  1  0.88666332  0.96014870  0.44602632  1
  Sb  Sb11  1  0.11421634  0.99023022  0.54986091  1
  Sb  Sb12  1  0.04305339  0.52447067  0.83051853  1
  Sb  Sb13  1  0.97192255  0.48597429  0.19797269  1
  Sb  Sb14  1  0.40319211  0.53719565  0.45175483  1
  Sb  Sb15  1  0.60700449  0.48218118  0.53943835  1
  Sb  Sb16  1  0.52238429  0.96489789  0.79385207  1
  Sb  Sb17  1  0.46844214  0.04674496  0.18143443  1
  S  S18  1  0.93494905  0.99199793  0.79238836  1
  S  S19  1  0.05680246  0.99985900  0.18533438  1
  S  S20  1  0.41161244  0.99609848  0.96612757  1
  S  S21  1  0.57955059  0.01214779  0.99898597  1
  S  S22  1  0.16513977  0.00090272  0.89838543  1
  S  S23  1  0.82703972  0.96528827  0.09981880  1
  S  S24  1  0.09329903  0.45647980  0.65312227  1
  S  S25  1  0.91815719  0.44217652  0.37095182  1
  S  S26  1  0.73195708  0.97349417  0.30120096  1
  S  S27  1  0.26545783  0.95164843  0.68495336  1
  S  S28  1  0.17357312  0.51676530  0.44531336  1
  S  S29  1  0.81213508  0.49630041  0.54332293  1
  S  S30  1  0.43164743  0.46418538  0.79284206  1
  S  S31  1  0.55944271  0.47982634  0.17854838  1
  S  S32  1  0.91421007  0.51250479  0.99087342  1
  S  S33  1  0.08086658  0.44021157  0.02317378  1
  S  S34  1  0.66412993  0.50834298  0.88614694  1
  S  S35  1  0.32972712  0.45300042  0.10863305  1
  S  S36  1  0.59850987  0.99526694  0.63859730  1
  S  S37  1  0.40520099  0.03278909  0.34168641  1
  S  S38  1  0.24232089  0.49702812  0.30698482  1
  S  S39  1  0.76000101  0.47497400  0.69681442  1
  S  S40  1  0.67210066  0.01065262  0.45288241  1
  S  S41  1  0.33308067  0.94893657  0.56043114  1
