# generated using pymatgen
data_Pr2Mn3(SbS3)4
_symmetry_space_group_name_H-M   'P 1'
_cell_length_a   20.02960800
_cell_length_b   3.90410600
_cell_length_c   14.95364829
_cell_angle_alpha   90.00000000
_cell_angle_beta   126.33350609
_cell_angle_gamma   90.00000000
_symmetry_Int_Tables_number   1
_chemical_formula_structural   Pr2Mn3(SbS3)4
_chemical_formula_sum   'Pr4 Mn6 Sb8 S24'
_cell_volume   942.00006694
_cell_formula_units_Z   2
loop_
 _symmetry_equiv_pos_site_id
 _symmetry_equiv_pos_as_xyz
  1  'x, y, z'
loop_
 _atom_site_type_symbol
 _atom_site_label
 _atom_site_symmetry_multiplicity
 _atom_site_fract_x
 _atom_site_fract_y
 _atom_site_fract_z
 _atom_site_occupancy
  Pr  Pr0  1  0.27038370  0.50273649  0.87983005  1
  Pr  Pr1  1  0.72867967  0.53401639  0.13105167  1
  Pr  Pr2  1  0.76424230  0.01998572  0.87542246  1
  Pr  Pr3  1  0.23216905  0.94248263  0.12861982  1
  Mn  Mn4  1  0.29918324  0.44078588  0.60939607  1
  Mn  Mn5  1  0.69397637  0.47537420  0.36720458  1
  Mn  Mn6  1  0.00856122  0.97525933  0.01001805  1
  Mn  Mn7  1  0.80194931  0.01800560  0.62669808  1
  Mn  Mn8  1  0.20297861  0.05365732  0.38330678  1
  Mn  Mn9  1  0.48414450  0.50046035  0.98005870  1
  Sb  Sb10  1  0.88661898  0.96004847  0.44603643  1
  Sb  Sb11  1  0.11416444  0.99013248  0.54978822  1
  Sb  Sb12  1  0.04296603  0.52396726  0.83029046  1
  Sb  Sb13  1  0.97198381  0.48553041  0.19802733  1
  Sb  Sb14  1  0.40338029  0.53777064  0.45212421  1
  Sb  Sb15  1  0.60696323  0.48252978  0.53943844  1
  Sb  Sb16  1  0.52223997  0.96481826  0.79382699  1
  Sb  Sb17  1  0.46853014  0.04663085  0.18139477  1
  S  S18  1  0.93509007  0.99143381  0.79252331  1
  S  S19  1  0.05664406  0.00077251  0.18516087  1
  S  S20  1  0.41185608  0.99572870  0.96631568  1
  S  S21  1  0.57984489  0.01032970  0.99911100  1
  S  S22  1  0.16540097  0.00046576  0.89848430  1
  S  S23  1  0.82719826  0.96458883  0.09984961  1
  S  S24  1  0.09349125  0.45700161  0.65352969  1
  S  S25  1  0.91816203  0.44193221  0.37104207  1
  S  S26  1  0.73172915  0.97405300  0.30119370  1
  S  S27  1  0.26545834  0.95133442  0.68494197  1
  S  S28  1  0.17381072  0.51644604  0.44554326  1
  S  S29  1  0.81210067  0.49557110  0.54340776  1
  S  S30  1  0.43166758  0.46501039  0.79263323  1
  S  S31  1  0.55985757  0.47928254  0.17891860  1
  S  S32  1  0.91412938  0.51350493  0.99060246  1
  S  S33  1  0.08071196  0.44185705  0.02288839  1
  S  S34  1  0.66421137  0.50919244  0.88642263  1
  S  S35  1  0.33003025  0.45315691  0.10864810  1
  S  S36  1  0.59884488  0.99516774  0.63892593  1
  S  S37  1  0.40542902  0.03261483  0.34185704  1
  S  S38  1  0.24252204  0.49710747  0.30722372  1
  S  S39  1  0.76017102  0.47536129  0.69669286  1
  S  S40  1  0.67214717  0.01199573  0.45274658  1
  S  S41  1  0.33277489  0.95029913  0.56006177  1
