# generated using pymatgen
data_Pr2Mn3(SbS3)4
_symmetry_space_group_name_H-M   'P 1'
_cell_length_a   20.02960800
_cell_length_b   3.90410600
_cell_length_c   14.95364829
_cell_angle_alpha   90.00000000
_cell_angle_beta   126.33350609
_cell_angle_gamma   90.00000000
_symmetry_Int_Tables_number   1
_chemical_formula_structural   Pr2Mn3(SbS3)4
_chemical_formula_sum   'Pr4 Mn6 Sb8 S24'
_cell_volume   942.00006694
_cell_formula_units_Z   2
loop_
 _symmetry_equiv_pos_site_id
 _symmetry_equiv_pos_as_xyz
  1  'x, y, z'
loop_
 _atom_site_type_symbol
 _atom_site_label
 _atom_site_symmetry_multiplicity
 _atom_site_fract_x
 _atom_site_fract_y
 _atom_site_fract_z
 _atom_site_occupancy
  Pr  Pr0  1  0.27038433  0.50259241  0.87983699  1
  Pr  Pr1  1  0.72856225  0.53393786  0.13098001  1
  Pr  Pr2  1  0.76410002  0.02025336  0.87522908  1
  Pr  Pr3  1  0.23231750  0.94313548  0.12874992  1
  Mn  Mn4  1  0.29931766  0.43995347  0.60941954  1
  Mn  Mn5  1  0.69372916  0.47547421  0.36718423  1
  Mn  Mn6  1  0.00854950  0.97543010  0.00975532  1
  Mn  Mn7  1  0.80202347  0.01758277  0.62669877  1
  Mn  Mn8  1  0.20291778  0.05400203  0.38329279  1
  Mn  Mn9  1  0.48404353  0.50034420  0.98001110  1
  Sb  Sb10  1  0.88659860  0.95979704  0.44610001  1
  Sb  Sb11  1  0.11415462  0.98992238  0.54972882  1
  Sb  Sb12  1  0.04287941  0.52343603  0.83007494  1
  Sb  Sb13  1  0.97202637  0.48510685  0.19807251  1
  Sb  Sb14  1  0.40348464  0.53831423  0.45234595  1
  Sb  Sb15  1  0.60698119  0.48275319  0.53945506  1
  Sb  Sb16  1  0.52212302  0.96485219  0.79379651  1
  Sb  Sb17  1  0.46859497  0.04657342  0.18134865  1
  S  S18  1  0.93532238  0.99081732  0.79275477  1
  S  S19  1  0.05638193  0.00140997  0.18495692  1
  S  S20  1  0.41199075  0.99557575  0.96644334  1
  S  S21  1  0.58006050  0.00860517  0.99927939  1
  S  S22  1  0.16553608  0.99992694  0.89846681  1
  S  S23  1  0.82736276  0.96367510  0.09984962  1
  S  S24  1  0.09361646  0.45752826  0.65395892  1
  S  S25  1  0.91818678  0.44206345  0.37116350  1
  S  S26  1  0.73152840  0.97423960  0.30108569  1
  S  S27  1  0.26547471  0.95117969  0.68487598  1
  S  S28  1  0.17403166  0.51666155  0.44567368  1
  S  S29  1  0.81207813  0.49512154  0.54351449  1
  S  S30  1  0.43173558  0.46604769  0.79255570  1
  S  S31  1  0.56028309  0.47856700  0.17938956  1
  S  S32  1  0.91413158  0.51396550  0.99033553  1
  S  S33  1  0.08050898  0.44332659  0.02260817  1
  S  S34  1  0.66427549  0.51030749  0.88664568  1
  S  S35  1  0.33042704  0.45299307  0.10889517  1
  S  S36  1  0.59912513  0.99479786  0.63935262  1
  S  S37  1  0.40565011  0.03219263  0.34212924  1
  S  S38  1  0.24266825  0.49688675  0.30748382  1
  S  S39  1  0.76012987  0.47577964  0.69644661  1
  S  S40  1  0.67226028  0.01322728  0.45264929  1
  S  S41  1  0.33253363  0.95130432  0.55975593  1
