# generated using pymatgen
data_Pr2Mn3(SbS3)4
_symmetry_space_group_name_H-M   'P 1'
_cell_length_a   20.02960800
_cell_length_b   3.90410600
_cell_length_c   14.95364829
_cell_angle_alpha   90.00000000
_cell_angle_beta   126.33350609
_cell_angle_gamma   90.00000000
_symmetry_Int_Tables_number   1
_chemical_formula_structural   Pr2Mn3(SbS3)4
_chemical_formula_sum   'Pr4 Mn6 Sb8 S24'
_cell_volume   942.00006694
_cell_formula_units_Z   2
loop_
 _symmetry_equiv_pos_site_id
 _symmetry_equiv_pos_as_xyz
  1  'x, y, z'
loop_
 _atom_site_type_symbol
 _atom_site_label
 _atom_site_symmetry_multiplicity
 _atom_site_fract_x
 _atom_site_fract_y
 _atom_site_fract_z
 _atom_site_occupancy
  Pr  Pr0  1  0.27040507  0.50258199  0.87985552  1
  Pr  Pr1  1  0.72844098  0.53380616  0.13087201  1
  Pr  Pr2  1  0.76400253  0.02040041  0.87500149  1
  Pr  Pr3  1  0.23245231  0.94381546  0.12884807  1
  Mn  Mn4  1  0.29956660  0.43909961  0.60964603  1
  Mn  Mn5  1  0.69342342  0.47564216  0.36709401  1
  Mn  Mn6  1  0.00857060  0.97562250  0.00943949  1
  Mn  Mn7  1  0.80207698  0.01710153  0.62671360  1
  Mn  Mn8  1  0.20284580  0.05436737  0.38325521  1
  Mn  Mn9  1  0.48390948  0.50012928  0.98001262  1
  Sb  Sb10  1  0.88661201  0.95961328  0.44618742  1
  Sb  Sb11  1  0.11411093  0.98959388  0.54952700  1
  Sb  Sb12  1  0.04282578  0.52322975  0.82983873  1
  Sb  Sb13  1  0.97201737  0.48485428  0.19803511  1
  Sb  Sb14  1  0.40354049  0.53878519  0.45251692  1
  Sb  Sb15  1  0.60704443  0.48282688  0.53949401  1
  Sb  Sb16  1  0.52198328  0.96522151  0.79375727  1
  Sb  Sb17  1  0.46860855  0.04643397  0.18129833  1
  S  S18  1  0.93555882  0.99037997  0.79310701  1
  S  S19  1  0.05614924  0.00224818  0.18493019  1
  S  S20  1  0.41210840  0.99511806  0.96663845  1
  S  S21  1  0.58027575  0.00665894  0.99931236  1
  S  S22  1  0.16564653  0.99964615  0.89857923  1
  S  S23  1  0.82742381  0.96268092  0.09980407  1
  S  S24  1  0.09364524  0.45838338  0.65433506  1
  S  S25  1  0.91828218  0.44240517  0.37127148  1
  S  S26  1  0.73136414  0.97409171  0.30121886  1
  S  S27  1  0.26555320  0.95014746  0.68487215  1
  S  S28  1  0.17425484  0.51677147  0.44582956  1
  S  S29  1  0.81208161  0.49451598  0.54360577  1
  S  S30  1  0.43180773  0.46653551  0.79243342  1
  S  S31  1  0.56070781  0.47771700  0.17999767  1
  S  S32  1  0.91412398  0.51426659  0.99012755  1
  S  S33  1  0.08027828  0.44414937  0.02234400  1
  S  S34  1  0.66424928  0.51125955  0.88671810  1
  S  S35  1  0.33085388  0.45259364  0.10904222  1
  S  S36  1  0.59938549  0.99469429  0.63979864  1
  S  S37  1  0.40579342  0.03166574  0.34234437  1
  S  S38  1  0.24272079  0.49675578  0.30761986  1
  S  S39  1  0.76009717  0.47589407  0.69618509  1
  S  S40  1  0.67232679  0.01371165  0.45248584  1
  S  S41  1  0.33236561  0.95226866  0.55941923  1
