# generated using pymatgen
data_Pr2Mn3(SbS3)4
_symmetry_space_group_name_H-M   'P 1'
_cell_length_a   20.02960800
_cell_length_b   3.90410600
_cell_length_c   14.95364829
_cell_angle_alpha   90.00000000
_cell_angle_beta   126.33350609
_cell_angle_gamma   90.00000000
_symmetry_Int_Tables_number   1
_chemical_formula_structural   Pr2Mn3(SbS3)4
_chemical_formula_sum   'Pr4 Mn6 Sb8 S24'
_cell_volume   942.00006694
_cell_formula_units_Z   2
loop_
 _symmetry_equiv_pos_site_id
 _symmetry_equiv_pos_as_xyz
  1  'x, y, z'
loop_
 _atom_site_type_symbol
 _atom_site_label
 _atom_site_symmetry_multiplicity
 _atom_site_fract_x
 _atom_site_fract_y
 _atom_site_fract_z
 _atom_site_occupancy
  Pr  Pr0  1  0.26425727  0.48506255  0.86872514  1
  Pr  Pr1  1  0.73760178  0.50654644  0.13543492  1
  Pr  Pr2  1  0.76186562  0.00853291  0.86192551  1
  Pr  Pr3  1  0.23803048  0.99692859  0.14026503  1
  Mn  Mn4  1  0.29799168  0.50181323  0.61660522  1
  Mn  Mn5  1  0.69678496  0.50766378  0.38060160  1
  Mn  Mn6  1  0.00206782  0.99729170  0.99820891  1
  Mn  Mn7  1  0.80347415  0.99139515  0.61486446  1
  Mn  Mn8  1  0.19852348  0.97910352  0.37932610  1
  Mn  Mn9  1  0.50174660  0.48047453  0.99522662  1
  Sb  Sb10  1  0.89376231  0.00706757  0.45393023  1
  Sb  Sb11  1  0.10862670  0.97890061  0.55126599  1
  Sb  Sb12  1  0.03870117  0.48708013  0.81583510  1
  Sb  Sb13  1  0.96158415  0.51828502  0.18705603  1
  Sb  Sb14  1  0.39583642  0.49086802  0.45721663  1
  Sb  Sb15  1  0.60709791  0.50026213  0.54954839  1
  Sb  Sb16  1  0.53692583  0.00417537  0.81624405  1
  Sb  Sb17  1  0.46198972  0.00229144  0.18025377  1
  S  S18  1  0.93541761  0.97794782  0.79680497  1
  S  S19  1  0.06153654  0.99979096  0.19217913  1
  S  S20  1  0.40843732  0.99853623  0.97845487  1
  S  S21  1  0.59179025  0.99258178  0.01560665  1
  S  S22  1  0.17086440  0.99048918  0.89945773  1
  S  S23  1  0.82844968  0.01507138  0.10522820  1
  S  S24  1  0.08419839  0.48053351  0.64197203  1
  S  S25  1  0.91468928  0.48148892  0.36044807  1
  S  S26  1  0.74260129  0.94608298  0.29407797  1
  S  S27  1  0.25749395  0.99877201  0.70325679  1
  S  S28  1  0.16320328  0.49184976  0.44567266  1
  S  S29  1  0.83048402  0.48515311  0.54967217  1
  S  S30  1  0.43628750  0.51013444  0.80147720  1
  S  S31  1  0.56057927  0.51514018  0.19058069  1
  S  S32  1  0.90196670  0.48250045  0.97580929  1
  S  S33  1  0.08847905  0.48446251  0.01701880  1
  S  S34  1  0.66377193  0.50460123  0.89451496  1
  S  S35  1  0.33030913  0.52032228  0.09963995  1
  S  S36  1  0.59218599  0.01101139  0.65043784  1
  S  S37  1  0.41373688  0.96759739  0.35849246  1
  S  S38  1  0.24357742  0.48093647  0.30001879  1
  S  S39  1  0.76067348  0.50132643  0.69800370  1
  S  S40  1  0.66829959  0.01357361  0.46196654  1
  S  S41  1  0.33045378  0.98099775  0.54127333  1
