# generated using pymatgen
data_Pr2Mn3(SbS3)4
_symmetry_space_group_name_H-M   'P 1'
_cell_length_a   20.02960800
_cell_length_b   3.90410600
_cell_length_c   14.95364829
_cell_angle_alpha   90.00000000
_cell_angle_beta   126.33350609
_cell_angle_gamma   90.00000000
_symmetry_Int_Tables_number   1
_chemical_formula_structural   Pr2Mn3(SbS3)4
_chemical_formula_sum   'Pr4 Mn6 Sb8 S24'
_cell_volume   942.00006694
_cell_formula_units_Z   2
loop_
 _symmetry_equiv_pos_site_id
 _symmetry_equiv_pos_as_xyz
  1  'x, y, z'
loop_
 _atom_site_type_symbol
 _atom_site_label
 _atom_site_symmetry_multiplicity
 _atom_site_fract_x
 _atom_site_fract_y
 _atom_site_fract_z
 _atom_site_occupancy
  Pr  Pr0  1  0.27043470  0.50252460  0.87991728  1
  Pr  Pr1  1  0.72838001  0.53363740  0.13079017  1
  Pr  Pr2  1  0.76391118  0.02044233  0.87485808  1
  Pr  Pr3  1  0.23254733  0.94473479  0.12897511  1
  Mn  Mn4  1  0.29971984  0.43832162  0.60983111  1
  Mn  Mn5  1  0.69310992  0.47582996  0.36700830  1
  Mn  Mn6  1  0.00865446  0.97580096  0.00914319  1
  Mn  Mn7  1  0.80201180  0.01654495  0.62655873  1
  Mn  Mn8  1  0.20282042  0.05459901  0.38331098  1
  Mn  Mn9  1  0.48374988  0.50027334  0.98002786  1
  Sb  Sb10  1  0.88661605  0.95957685  0.44626720  1
  Sb  Sb11  1  0.11413971  0.98917699  0.54940903  1
  Sb  Sb12  1  0.04278647  0.52302008  0.82959238  1
  Sb  Sb13  1  0.97204467  0.48450163  0.19805699  1
  Sb  Sb14  1  0.40352283  0.53949743  0.45260173  1
  Sb  Sb15  1  0.60705995  0.48259651  0.53947932  1
  Sb  Sb16  1  0.52180952  0.96545635  0.79370847  1
  Sb  Sb17  1  0.46863577  0.04669675  0.18123501  1
  S  S18  1  0.93567694  0.98991285  0.79324928  1
  S  S19  1  0.05590023  0.00293127  0.18481948  1
  S  S20  1  0.41225488  0.99514147  0.96673270  1
  S  S21  1  0.58051079  0.00474529  0.99951514  1
  S  S22  1  0.16583600  0.99979220  0.89882569  1
  S  S23  1  0.82739716  0.96124656  0.09957003  1
  S  S24  1  0.09381789  0.45971881  0.65475037  1
  S  S25  1  0.91840405  0.44295911  0.37142017  1
  S  S26  1  0.73134676  0.97421036  0.30147356  1
  S  S27  1  0.26569077  0.94914289  0.68506393  1
  S  S28  1  0.17439851  0.51688350  0.44591720  1
  S  S29  1  0.81202809  0.49428943  0.54354548  1
  S  S30  1  0.43186909  0.46649737  0.79249916  1
  S  S31  1  0.56103411  0.47674682  0.18042976  1
  S  S32  1  0.91413938  0.51414497  0.98994673  1
  S  S33  1  0.07996838  0.44497272  0.02193444  1
  S  S34  1  0.66429538  0.51263416  0.88687318  1
  S  S35  1  0.33129058  0.45266547  0.10921641  1
  S  S36  1  0.59954914  0.99476863  0.64016743  1
  S  S37  1  0.40597451  0.03147083  0.34263630  1
  S  S38  1  0.24285837  0.49708215  0.30778809  1
  S  S39  1  0.76006206  0.47594776  0.69593373  1
  S  S40  1  0.67243115  0.01426179  0.45241703  1
  S  S41  1  0.33221394  0.95266991  0.55899881  1
