# generated using pymatgen
data_Pr2Mn3(SbS3)4
_symmetry_space_group_name_H-M   'P 1'
_cell_length_a   20.02960800
_cell_length_b   3.90410600
_cell_length_c   14.95364829
_cell_angle_alpha   90.00000000
_cell_angle_beta   126.33350609
_cell_angle_gamma   90.00000000
_symmetry_Int_Tables_number   1
_chemical_formula_structural   Pr2Mn3(SbS3)4
_chemical_formula_sum   'Pr4 Mn6 Sb8 S24'
_cell_volume   942.00006694
_cell_formula_units_Z   2
loop_
 _symmetry_equiv_pos_site_id
 _symmetry_equiv_pos_as_xyz
  1  'x, y, z'
loop_
 _atom_site_type_symbol
 _atom_site_label
 _atom_site_symmetry_multiplicity
 _atom_site_fract_x
 _atom_site_fract_y
 _atom_site_fract_z
 _atom_site_occupancy
  Pr  Pr0  1  0.27043636  0.50226612  0.87987142  1
  Pr  Pr1  1  0.72834635  0.53345704  0.13069453  1
  Pr  Pr2  1  0.76380253  0.02034778  0.87468092  1
  Pr  Pr3  1  0.23262595  0.94529300  0.12911238  1
  Mn  Mn4  1  0.29971274  0.43740920  0.60978015  1
  Mn  Mn5  1  0.69279962  0.47604217  0.36687481  1
  Mn  Mn6  1  0.00875289  0.97572149  0.00893829  1
  Mn  Mn7  1  0.80190952  0.01598640  0.62642272  1
  Mn  Mn8  1  0.20287655  0.05478929  0.38348248  1
  Mn  Mn9  1  0.48358099  0.50008978  0.98007954  1
  Sb  Sb10  1  0.88665456  0.95951129  0.44639985  1
  Sb  Sb11  1  0.11418044  0.98891310  0.54936178  1
  Sb  Sb12  1  0.04272840  0.52288081  0.82930548  1
  Sb  Sb13  1  0.97204570  0.48395670  0.19808105  1
  Sb  Sb14  1  0.40352075  0.54042266  0.45265526  1
  Sb  Sb15  1  0.60702514  0.48233237  0.53939475  1
  Sb  Sb16  1  0.52175419  0.96585728  0.79368843  1
  Sb  Sb17  1  0.46865910  0.04720336  0.18116233  1
  S  S18  1  0.93567429  0.98903556  0.79322784  1
  S  S19  1  0.05571293  0.00377161  0.18480045  1
  S  S20  1  0.41241551  0.99482884  0.96692201  1
  S  S21  1  0.58061817  0.00312921  0.99950406  1
  S  S22  1  0.16598146  0.99977451  0.89895329  1
  S  S23  1  0.82745847  0.96013201  0.09944097  1
  S  S24  1  0.09399237  0.46125608  0.65499660  1
  S  S25  1  0.91856283  0.44353040  0.37158738  1
  S  S26  1  0.73131965  0.97413169  0.30168371  1
  S  S27  1  0.26570106  0.94791417  0.68524600  1
  S  S28  1  0.17446135  0.51684040  0.44593306  1
  S  S29  1  0.81191709  0.49364585  0.54351973  1
  S  S30  1  0.43193986  0.46669948  0.79252648  1
  S  S31  1  0.56131789  0.47553457  0.18082304  1
  S  S32  1  0.91409474  0.51451005  0.98952373  1
  S  S33  1  0.07958754  0.44593315  0.02147325  1
  S  S34  1  0.66433202  0.51418907  0.88705154  1
  S  S35  1  0.33163969  0.45270323  0.10932458  1
  S  S36  1  0.59973669  0.99450951  0.64055255  1
  S  S37  1  0.40601882  0.03035082  0.34287896  1
  S  S38  1  0.24311089  0.49687154  0.30795321  1
  S  S39  1  0.76000615  0.47601635  0.69552567  1
  S  S40  1  0.67259223  0.01487946  0.45240377  1
  S  S41  1  0.33210178  0.95329272  0.55863959  1
