# generated using pymatgen
data_Pr2Mn3(SbS3)4
_symmetry_space_group_name_H-M   'P 1'
_cell_length_a   20.02960800
_cell_length_b   3.90410600
_cell_length_c   14.95364829
_cell_angle_alpha   90.00000000
_cell_angle_beta   126.33350609
_cell_angle_gamma   90.00000000
_symmetry_Int_Tables_number   1
_chemical_formula_structural   Pr2Mn3(SbS3)4
_chemical_formula_sum   'Pr4 Mn6 Sb8 S24'
_cell_volume   942.00006694
_cell_formula_units_Z   2
loop_
 _symmetry_equiv_pos_site_id
 _symmetry_equiv_pos_as_xyz
  1  'x, y, z'
loop_
 _atom_site_type_symbol
 _atom_site_label
 _atom_site_symmetry_multiplicity
 _atom_site_fract_x
 _atom_site_fract_y
 _atom_site_fract_z
 _atom_site_occupancy
  Pr  Pr0  1  0.27044527  0.50192517  0.87979830  1
  Pr  Pr1  1  0.72825792  0.53323737  0.13061564  1
  Pr  Pr2  1  0.76368901  0.02009124  0.87448408  1
  Pr  Pr3  1  0.23267827  0.94594057  0.12920150  1
  Mn  Mn4  1  0.29961057  0.43639460  0.60968293  1
  Mn  Mn5  1  0.69254134  0.47618318  0.36679155  1
  Mn  Mn6  1  0.00886034  0.97508807  0.00863858  1
  Mn  Mn7  1  0.80176876  0.01560935  0.62625446  1
  Mn  Mn8  1  0.20289672  0.05524064  0.38362390  1
  Mn  Mn9  1  0.48352576  0.49986816  0.98019977  1
  Sb  Sb10  1  0.88667339  0.95964484  0.44653668  1
  Sb  Sb11  1  0.11419536  0.98872511  0.54927266  1
  Sb  Sb12  1  0.04267136  0.52270740  0.82913561  1
  Sb  Sb13  1  0.97204291  0.48348665  0.19811114  1
  Sb  Sb14  1  0.40351952  0.54127158  0.45275323  1
  Sb  Sb15  1  0.60704222  0.48229099  0.53934679  1
  Sb  Sb16  1  0.52172317  0.96612805  0.79365665  1
  Sb  Sb17  1  0.46871480  0.04751772  0.18110992  1
  S  S18  1  0.93567148  0.98833139  0.79325524  1
  S  S19  1  0.05547388  0.00475262  0.18461499  1
  S  S20  1  0.41263774  0.99451599  0.96713315  1
  S  S21  1  0.58063423  0.00131440  0.99934072  1
  S  S22  1  0.16593748  0.99988748  0.89896107  1
  S  S23  1  0.82746577  0.95891042  0.09923804  1
  S  S24  1  0.09410554  0.46291829  0.65521526  1
  S  S25  1  0.91878168  0.44433119  0.37179658  1
  S  S26  1  0.73132519  0.97377488  0.30192507  1
  S  S27  1  0.26568018  0.94658561  0.68539452  1
  S  S28  1  0.17462207  0.51708193  0.44607688  1
  S  S29  1  0.81187217  0.49323405  0.54354229  1
  S  S30  1  0.43197093  0.46706957  0.79256632  1
  S  S31  1  0.56151961  0.47494259  0.18115663  1
  S  S32  1  0.91411608  0.51524286  0.98925701  1
  S  S33  1  0.07943758  0.44647560  0.02117226  1
  S  S34  1  0.66425895  0.51533465  0.88710236  1
  S  S35  1  0.33190507  0.45282609  0.10934847  1
  S  S36  1  0.59995525  0.99452852  0.64089936  1
  S  S37  1  0.40603161  0.02927740  0.34307177  1
  S  S38  1  0.24344832  0.49650070  0.30820247  1
  S  S39  1  0.75992149  0.47606830  0.69509009  1
  S  S40  1  0.67264162  0.01560348  0.45209967  1
  S  S41  1  0.33193469  0.95400741  0.55809675  1
