# generated using pymatgen
data_Pr2Mn3(SbS3)4
_symmetry_space_group_name_H-M   'P 1'
_cell_length_a   20.02960800
_cell_length_b   3.90410600
_cell_length_c   14.95364829
_cell_angle_alpha   90.00000000
_cell_angle_beta   126.33350609
_cell_angle_gamma   90.00000000
_symmetry_Int_Tables_number   1
_chemical_formula_structural   Pr2Mn3(SbS3)4
_chemical_formula_sum   'Pr4 Mn6 Sb8 S24'
_cell_volume   942.00006694
_cell_formula_units_Z   2
loop_
 _symmetry_equiv_pos_site_id
 _symmetry_equiv_pos_as_xyz
  1  'x, y, z'
loop_
 _atom_site_type_symbol
 _atom_site_label
 _atom_site_symmetry_multiplicity
 _atom_site_fract_x
 _atom_site_fract_y
 _atom_site_fract_z
 _atom_site_occupancy
  Pr  Pr0  1  0.27041924  0.50140326  0.87963902  1
  Pr  Pr1  1  0.72818736  0.53295440  0.13060510  1
  Pr  Pr2  1  0.76356962  0.02006967  0.87427880  1
  Pr  Pr3  1  0.23274358  0.94659422  0.12928437  1
  Mn  Mn4  1  0.29949470  0.43527858  0.60958094  1
  Mn  Mn5  1  0.69237096  0.47664932  0.36687419  1
  Mn  Mn6  1  0.00896249  0.97435783  0.00852693  1
  Mn  Mn7  1  0.80163437  0.01507023  0.62611500  1
  Mn  Mn8  1  0.20298360  0.05535186  0.38395221  1
  Mn  Mn9  1  0.48340459  0.49961529  0.98026642  1
  Sb  Sb10  1  0.88670339  0.95962860  0.44666468  1
  Sb  Sb11  1  0.11422110  0.98845817  0.54918893  1
  Sb  Sb12  1  0.04259169  0.52237620  0.82897151  1
  Sb  Sb13  1  0.97205022  0.48294423  0.19807149  1
  Sb  Sb14  1  0.40348409  0.54188055  0.45284605  1
  Sb  Sb15  1  0.60700711  0.48234534  0.53928940  1
  Sb  Sb16  1  0.52167699  0.96639169  0.79353639  1
  Sb  Sb17  1  0.46874055  0.04780628  0.18103742  1
  S  S18  1  0.93569621  0.98863555  0.79326898  1
  S  S19  1  0.05538328  0.00528395  0.18463133  1
  S  S20  1  0.41283823  0.99426920  0.96727814  1
  S  S21  1  0.58069029  0.00013170  0.99931912  1
  S  S22  1  0.16588193  0.99948465  0.89899445  1
  S  S23  1  0.82743683  0.95810856  0.09908395  1
  S  S24  1  0.09410601  0.46412418  0.65535268  1
  S  S25  1  0.91905010  0.44505158  0.37202552  1
  S  S26  1  0.73132974  0.97346964  0.30216130  1
  S  S27  1  0.26570879  0.94512822  0.68561614  1
  S  S28  1  0.17466054  0.51748621  0.44606194  1
  S  S29  1  0.81188756  0.49281205  0.54355184  1
  S  S30  1  0.43206492  0.46741797  0.79274671  1
  S  S31  1  0.56165068  0.47448211  0.18133900  1
  S  S32  1  0.91409322  0.51577556  0.98905893  1
  S  S33  1  0.07928799  0.44683737  0.02089637  1
  S  S34  1  0.66427650  0.51597261  0.88720182  1
  S  S35  1  0.33216997  0.45292627  0.10933493  1
  S  S36  1  0.60007949  0.99457931  0.64123681  1
  S  S37  1  0.40604100  0.02857202  0.34315035  1
  S  S38  1  0.24363184  0.49648359  0.30844247  1
  S  S39  1  0.75975723  0.47621715  0.69460337  1
  S  S40  1  0.67268037  0.01624735  0.45181752  1
  S  S41  1  0.33177867  0.95449469  0.55752729  1
