# generated using pymatgen
data_Pr2Mn3(SbS3)4
_symmetry_space_group_name_H-M   'P 1'
_cell_length_a   20.02960800
_cell_length_b   3.90410600
_cell_length_c   14.95364829
_cell_angle_alpha   90.00000000
_cell_angle_beta   126.33350609
_cell_angle_gamma   90.00000000
_symmetry_Int_Tables_number   1
_chemical_formula_structural   Pr2Mn3(SbS3)4
_chemical_formula_sum   'Pr4 Mn6 Sb8 S24'
_cell_volume   942.00006694
_cell_formula_units_Z   2
loop_
 _symmetry_equiv_pos_site_id
 _symmetry_equiv_pos_as_xyz
  1  'x, y, z'
loop_
 _atom_site_type_symbol
 _atom_site_label
 _atom_site_symmetry_multiplicity
 _atom_site_fract_x
 _atom_site_fract_y
 _atom_site_fract_z
 _atom_site_occupancy
  Pr  Pr0  1  0.27037037  0.50085692  0.87950947  1
  Pr  Pr1  1  0.72805951  0.53258253  0.13048557  1
  Pr  Pr2  1  0.76346815  0.02014113  0.87415161  1
  Pr  Pr3  1  0.23277510  0.94736105  0.12932645  1
  Mn  Mn4  1  0.29938455  0.43398058  0.60958426  1
  Mn  Mn5  1  0.69215600  0.47708261  0.36686135  1
  Mn  Mn6  1  0.00907331  0.97356146  0.00839794  1
  Mn  Mn7  1  0.80150002  0.01436843  0.62594552  1
  Mn  Mn8  1  0.20316350  0.05534548  0.38411757  1
  Mn  Mn9  1  0.48322473  0.49968048  0.98031203  1
  Sb  Sb10  1  0.88677566  0.95956722  0.44690863  1
  Sb  Sb11  1  0.11417879  0.98838502  0.54906402  1
  Sb  Sb12  1  0.04248999  0.52202734  0.82884898  1
  Sb  Sb13  1  0.97202584  0.48233364  0.19806380  1
  Sb  Sb14  1  0.40344757  0.54278898  0.45287186  1
  Sb  Sb15  1  0.60691612  0.48247674  0.53910686  1
  Sb  Sb16  1  0.52164286  0.96660501  0.79344146  1
  Sb  Sb17  1  0.46876609  0.04803571  0.18095591  1
  S  S18  1  0.93565974  0.98916945  0.79324573  1
  S  S19  1  0.05533624  0.00620360  0.18466498  1
  S  S20  1  0.41306276  0.99416358  0.96748340  1
  S  S21  1  0.58067647  0.99954044  0.99921554  1
  S  S22  1  0.16589910  0.99904584  0.89898234  1
  S  S23  1  0.82738338  0.95786100  0.09883893  1
  S  S24  1  0.09413070  0.46495528  0.65550067  1
  S  S25  1  0.91938663  0.44537878  0.37223161  1
  S  S26  1  0.73133753  0.97344649  0.30240459  1
  S  S27  1  0.26579805  0.94348236  0.68603245  1
  S  S28  1  0.17462983  0.51769806  0.44588303  1
  S  S29  1  0.81191942  0.49271109  0.54351363  1
  S  S30  1  0.43217219  0.46770042  0.79299840  1
  S  S31  1  0.56170667  0.47439478  0.18156554  1
  S  S32  1  0.91410767  0.51603801  0.98893824  1
  S  S33  1  0.07934059  0.44708777  0.02067898  1
  S  S34  1  0.66417808  0.51629528  0.88728103  1
  S  S35  1  0.33253387  0.45303440  0.10951420  1
  S  S36  1  0.60025987  0.99491406  0.64163156  1
  S  S37  1  0.40606966  0.02778909  0.34326430  1
  S  S38  1  0.24380507  0.49660656  0.30873580  1
  S  S39  1  0.75965052  0.47625817  0.69416256  1
  S  S40  1  0.67277427  0.01682854  0.45160812  1
  S  S41  1  0.33153126  0.95469879  0.55686326  1
