# generated using pymatgen
data_Pr2Mn3(SbS3)4
_symmetry_space_group_name_H-M   'P 1'
_cell_length_a   20.02960800
_cell_length_b   3.90410600
_cell_length_c   14.95364829
_cell_angle_alpha   90.00000000
_cell_angle_beta   126.33350609
_cell_angle_gamma   90.00000000
_symmetry_Int_Tables_number   1
_chemical_formula_structural   Pr2Mn3(SbS3)4
_chemical_formula_sum   'Pr4 Mn6 Sb8 S24'
_cell_volume   942.00006694
_cell_formula_units_Z   2
loop_
 _symmetry_equiv_pos_site_id
 _symmetry_equiv_pos_as_xyz
  1  'x, y, z'
loop_
 _atom_site_type_symbol
 _atom_site_label
 _atom_site_symmetry_multiplicity
 _atom_site_fract_x
 _atom_site_fract_y
 _atom_site_fract_z
 _atom_site_occupancy
  Pr  Pr0  1  0.27034523  0.50015920  0.87945794  1
  Pr  Pr1  1  0.72793462  0.53234292  0.13034913  1
  Pr  Pr2  1  0.76336895  0.02023965  0.87402001  1
  Pr  Pr3  1  0.23278706  0.94799485  0.12932379  1
  Mn  Mn4  1  0.29929001  0.43269181  0.60946813  1
  Mn  Mn5  1  0.69208783  0.47711986  0.36692725  1
  Mn  Mn6  1  0.00908980  0.97283354  0.00811259  1
  Mn  Mn7  1  0.80134865  0.01405756  0.62566065  1
  Mn  Mn8  1  0.20335699  0.05518988  0.38421895  1
  Mn  Mn9  1  0.48308528  0.49983913  0.98038044  1
  Sb  Sb10  1  0.88679910  0.95953801  0.44713318  1
  Sb  Sb11  1  0.11417557  0.98814358  0.54895781  1
  Sb  Sb12  1  0.04240239  0.52147428  0.82871534  1
  Sb  Sb13  1  0.97200603  0.48164135  0.19807771  1
  Sb  Sb14  1  0.40340577  0.54352446  0.45289234  1
  Sb  Sb15  1  0.60685729  0.48247519  0.53897958  1
  Sb  Sb16  1  0.52161729  0.96674989  0.79333342  1
  Sb  Sb17  1  0.46880186  0.04822808  0.18088868  1
  S  S18  1  0.93569537  0.98962204  0.79335138  1
  S  S19  1  0.05527088  0.00723700  0.18458384  1
  S  S20  1  0.41328748  0.99420838  0.96768132  1
  S  S21  1  0.58079528  0.99912912  0.99922726  1
  S  S22  1  0.16590952  0.99848149  0.89904923  1
  S  S23  1  0.82725075  0.95742825  0.09847288  1
  S  S24  1  0.09407823  0.46590452  0.65538017  1
  S  S25  1  0.91974289  0.44572325  0.37221571  1
  S  S26  1  0.73147794  0.97343828  0.30277082  1
  S  S27  1  0.26587170  0.94193326  0.68654413  1
  S  S28  1  0.17461840  0.51790854  0.44567230  1
  S  S29  1  0.81196701  0.49229059  0.54367011  1
  S  S30  1  0.43229340  0.46846663  0.79343567  1
  S  S31  1  0.56171572  0.47407484  0.18166513  1
  S  S32  1  0.91416648  0.51668176  0.98876807  1
  S  S33  1  0.07932728  0.44696195  0.02025822  1
  S  S34  1  0.66420709  0.51651860  0.88752594  1
  S  S35  1  0.33284743  0.45329394  0.10970303  1
  S  S36  1  0.60043556  0.99548520  0.64205177  1
  S  S37  1  0.40602002  0.02675397  0.34336680  1
  S  S38  1  0.24388898  0.49634454  0.30892985  1
  S  S39  1  0.75952353  0.47626391  0.69362059  1
  S  S40  1  0.67283966  0.01683195  0.45147308  1
  S  S41  1  0.33135794  0.95509483  0.55638138  1
