# generated using pymatgen
data_Pr2Mn3(SbS3)4
_symmetry_space_group_name_H-M   'P 1'
_cell_length_a   20.02960800
_cell_length_b   3.90410600
_cell_length_c   14.95364829
_cell_angle_alpha   90.00000000
_cell_angle_beta   126.33350609
_cell_angle_gamma   90.00000000
_symmetry_Int_Tables_number   1
_chemical_formula_structural   Pr2Mn3(SbS3)4
_chemical_formula_sum   'Pr4 Mn6 Sb8 S24'
_cell_volume   942.00006694
_cell_formula_units_Z   2
loop_
 _symmetry_equiv_pos_site_id
 _symmetry_equiv_pos_as_xyz
  1  'x, y, z'
loop_
 _atom_site_type_symbol
 _atom_site_label
 _atom_site_symmetry_multiplicity
 _atom_site_fract_x
 _atom_site_fract_y
 _atom_site_fract_z
 _atom_site_occupancy
  Pr  Pr0  1  0.27034494  0.49961599  0.87946417  1
  Pr  Pr1  1  0.72786567  0.53198881  0.13022701  1
  Pr  Pr2  1  0.76329272  0.02031373  0.87393987  1
  Pr  Pr3  1  0.23277730  0.94835072  0.12926840  1
  Mn  Mn4  1  0.29919120  0.43116223  0.60940729  1
  Mn  Mn5  1  0.69213097  0.47735745  0.36709171  1
  Mn  Mn6  1  0.00915471  0.97239151  0.00786317  1
  Mn  Mn7  1  0.80123495  0.01396732  0.62536533  1
  Mn  Mn8  1  0.20350956  0.05538958  0.38429748  1
  Mn  Mn9  1  0.48300803  0.50022096  0.98051300  1
  Sb  Sb10  1  0.88683141  0.95924925  0.44740320  1
  Sb  Sb11  1  0.11417705  0.98774797  0.54885878  1
  Sb  Sb12  1  0.04230545  0.52093005  0.82859401  1
  Sb  Sb13  1  0.97198971  0.48115660  0.19811386  1
  Sb  Sb14  1  0.40339723  0.54436871  0.45295620  1
  Sb  Sb15  1  0.60684849  0.48222364  0.53884953  1
  Sb  Sb16  1  0.52161609  0.96683922  0.79316142  1
  Sb  Sb17  1  0.46881245  0.04845072  0.18085227  1
  S  S18  1  0.93579585  0.99015920  0.79355523  1
  S  S19  1  0.05510217  0.00802825  0.18437446  1
  S  S20  1  0.41340631  0.99420387  0.96782838  1
  S  S21  1  0.58090114  0.99866821  0.99907400  1
  S  S22  1  0.16592186  0.99770585  0.89917622  1
  S  S23  1  0.82708178  0.95711584  0.09820314  1
  S  S24  1  0.09392817  0.46696488  0.65522397  1
  S  S25  1  0.92010182  0.44568276  0.37219516  1
  S  S26  1  0.73149699  0.97338708  0.30306460  1
  S  S27  1  0.26602950  0.94051853  0.68696785  1
  S  S28  1  0.17455915  0.51810365  0.44532758  1
  S  S29  1  0.81201430  0.49247367  0.54385337  1
  S  S30  1  0.43231136  0.46875606  0.79381619  1
  S  S31  1  0.56168365  0.47354100  0.18169113  1
  S  S32  1  0.91418324  0.51734480  0.98863382  1
  S  S33  1  0.07931526  0.44656699  0.01989286  1
  S  S34  1  0.66413114  0.51687737  0.88765558  1
  S  S35  1  0.33317065  0.45311237  0.10985820  1
  S  S36  1  0.60046876  0.99584665  0.64242960  1
  S  S37  1  0.40589723  0.02539563  0.34330023  1
  S  S38  1  0.24390978  0.49671170  0.30913985  1
  S  S39  1  0.75933172  0.47587666  0.69299725  1
  S  S40  1  0.67278857  0.01691025  0.45117201  1
  S  S41  1  0.33099943  0.95579403  0.55579561  1
