# generated using pymatgen
data_Pr2Mn3(SbS3)4
_symmetry_space_group_name_H-M   'P 1'
_cell_length_a   20.02960800
_cell_length_b   3.90410600
_cell_length_c   14.95364829
_cell_angle_alpha   90.00000000
_cell_angle_beta   126.33350609
_cell_angle_gamma   90.00000000
_symmetry_Int_Tables_number   1
_chemical_formula_structural   Pr2Mn3(SbS3)4
_chemical_formula_sum   'Pr4 Mn6 Sb8 S24'
_cell_volume   942.00006694
_cell_formula_units_Z   2
loop_
 _symmetry_equiv_pos_site_id
 _symmetry_equiv_pos_as_xyz
  1  'x, y, z'
loop_
 _atom_site_type_symbol
 _atom_site_label
 _atom_site_symmetry_multiplicity
 _atom_site_fract_x
 _atom_site_fract_y
 _atom_site_fract_z
 _atom_site_occupancy
  Pr  Pr0  1  0.27038895  0.49891594  0.87948628  1
  Pr  Pr1  1  0.72780586  0.53166284  0.13016061  1
  Pr  Pr2  1  0.76324345  0.02032725  0.87382592  1
  Pr  Pr3  1  0.23272992  0.94870191  0.12913447  1
  Mn  Mn4  1  0.29918195  0.42976337  0.60942046  1
  Mn  Mn5  1  0.69220546  0.47736720  0.36728003  1
  Mn  Mn6  1  0.00931665  0.97201257  0.00773835  1
  Mn  Mn7  1  0.80108984  0.01406890  0.62497666  1
  Mn  Mn8  1  0.20359288  0.05579590  0.38428467  1
  Mn  Mn9  1  0.48282161  0.50078701  0.98058578  1
  Sb  Sb10  1  0.88689670  0.95889594  0.44770530  1
  Sb  Sb11  1  0.11417001  0.98756238  0.54878772  1
  Sb  Sb12  1  0.04223527  0.52037495  0.82851394  1
  Sb  Sb13  1  0.97193362  0.48076058  0.19815916  1
  Sb  Sb14  1  0.40339058  0.54524304  0.45310490  1
  Sb  Sb15  1  0.60674856  0.48208881  0.53861188  1
  Sb  Sb16  1  0.52161891  0.96659445  0.79310930  1
  Sb  Sb17  1  0.46879370  0.04862014  0.18078378  1
  S  S18  1  0.93577534  0.99107000  0.79369919  1
  S  S19  1  0.05493817  0.00882227  0.18409711  1
  S  S20  1  0.41338447  0.99410715  0.96803762  1
  S  S21  1  0.58109251  0.99782883  0.99889273  1
  S  S22  1  0.16612192  0.99664199  0.89935035  1
  S  S23  1  0.82696139  0.95645785  0.09790938  1
  S  S24  1  0.09383968  0.46749559  0.65510984  1
  S  S25  1  0.92041656  0.44562844  0.37215270  1
  S  S26  1  0.73159196  0.97329499  0.30332910  1
  S  S27  1  0.26613677  0.93911831  0.68739638  1
  S  S28  1  0.17444181  0.51867033  0.44495237  1
  S  S29  1  0.81210959  0.49303073  0.54407510  1
  S  S30  1  0.43237133  0.46960872  0.79408590  1
  S  S31  1  0.56158490  0.47313308  0.18169102  1
  S  S32  1  0.91407800  0.51743092  0.98853446  1
  S  S33  1  0.07927202  0.44619586  0.01952465  1
  S  S34  1  0.66389632  0.51727190  0.88765901  1
  S  S35  1  0.33358787  0.45314311  0.11011772  1
  S  S36  1  0.60049783  0.99597532  0.64280629  1
  S  S37  1  0.40582277  0.02422511  0.34319822  1
  S  S38  1  0.24407292  0.49715310  0.30927474  1
  S  S39  1  0.75908382  0.47571625  0.69228753  1
  S  S40  1  0.67268926  0.01703498  0.45072421  1
  S  S41  1  0.33074263  0.95618716  0.55519526  1
