# generated using pymatgen
data_Pr2Mn3(SbS3)4
_symmetry_space_group_name_H-M   'P 1'
_cell_length_a   20.02960800
_cell_length_b   3.90410600
_cell_length_c   14.95364829
_cell_angle_alpha   90.00000000
_cell_angle_beta   126.33350609
_cell_angle_gamma   90.00000000
_symmetry_Int_Tables_number   1
_chemical_formula_structural   Pr2Mn3(SbS3)4
_chemical_formula_sum   'Pr4 Mn6 Sb8 S24'
_cell_volume   942.00006694
_cell_formula_units_Z   2
loop_
 _symmetry_equiv_pos_site_id
 _symmetry_equiv_pos_as_xyz
  1  'x, y, z'
loop_
 _atom_site_type_symbol
 _atom_site_label
 _atom_site_symmetry_multiplicity
 _atom_site_fract_x
 _atom_site_fract_y
 _atom_site_fract_z
 _atom_site_occupancy
  Pr  Pr0  1  0.27042247  0.49845183  0.87947250  1
  Pr  Pr1  1  0.72776855  0.53120702  0.13006800  1
  Pr  Pr2  1  0.76313865  0.02031640  0.87364103  1
  Pr  Pr3  1  0.23266667  0.94914942  0.12898044  1
  Mn  Mn4  1  0.29920863  0.42832453  0.60951681  1
  Mn  Mn5  1  0.69217961  0.47779271  0.36733583  1
  Mn  Mn6  1  0.00946812  0.97160037  0.00764650  1
  Mn  Mn7  1  0.80108382  0.01408785  0.62479617  1
  Mn  Mn8  1  0.20369391  0.05639263  0.38425954  1
  Mn  Mn9  1  0.48255888  0.50163640  0.98062528  1
  Sb  Sb10  1  0.88691502  0.95873862  0.44796503  1
  Sb  Sb11  1  0.11416483  0.98727259  0.54873731  1
  Sb  Sb12  1  0.04217674  0.52008890  0.82850141  1
  Sb  Sb13  1  0.97193211  0.48029438  0.19824112  1
  Sb  Sb14  1  0.40338625  0.54612442  0.45322598  1
  Sb  Sb15  1  0.60662309  0.48205117  0.53827311  1
  Sb  Sb16  1  0.52164516  0.96619960  0.79303358  1
  Sb  Sb17  1  0.46882696  0.04897875  0.18080497  1
  S  S18  1  0.93575137  0.99207361  0.79387053  1
  S  S19  1  0.05465955  0.00953588  0.18373461  1
  S  S20  1  0.41338773  0.99391215  0.96822212  1
  S  S21  1  0.58118306  0.99697862  0.99865121  1
  S  S22  1  0.16633464  0.99599078  0.89961215  1
  S  S23  1  0.82672732  0.95620721  0.09763960  1
  S  S24  1  0.09364710  0.46825640  0.65493787  1
  S  S25  1  0.92070997  0.44535648  0.37217013  1
  S  S26  1  0.73158691  0.97382472  0.30353012  1
  S  S27  1  0.26614023  0.93806573  0.68758268  1
  S  S28  1  0.17423476  0.51886004  0.44463497  1
  S  S29  1  0.81214991  0.49330079  0.54429140  1
  S  S30  1  0.43242432  0.46986693  0.79431282  1
  S  S31  1  0.56145708  0.47291806  0.18159378  1
  S  S32  1  0.91397594  0.51792795  0.98840135  1
  S  S33  1  0.07931769  0.44557444  0.01931338  1
  S  S34  1  0.66368590  0.51823144  0.88766715  1
  S  S35  1  0.33418612  0.45334426  0.11062250  1
  S  S36  1  0.60058656  0.99571227  0.64331178  1
  S  S37  1  0.40577587  0.02319385  0.34319783  1
  S  S38  1  0.24410771  0.49730616  0.30936067  1
  S  S39  1  0.75884137  0.47583808  0.69174648  1
  S  S40  1  0.67266018  0.01693989  0.45027401  1
  S  S41  1  0.33038349  0.95626932  0.55456357  1
