# generated using pymatgen
data_Pr2Mn3(SbS3)4
_symmetry_space_group_name_H-M   'P 1'
_cell_length_a   20.02960800
_cell_length_b   3.90410600
_cell_length_c   14.95364829
_cell_angle_alpha   90.00000000
_cell_angle_beta   126.33350609
_cell_angle_gamma   90.00000000
_symmetry_Int_Tables_number   1
_chemical_formula_structural   Pr2Mn3(SbS3)4
_chemical_formula_sum   'Pr4 Mn6 Sb8 S24'
_cell_volume   942.00006694
_cell_formula_units_Z   2
loop_
 _symmetry_equiv_pos_site_id
 _symmetry_equiv_pos_as_xyz
  1  'x, y, z'
loop_
 _atom_site_type_symbol
 _atom_site_label
 _atom_site_symmetry_multiplicity
 _atom_site_fract_x
 _atom_site_fract_y
 _atom_site_fract_z
 _atom_site_occupancy
  Pr  Pr0  1  0.27044057  0.49805713  0.87942953  1
  Pr  Pr1  1  0.72772248  0.53062703  0.12997348  1
  Pr  Pr2  1  0.76307590  0.02033596  0.87348979  1
  Pr  Pr3  1  0.23256687  0.94935579  0.12879181  1
  Mn  Mn4  1  0.29923073  0.42712729  0.60955071  1
  Mn  Mn5  1  0.69214531  0.47808018  0.36739631  1
  Mn  Mn6  1  0.00956211  0.97127256  0.00760773  1
  Mn  Mn7  1  0.80120473  0.01415162  0.62480340  1
  Mn  Mn8  1  0.20377723  0.05714797  0.38417534  1
  Mn  Mn9  1  0.48232136  0.50245191  0.98065096  1
  Sb  Sb10  1  0.88696447  0.95840655  0.44821570  1
  Sb  Sb11  1  0.11418793  0.98700577  0.54860698  1
  Sb  Sb12  1  0.04214760  0.51988951  0.82858231  1
  Sb  Sb13  1  0.97195795  0.48005876  0.19827352  1
  Sb  Sb14  1  0.40342401  0.54713856  0.45336859  1
  Sb  Sb15  1  0.60650730  0.48213563  0.53799946  1
  Sb  Sb16  1  0.52169089  0.96584730  0.79296859  1
  Sb  Sb17  1  0.46879590  0.04941420  0.18073079  1
  S  S18  1  0.93572522  0.99280264  0.79410143  1
  S  S19  1  0.05442274  0.01014236  0.18340532  1
  S  S20  1  0.41334662  0.99388848  0.96837581  1
  S  S21  1  0.58132635  0.99588914  0.99842124  1
  S  S22  1  0.16658391  0.99511804  0.89994206  1
  S  S23  1  0.82658456  0.95599348  0.09744918  1
  S  S24  1  0.09354307  0.46886967  0.65483167  1
  S  S25  1  0.92092202  0.44519014  0.37210490  1
  S  S26  1  0.73150837  0.97406695  0.30348972  1
  S  S27  1  0.26602590  0.93707279  0.68757140  1
  S  S28  1  0.17392239  0.51910331  0.44435534  1
  S  S29  1  0.81207872  0.49353520  0.54441063  1
  S  S30  1  0.43245854  0.47002158  0.79462808  1
  S  S31  1  0.56136122  0.47288050  0.18153457  1
  S  S32  1  0.91380717  0.51856780  0.98826051  1
  S  S33  1  0.07929643  0.44486790  0.01907405  1
  S  S34  1  0.66346751  0.51925676  0.88762666  1
  S  S35  1  0.33471839  0.45311094  0.11115036  1
  S  S36  1  0.60060043  0.99573772  0.64377313  1
  S  S37  1  0.40567076  0.02219653  0.34313690  1
  S  S38  1  0.24408159  0.49718244  0.30935628  1
  S  S39  1  0.75859652  0.47568964  0.69132299  1
  S  S40  1  0.67270179  0.01679143  0.44990232  1
  S  S41  1  0.33003973  0.95629751  0.55400244  1
