# generated using pymatgen
data_Pr2Mn3(SbS3)4
_symmetry_space_group_name_H-M   'P 1'
_cell_length_a   20.02960800
_cell_length_b   3.90410600
_cell_length_c   14.95364829
_cell_angle_alpha   90.00000000
_cell_angle_beta   126.33350609
_cell_angle_gamma   90.00000000
_symmetry_Int_Tables_number   1
_chemical_formula_structural   Pr2Mn3(SbS3)4
_chemical_formula_sum   'Pr4 Mn6 Sb8 S24'
_cell_volume   942.00006694
_cell_formula_units_Z   2
loop_
 _symmetry_equiv_pos_site_id
 _symmetry_equiv_pos_as_xyz
  1  'x, y, z'
loop_
 _atom_site_type_symbol
 _atom_site_label
 _atom_site_symmetry_multiplicity
 _atom_site_fract_x
 _atom_site_fract_y
 _atom_site_fract_z
 _atom_site_occupancy
  Pr  Pr0  1  0.26444920  0.48443096  0.86899767  1
  Pr  Pr1  1  0.73740716  0.50646005  0.13523754  1
  Pr  Pr2  1  0.76190714  0.00858322  0.86182779  1
  Pr  Pr3  1  0.23789862  0.99763595  0.14026106  1
  Mn  Mn4  1  0.29792796  0.50160655  0.61637386  1
  Mn  Mn5  1  0.69661752  0.50709786  0.38035413  1
  Mn  Mn6  1  0.00203327  0.99695852  0.99816093  1
  Mn  Mn7  1  0.80342481  0.99113167  0.61500075  1
  Mn  Mn8  1  0.19846643  0.97861746  0.37947252  1
  Mn  Mn9  1  0.50171212  0.47986701  0.99499006  1
  Sb  Sb10  1  0.89364115  0.00655948  0.45391978  1
  Sb  Sb11  1  0.10870983  0.97857308  0.55132517  1
  Sb  Sb12  1  0.03878557  0.48742737  0.81588188  1
  Sb  Sb13  1  0.96167458  0.51871672  0.18709080  1
  Sb  Sb14  1  0.39592286  0.49184559  0.45722544  1
  Sb  Sb15  1  0.60714223  0.50013352  0.54952472  1
  Sb  Sb16  1  0.53688960  0.00430663  0.81623694  1
  Sb  Sb17  1  0.46199186  0.00235489  0.18035541  1
  S  S18  1  0.93538752  0.97778719  0.79688015  1
  S  S19  1  0.06179174  0.99955791  0.19224680  1
  S  S20  1  0.40863082  0.99956018  0.97849482  1
  S  S21  1  0.59172494  0.99181384  0.01588667  1
  S  S22  1  0.17075763  0.99038457  0.89906418  1
  S  S23  1  0.82839043  0.01533058  0.10482955  1
  S  S24  1  0.08434220  0.47910778  0.64197892  1
  S  S25  1  0.91466931  0.48179588  0.36044090  1
  S  S26  1  0.74258682  0.94555069  0.29394945  1
  S  S27  1  0.25755845  0.99943609  0.70332461  1
  S  S28  1  0.16325548  0.49186237  0.44559979  1
  S  S29  1  0.83057292  0.48439418  0.54970452  1
  S  S30  1  0.43622954  0.51045223  0.80178541  1
  S  S31  1  0.56059105  0.51649983  0.19053317  1
  S  S32  1  0.90204774  0.48364192  0.97603623  1
  S  S33  1  0.08831761  0.48526460  0.01704879  1
  S  S34  1  0.66373983  0.50484263  0.89447386  1
  S  S35  1  0.33008099  0.52090173  0.09947049  1
  S  S36  1  0.59190014  0.01074383  0.65014514  1
  S  S37  1  0.41383785  0.96678749  0.35835603  1
  S  S38  1  0.24357705  0.48229173  0.30030445  1
  S  S39  1  0.76054368  0.50024695  0.69767109  1
  S  S40  1  0.66874250  0.01416998  0.46204806  1
  S  S41  1  0.33045498  0.98183686  0.54123957  1
