# generated using pymatgen
data_Pr2Mn3(SbS3)4
_symmetry_space_group_name_H-M   'P 1'
_cell_length_a   20.02960800
_cell_length_b   3.90410600
_cell_length_c   14.95364829
_cell_angle_alpha   90.00000000
_cell_angle_beta   126.33350609
_cell_angle_gamma   90.00000000
_symmetry_Int_Tables_number   1
_chemical_formula_structural   Pr2Mn3(SbS3)4
_chemical_formula_sum   'Pr4 Mn6 Sb8 S24'
_cell_volume   942.00006694
_cell_formula_units_Z   2
loop_
 _symmetry_equiv_pos_site_id
 _symmetry_equiv_pos_as_xyz
  1  'x, y, z'
loop_
 _atom_site_type_symbol
 _atom_site_label
 _atom_site_symmetry_multiplicity
 _atom_site_fract_x
 _atom_site_fract_y
 _atom_site_fract_z
 _atom_site_occupancy
  Pr  Pr0  1  0.27044047  0.49720575  0.87944030  1
  Pr  Pr1  1  0.72765746  0.53009866  0.12996330  1
  Pr  Pr2  1  0.76302516  0.02046657  0.87338708  1
  Pr  Pr3  1  0.23253741  0.94948313  0.12864839  1
  Mn  Mn4  1  0.29930932  0.42604139  0.60956385  1
  Mn  Mn5  1  0.69220563  0.47847279  0.36749473  1
  Mn  Mn6  1  0.00964643  0.97100978  0.00770451  1
  Mn  Mn7  1  0.80129970  0.01423794  0.62483753  1
  Mn  Mn8  1  0.20395367  0.05779260  0.38415694  1
  Mn  Mn9  1  0.48199584  0.50344940  0.98059701  1
  Sb  Sb10  1  0.88705211  0.95798812  0.44848595  1
  Sb  Sb11  1  0.11422753  0.98667613  0.54846127  1
  Sb  Sb12  1  0.04215109  0.51962351  0.82872125  1
  Sb  Sb13  1  0.97199306  0.47997233  0.19831013  1
  Sb  Sb14  1  0.40344854  0.54820299  0.45347112  1
  Sb  Sb15  1  0.60635889  0.48209846  0.53767623  1
  Sb  Sb16  1  0.52170249  0.96552104  0.79285226  1
  Sb  Sb17  1  0.46869289  0.04964887  0.18065296  1
  S  S18  1  0.93564053  0.99343028  0.79426312  1
  S  S19  1  0.05412970  0.01017371  0.18311896  1
  S  S20  1  0.41333455  0.99443528  0.96850326  1
  S  S21  1  0.58147034  0.99487908  0.99830623  1
  S  S22  1  0.16692362  0.99446248  0.90022581  1
  S  S23  1  0.82648308  0.95587112  0.09743700  1
  S  S24  1  0.09352977  0.46905982  0.65476849  1
  S  S25  1  0.92103055  0.44474381  0.37198483  1
  S  S26  1  0.73135311  0.97455188  0.30333815  1
  S  S27  1  0.26601271  0.93585460  0.68774287  1
  S  S28  1  0.17370220  0.51952788  0.44423651  1
  S  S29  1  0.81196996  0.49404191  0.54466308  1
  S  S30  1  0.43246462  0.47049778  0.79494155  1
  S  S31  1  0.56127963  0.47323946  0.18159642  1
  S  S32  1  0.91364275  0.51970907  0.98797746  1
  S  S33  1  0.07934648  0.44451483  0.01900896  1
  S  S34  1  0.66327730  0.52041907  0.88757945  1
  S  S35  1  0.33520093  0.45251874  0.11168699  1
  S  S36  1  0.60063647  0.99559222  0.64428532  1
  S  S37  1  0.40547423  0.02115281  0.34307804  1
  S  S38  1  0.24415103  0.49755900  0.30930588  1
  S  S39  1  0.75842887  0.47573778  0.69103415  1
  S  S40  1  0.67279144  0.01695387  0.44962482  1
  S  S41  1  0.32975657  0.95644996  0.55352664  1
