# generated using pymatgen
data_Pr2Mn3(SbS3)4
_symmetry_space_group_name_H-M   'P 1'
_cell_length_a   20.02960800
_cell_length_b   3.90410600
_cell_length_c   14.95364829
_cell_angle_alpha   90.00000000
_cell_angle_beta   126.33350609
_cell_angle_gamma   90.00000000
_symmetry_Int_Tables_number   1
_chemical_formula_structural   Pr2Mn3(SbS3)4
_chemical_formula_sum   'Pr4 Mn6 Sb8 S24'
_cell_volume   942.00006694
_cell_formula_units_Z   2
loop_
 _symmetry_equiv_pos_site_id
 _symmetry_equiv_pos_as_xyz
  1  'x, y, z'
loop_
 _atom_site_type_symbol
 _atom_site_label
 _atom_site_symmetry_multiplicity
 _atom_site_fract_x
 _atom_site_fract_y
 _atom_site_fract_z
 _atom_site_occupancy
  Pr  Pr0  1  0.27046223  0.49650280  0.87944939  1
  Pr  Pr1  1  0.72764054  0.52954132  0.12999366  1
  Pr  Pr2  1  0.76300145  0.02061105  0.87329282  1
  Pr  Pr3  1  0.23246796  0.94938377  0.12846787  1
  Mn  Mn4  1  0.29933832  0.42495499  0.60950470  1
  Mn  Mn5  1  0.69231062  0.47853376  0.36748112  1
  Mn  Mn6  1  0.00957436  0.97070298  0.00776036  1
  Mn  Mn7  1  0.80142687  0.01424440  0.62483425  1
  Mn  Mn8  1  0.20404597  0.05830308  0.38408086  1
  Mn  Mn9  1  0.48170805  0.50404093  0.98067075  1
  Sb  Sb10  1  0.88714178  0.95761808  0.44871485  1
  Sb  Sb11  1  0.11424367  0.98631854  0.54834250  1
  Sb  Sb12  1  0.04213750  0.51932569  0.82887217  1
  Sb  Sb13  1  0.97205840  0.47974945  0.19836684  1
  Sb  Sb14  1  0.40343121  0.54907076  0.45350531  1
  Sb  Sb15  1  0.60625706  0.48212520  0.53741518  1
  Sb  Sb16  1  0.52166403  0.96494819  0.79271677  1
  Sb  Sb17  1  0.46856992  0.04981525  0.18055083  1
  S  S18  1  0.93564666  0.99473112  0.79460539  1
  S  S19  1  0.05400395  0.01023899  0.18301538  1
  S  S20  1  0.41335110  0.99526931  0.96861666  1
  S  S21  1  0.58166971  0.99421278  0.99812419  1
  S  S22  1  0.16717486  0.99406941  0.90046587  1
  S  S23  1  0.82635557  0.95608502  0.09727440  1
  S  S24  1  0.09344087  0.46902530  0.65465610  1
  S  S25  1  0.92103295  0.44414016  0.37170530  1
  S  S26  1  0.73123480  0.97512872  0.30308718  1
  S  S27  1  0.26593288  0.93434163  0.68790054  1
  S  S28  1  0.17341665  0.51989891  0.44414958  1
  S  S29  1  0.81191795  0.49489298  0.54474260  1
  S  S30  1  0.43243508  0.47086297  0.79498732  1
  S  S31  1  0.56122755  0.47397834  0.18174407  1
  S  S32  1  0.91356908  0.52086775  0.98783219  1
  S  S33  1  0.07941021  0.44359574  0.01900569  1
  S  S34  1  0.66310324  0.52080010  0.88752497  1
  S  S35  1  0.33556491  0.45196251  0.11203205  1
  S  S36  1  0.60060056  0.99530478  0.64475423  1
  S  S37  1  0.40539316  0.02066264  0.34310711  1
  S  S38  1  0.24422918  0.49803577  0.30925808  1
  S  S39  1  0.75832631  0.47544976  0.69086554  1
  S  S40  1  0.67282039  0.01649529  0.44938361  1
  S  S41  1  0.32949420  0.95692233  0.55307277  1
