# generated using pymatgen
data_Pr2Mn3(SbS3)4
_symmetry_space_group_name_H-M   'P 1'
_cell_length_a   20.02960800
_cell_length_b   3.90410600
_cell_length_c   14.95364829
_cell_angle_alpha   90.00000000
_cell_angle_beta   126.33350609
_cell_angle_gamma   90.00000000
_symmetry_Int_Tables_number   1
_chemical_formula_structural   Pr2Mn3(SbS3)4
_chemical_formula_sum   'Pr4 Mn6 Sb8 S24'
_cell_volume   942.00006694
_cell_formula_units_Z   2
loop_
 _symmetry_equiv_pos_site_id
 _symmetry_equiv_pos_as_xyz
  1  'x, y, z'
loop_
 _atom_site_type_symbol
 _atom_site_label
 _atom_site_symmetry_multiplicity
 _atom_site_fract_x
 _atom_site_fract_y
 _atom_site_fract_z
 _atom_site_occupancy
  Pr  Pr0  1  0.27045366  0.49572927  0.87939802  1
  Pr  Pr1  1  0.72764481  0.52897609  0.12999424  1
  Pr  Pr2  1  0.76295801  0.02057950  0.87317039  1
  Pr  Pr3  1  0.23238731  0.94900182  0.12828865  1
  Mn  Mn4  1  0.29931369  0.42381817  0.60942085  1
  Mn  Mn5  1  0.69243400  0.47865989  0.36751654  1
  Mn  Mn6  1  0.00940244  0.97059994  0.00774819  1
  Mn  Mn7  1  0.80165703  0.01433683  0.62492061  1
  Mn  Mn8  1  0.20418119  0.05893554  0.38409449  1
  Mn  Mn9  1  0.48146492  0.50465320  0.98077883  1
  Sb  Sb10  1  0.88722391  0.95737278  0.44890258  1
  Sb  Sb11  1  0.11425089  0.98602464  0.54830459  1
  Sb  Sb12  1  0.04208059  0.51895717  0.82895049  1
  Sb  Sb13  1  0.97207407  0.47960864  0.19836890  1
  Sb  Sb14  1  0.40338783  0.54990710  0.45352918  1
  Sb  Sb15  1  0.60609169  0.48223576  0.53712132  1
  Sb  Sb16  1  0.52167643  0.96433923  0.79266861  1
  Sb  Sb17  1  0.46848787  0.05010962  0.18046032  1
  S  S18  1  0.93563471  0.99565182  0.79491333  1
  S  S19  1  0.05375105  0.01013068  0.18294960  1
  S  S20  1  0.41321923  0.99593351  0.96859096  1
  S  S21  1  0.58187267  0.99359506  0.99810892  1
  S  S22  1  0.16736139  0.99368249  0.90071358  1
  S  S23  1  0.82623106  0.95644852  0.09718617  1
  S  S24  1  0.09343473  0.46954938  0.65464138  1
  S  S25  1  0.92095457  0.44376242  0.37146183  1
  S  S26  1  0.73119716  0.97587689  0.30294664  1
  S  S27  1  0.26577810  0.93292831  0.68791696  1
  S  S28  1  0.17318488  0.52014360  0.44423810  1
  S  S29  1  0.81181949  0.49569056  0.54460291  1
  S  S30  1  0.43259258  0.47097024  0.79509676  1
  S  S31  1  0.56124476  0.47475405  0.18185687  1
  S  S32  1  0.91349271  0.52220600  0.98774632  1
  S  S33  1  0.07947802  0.44263192  0.01915843  1
  S  S34  1  0.66299796  0.52108352  0.88749309  1
  S  S35  1  0.33593231  0.45156069  0.11236044  1
  S  S36  1  0.60056123  0.99522639  0.64521465  1
  S  S37  1  0.40540706  0.02048978  0.34310457  1
  S  S38  1  0.24427515  0.49827441  0.30920037  1
  S  S39  1  0.75836987  0.47494198  0.69083043  1
  S  S40  1  0.67278232  0.01554785  0.44917186  1
  S  S41  1  0.32903593  0.95704870  0.55246215  1
