# generated using pymatgen
data_Pr2Mn3(SbS3)4
_symmetry_space_group_name_H-M   'P 1'
_cell_length_a   20.02960800
_cell_length_b   3.90410600
_cell_length_c   14.95364829
_cell_angle_alpha   90.00000000
_cell_angle_beta   126.33350609
_cell_angle_gamma   90.00000000
_symmetry_Int_Tables_number   1
_chemical_formula_structural   Pr2Mn3(SbS3)4
_chemical_formula_sum   'Pr4 Mn6 Sb8 S24'
_cell_volume   942.00006694
_cell_formula_units_Z   2
loop_
 _symmetry_equiv_pos_site_id
 _symmetry_equiv_pos_as_xyz
  1  'x, y, z'
loop_
 _atom_site_type_symbol
 _atom_site_label
 _atom_site_symmetry_multiplicity
 _atom_site_fract_x
 _atom_site_fract_y
 _atom_site_fract_z
 _atom_site_occupancy
  Pr  Pr0  1  0.27047164  0.49504688  0.87930505  1
  Pr  Pr1  1  0.72769750  0.52844947  0.13007176  1
  Pr  Pr2  1  0.76292663  0.02054256  0.87298670  1
  Pr  Pr3  1  0.23229983  0.94854585  0.12814087  1
  Mn  Mn4  1  0.29922724  0.42281559  0.60933095  1
  Mn  Mn5  1  0.69258501  0.47925411  0.36752314  1
  Mn  Mn6  1  0.00920898  0.97073676  0.00755708  1
  Mn  Mn7  1  0.80185494  0.01467001  0.62494432  1
  Mn  Mn8  1  0.20430476  0.05924352  0.38399230  1
  Mn  Mn9  1  0.48127299  0.50492015  0.98083471  1
  Sb  Sb10  1  0.88728707  0.95697724  0.44904145  1
  Sb  Sb11  1  0.11427743  0.98586986  0.54827546  1
  Sb  Sb12  1  0.04203807  0.51870611  0.82899180  1
  Sb  Sb13  1  0.97214465  0.47930884  0.19836933  1
  Sb  Sb14  1  0.40339653  0.55066293  0.45356166  1
  Sb  Sb15  1  0.60588872  0.48228961  0.53685666  1
  Sb  Sb16  1  0.52177521  0.96387092  0.79266786  1
  Sb  Sb17  1  0.46844782  0.05015457  0.18040043  1
  S  S18  1  0.93564675  0.99614154  0.79522460  1
  S  S19  1  0.05351902  0.00990115  0.18303000  1
  S  S20  1  0.41307329  0.99653431  0.96851181  1
  S  S21  1  0.58202435  0.99338428  0.99809279  1
  S  S22  1  0.16749946  0.99334146  0.90084094  1
  S  S23  1  0.82607050  0.95670082  0.09690286  1
  S  S24  1  0.09345831  0.47007621  0.65453063  1
  S  S25  1  0.92095067  0.44360297  0.37120145  1
  S  S26  1  0.73122190  0.97658108  0.30279558  1
  S  S27  1  0.26566279  0.93191701  0.68785995  1
  S  S28  1  0.17309059  0.52037198  0.44444838  1
  S  S29  1  0.81165970  0.49576268  0.54451807  1
  S  S30  1  0.43265323  0.47112187  0.79512446  1
  S  S31  1  0.56134340  0.47541853  0.18203979  1
  S  S32  1  0.91354194  0.52357110  0.98782605  1
  S  S33  1  0.07963565  0.44141213  0.01948321  1
  S  S34  1  0.66298649  0.52107470  0.88759795  1
  S  S35  1  0.33618916  0.45110796  0.11261130  1
  S  S36  1  0.60040867  0.99515146  0.64555516  1
  S  S37  1  0.40541928  0.02032290  0.34309318  1
  S  S38  1  0.24422648  0.49877425  0.30907932  1
  S  S39  1  0.75852702  0.47457810  0.69098499  1
  S  S40  1  0.67271535  0.01483220  0.44900557  1
  S  S41  1  0.32855142  0.95698061  0.55157493  1
