# generated using pymatgen
data_Pr2Mn3(SbS3)4
_symmetry_space_group_name_H-M   'P 1'
_cell_length_a   20.02960800
_cell_length_b   3.90410600
_cell_length_c   14.95364829
_cell_angle_alpha   90.00000000
_cell_angle_beta   126.33350609
_cell_angle_gamma   90.00000000
_symmetry_Int_Tables_number   1
_chemical_formula_structural   Pr2Mn3(SbS3)4
_chemical_formula_sum   'Pr4 Mn6 Sb8 S24'
_cell_volume   942.00006694
_cell_formula_units_Z   2
loop_
 _symmetry_equiv_pos_site_id
 _symmetry_equiv_pos_as_xyz
  1  'x, y, z'
loop_
 _atom_site_type_symbol
 _atom_site_label
 _atom_site_symmetry_multiplicity
 _atom_site_fract_x
 _atom_site_fract_y
 _atom_site_fract_z
 _atom_site_occupancy
  Pr  Pr0  1  0.27044508  0.49443985  0.87913585  1
  Pr  Pr1  1  0.72771443  0.52802248  0.13010343  1
  Pr  Pr2  1  0.76292341  0.02054906  0.87285100  1
  Pr  Pr3  1  0.23228756  0.94807592  0.12801038  1
  Mn  Mn4  1  0.29912285  0.42210194  0.60939603  1
  Mn  Mn5  1  0.69266783  0.48022514  0.36753663  1
  Mn  Mn6  1  0.00893257  0.97111607  0.00729154  1
  Mn  Mn7  1  0.80204501  0.01482204  0.62496315  1
  Mn  Mn8  1  0.20444159  0.05960389  0.38394454  1
  Mn  Mn9  1  0.48117626  0.50509199  0.98095524  1
  Sb  Sb10  1  0.88739971  0.95684243  0.44915352  1
  Sb  Sb11  1  0.11426255  0.98592102  0.54826588  1
  Sb  Sb12  1  0.04197539  0.51824771  0.82908594  1
  Sb  Sb13  1  0.97214511  0.47897165  0.19830621  1
  Sb  Sb14  1  0.40339594  0.55148288  0.45356950  1
  Sb  Sb15  1  0.60578875  0.48235116  0.53668647  1
  Sb  Sb16  1  0.52195139  0.96327903  0.79270922  1
  Sb  Sb17  1  0.46840594  0.05035382  0.18026668  1
  S  S18  1  0.93563906  0.99681570  0.79547073  1
  S  S19  1  0.05307863  0.00949736  0.18286771  1
  S  S20  1  0.41308926  0.99724416  0.96858441  1
  S  S21  1  0.58225374  0.99335657  0.99821119  1
  S  S22  1  0.16767891  0.99357003  0.90105111  1
  S  S23  1  0.82591853  0.95667853  0.09658596  1
  S  S24  1  0.09335464  0.47053546  0.65447934  1
  S  S25  1  0.92105521  0.44332338  0.37111403  1
  S  S26  1  0.73123871  0.97738783  0.30265382  1
  S  S27  1  0.26555735  0.93071514  0.68790055  1
  S  S28  1  0.17301976  0.52042259  0.44466689  1
  S  S29  1  0.81155915  0.49533258  0.54447508  1
  S  S30  1  0.43262384  0.47117571  0.79514959  1
  S  S31  1  0.56147943  0.47601129  0.18219067  1
  S  S32  1  0.91351619  0.52448122  0.98798453  1
  S  S33  1  0.07992782  0.44046346  0.01979465  1
  S  S34  1  0.66293160  0.52123651  0.88747387  1
  S  S35  1  0.33634982  0.45133035  0.11291528  1
  S  S36  1  0.60019277  0.99521226  0.64590567  1
  S  S37  1  0.40538437  0.02004990  0.34294990  1
  S  S38  1  0.24402871  0.49934815  0.30906550  1
  S  S39  1  0.75869177  0.47406753  0.69115013  1
  S  S40  1  0.67272104  0.01403341  0.44875690  1
  S  S41  1  0.32826005  0.95682868  0.55088338  1
