# generated using pymatgen
data_Pr2Mn3(SbS3)4
_symmetry_space_group_name_H-M   'P 1'
_cell_length_a   20.02960800
_cell_length_b   3.90410600
_cell_length_c   14.95364829
_cell_angle_alpha   90.00000000
_cell_angle_beta   126.33350609
_cell_angle_gamma   90.00000000
_symmetry_Int_Tables_number   1
_chemical_formula_structural   Pr2Mn3(SbS3)4
_chemical_formula_sum   'Pr4 Mn6 Sb8 S24'
_cell_volume   942.00006694
_cell_formula_units_Z   2
loop_
 _symmetry_equiv_pos_site_id
 _symmetry_equiv_pos_as_xyz
  1  'x, y, z'
loop_
 _atom_site_type_symbol
 _atom_site_label
 _atom_site_symmetry_multiplicity
 _atom_site_fract_x
 _atom_site_fract_y
 _atom_site_fract_z
 _atom_site_occupancy
  Pr  Pr0  1  0.27039669  0.49377325  0.87902052  1
  Pr  Pr1  1  0.72770905  0.52768749  0.13013846  1
  Pr  Pr2  1  0.76288716  0.02049211  0.87265248  1
  Pr  Pr3  1  0.23231223  0.94774669  0.12793463  1
  Mn  Mn4  1  0.29904429  0.42121584  0.60949718  1
  Mn  Mn5  1  0.69275062  0.48103367  0.36754812  1
  Mn  Mn6  1  0.00875616  0.97127130  0.00704818  1
  Mn  Mn7  1  0.80223862  0.01487625  0.62494953  1
  Mn  Mn8  1  0.20454983  0.05986062  0.38393784  1
  Mn  Mn9  1  0.48106253  0.50494571  0.98102344  1
  Sb  Sb10  1  0.88752973  0.95648300  0.44934635  1
  Sb  Sb11  1  0.11419395  0.98593466  0.54816169  1
  Sb  Sb12  1  0.04192755  0.51778516  0.82922507  1
  Sb  Sb13  1  0.97209824  0.47848398  0.19822794  1
  Sb  Sb14  1  0.40336616  0.55216854  0.45356037  1
  Sb  Sb15  1  0.60571312  0.48227423  0.53660684  1
  Sb  Sb16  1  0.52209613  0.96243791  0.79275843  1
  Sb  Sb17  1  0.46835635  0.05064730  0.18019790  1
  S  S18  1  0.93561679  0.99764013  0.79543805  1
  S  S19  1  0.05264129  0.00891648  0.18278230  1
  S  S20  1  0.41305454  0.99761964  0.96855268  1
  S  S21  1  0.58243877  0.99357592  0.99830392  1
  S  S22  1  0.16786357  0.99411458  0.90135080  1
  S  S23  1  0.82586774  0.95659659  0.09650066  1
  S  S24  1  0.09329056  0.47092113  0.65446429  1
  S  S25  1  0.92107638  0.44285772  0.37084433  1
  S  S26  1  0.73119556  0.97789556  0.30253394  1
  S  S27  1  0.26545219  0.93016640  0.68782690  1
  S  S28  1  0.17295909  0.52003048  0.44480077  1
  S  S29  1  0.81152568  0.49458717  0.54430381  1
  S  S30  1  0.43241068  0.47127279  0.79510732  1
  S  S31  1  0.56159072  0.47638733  0.18234297  1
  S  S32  1  0.91335849  0.52530665  0.98799704  1
  S  S33  1  0.08024132  0.43986819  0.02014267  1
  S  S34  1  0.66284259  0.52074513  0.88738943  1
  S  S35  1  0.33656165  0.45125897  0.11322205  1
  S  S36  1  0.60007077  0.99488524  0.64624340  1
  S  S37  1  0.40534269  0.01973904  0.34296369  1
  S  S38  1  0.24376561  0.50023985  0.30892099  1
  S  S39  1  0.75882043  0.47319011  0.69129608  1
  S  S40  1  0.67264206  0.01279803  0.44851398  1
  S  S41  1  0.32792657  0.95685550  0.55035033  1
