# generated using pymatgen
data_Pr2Mn3(SbS3)4
_symmetry_space_group_name_H-M   'P 1'
_cell_length_a   20.02960800
_cell_length_b   3.90410600
_cell_length_c   14.95364829
_cell_angle_alpha   90.00000000
_cell_angle_beta   126.33350609
_cell_angle_gamma   90.00000000
_symmetry_Int_Tables_number   1
_chemical_formula_structural   Pr2Mn3(SbS3)4
_chemical_formula_sum   'Pr4 Mn6 Sb8 S24'
_cell_volume   942.00006694
_cell_formula_units_Z   2
loop_
 _symmetry_equiv_pos_site_id
 _symmetry_equiv_pos_as_xyz
  1  'x, y, z'
loop_
 _atom_site_type_symbol
 _atom_site_label
 _atom_site_symmetry_multiplicity
 _atom_site_fract_x
 _atom_site_fract_y
 _atom_site_fract_z
 _atom_site_occupancy
  Pr  Pr0  1  0.27032892  0.49326027  0.87887235  1
  Pr  Pr1  1  0.72768662  0.52741555  0.13015648  1
  Pr  Pr2  1  0.76283733  0.02006387  0.87242095  1
  Pr  Pr3  1  0.23230826  0.94750800  0.12784230  1
  Mn  Mn4  1  0.29889659  0.42020601  0.60950828  1
  Mn  Mn5  1  0.69273654  0.48192720  0.36753130  1
  Mn  Mn6  1  0.00853927  0.97158191  0.00678139  1
  Mn  Mn7  1  0.80237438  0.01489034  0.62489357  1
  Mn  Mn8  1  0.20461794  0.06030599  0.38401353  1
  Mn  Mn9  1  0.48100645  0.50455317  0.98101073  1
  Sb  Sb10  1  0.88768757  0.95552367  0.44958518  1
  Sb  Sb11  1  0.11416642  0.98593456  0.54810216  1
  Sb  Sb12  1  0.04188091  0.51745992  0.82931925  1
  Sb  Sb13  1  0.97210767  0.47795977  0.19813959  1
  Sb  Sb14  1  0.40328084  0.55271372  0.45348854  1
  Sb  Sb15  1  0.60567444  0.48244121  0.53655294  1
  Sb  Sb16  1  0.52220407  0.96150205  0.79280577  1
  Sb  Sb17  1  0.46835445  0.05099222  0.18011901  1
  S  S18  1  0.93564777  0.99798692  0.79553102  1
  S  S19  1  0.05236928  0.00847840  0.18284168  1
  S  S20  1  0.41298618  0.99793934  0.96860271  1
  S  S21  1  0.58261304  0.99365202  0.99842400  1
  S  S22  1  0.16797313  0.99500364  0.90152782  1
  S  S23  1  0.82579052  0.95649536  0.09637615  1
  S  S24  1  0.09330654  0.47082227  0.65457487  1
  S  S25  1  0.92111886  0.44235168  0.37061124  1
  S  S26  1  0.73120191  0.97847658  0.30237357  1
  S  S27  1  0.26531210  0.92905029  0.68773731  1
  S  S28  1  0.17293502  0.51983707  0.44494256  1
  S  S29  1  0.81147838  0.49402171  0.54411158  1
  S  S30  1  0.43230663  0.47135677  0.79505983  1
  S  S31  1  0.56164786  0.47713200  0.18239830  1
  S  S32  1  0.91324763  0.52554087  0.98806878  1
  S  S33  1  0.08046110  0.43943603  0.02043698  1
  S  S34  1  0.66275626  0.52051258  0.88725979  1
  S  S35  1  0.33682726  0.45122697  0.11365770  1
  S  S36  1  0.59978881  0.99402725  0.64646230  1
  S  S37  1  0.40531001  0.01957718  0.34298985  1
  S  S38  1  0.24347950  0.50133109  0.30881624  1
  S  S39  1  0.75901919  0.47239721  0.69150607  1
  S  S40  1  0.67254890  0.01198609  0.44837878  1
  S  S41  1  0.32769247  0.95693841  0.55001545  1
