# generated using pymatgen
data_Pr2Mn3(SbS3)4
_symmetry_space_group_name_H-M   'P 1'
_cell_length_a   20.02960800
_cell_length_b   3.90410600
_cell_length_c   14.95364829
_cell_angle_alpha   90.00000000
_cell_angle_beta   126.33350609
_cell_angle_gamma   90.00000000
_symmetry_Int_Tables_number   1
_chemical_formula_structural   Pr2Mn3(SbS3)4
_chemical_formula_sum   'Pr4 Mn6 Sb8 S24'
_cell_volume   942.00006694
_cell_formula_units_Z   2
loop_
 _symmetry_equiv_pos_site_id
 _symmetry_equiv_pos_as_xyz
  1  'x, y, z'
loop_
 _atom_site_type_symbol
 _atom_site_label
 _atom_site_symmetry_multiplicity
 _atom_site_fract_x
 _atom_site_fract_y
 _atom_site_fract_z
 _atom_site_occupancy
  Pr  Pr0  1  0.27021793  0.49268743  0.87873173  1
  Pr  Pr1  1  0.72765869  0.52713031  0.13019488  1
  Pr  Pr2  1  0.76278705  0.01978534  0.87220022  1
  Pr  Pr3  1  0.23228706  0.94734161  0.12772644  1
  Mn  Mn4  1  0.29880670  0.41906359  0.60955629  1
  Mn  Mn5  1  0.69274469  0.48280283  0.36759489  1
  Mn  Mn6  1  0.00842614  0.97164904  0.00660605  1
  Mn  Mn7  1  0.80252068  0.01439872  0.62490933  1
  Mn  Mn8  1  0.20464375  0.06068668  0.38397572  1
  Mn  Mn9  1  0.48092202  0.50433369  0.98098157  1
  Sb  Sb10  1  0.88788971  0.95448240  0.44994392  1
  Sb  Sb11  1  0.11410928  0.98599936  0.54799824  1
  Sb  Sb12  1  0.04185753  0.51736100  0.82946532  1
  Sb  Sb13  1  0.97203021  0.47728730  0.19800167  1
  Sb  Sb14  1  0.40326125  0.55331351  0.45353382  1
  Sb  Sb15  1  0.60564767  0.48271759  0.53652280  1
  Sb  Sb16  1  0.52235380  0.96060319  0.79287024  1
  Sb  Sb17  1  0.46839440  0.05147690  0.18003043  1
  S  S18  1  0.93574437  0.99837846  0.79564700  1
  S  S19  1  0.05211275  0.00785291  0.18295083  1
  S  S20  1  0.41294982  0.99842711  0.96877724  1
  S  S21  1  0.58269370  0.99392777  0.99845656  1
  S  S22  1  0.16815401  0.99585277  0.90171806  1
  S  S23  1  0.82574828  0.95675788  0.09635932  1
  S  S24  1  0.09328957  0.47054392  0.65468394  1
  S  S25  1  0.92131264  0.44126969  0.37041526  1
  S  S26  1  0.73121248  0.97946264  0.30211025  1
  S  S27  1  0.26506619  0.92828862  0.68754080  1
  S  S28  1  0.17285442  0.51982089  0.44510455  1
  S  S29  1  0.81142327  0.49309342  0.54388906  1
  S  S30  1  0.43218409  0.47102308  0.79504172  1
  S  S31  1  0.56160805  0.47735636  0.18237042  1
  S  S32  1  0.91314570  0.52625478  0.98805845  1
  S  S33  1  0.08078120  0.43942127  0.02073054  1
  S  S34  1  0.66267155  0.52003318  0.88717129  1
  S  S35  1  0.33710417  0.45133185  0.11405813  1
  S  S36  1  0.59957915  0.99305211  0.64666137  1
  S  S37  1  0.40525340  0.01929911  0.34286681  1
  S  S38  1  0.24327162  0.50238461  0.30875795  1
  S  S39  1  0.75923590  0.47164483  0.69167388  1
  S  S40  1  0.67245754  0.01114286  0.44828089  1
  S  S41  1  0.32750966  0.95640798  0.54970743  1
