# generated using pymatgen
data_Pr2Mn3(SbS3)4
_symmetry_space_group_name_H-M   'P 1'
_cell_length_a   20.02960800
_cell_length_b   3.90410600
_cell_length_c   14.95364829
_cell_angle_alpha   90.00000000
_cell_angle_beta   126.33350609
_cell_angle_gamma   90.00000000
_symmetry_Int_Tables_number   1
_chemical_formula_structural   Pr2Mn3(SbS3)4
_chemical_formula_sum   'Pr4 Mn6 Sb8 S24'
_cell_volume   942.00006694
_cell_formula_units_Z   2
loop_
 _symmetry_equiv_pos_site_id
 _symmetry_equiv_pos_as_xyz
  1  'x, y, z'
loop_
 _atom_site_type_symbol
 _atom_site_label
 _atom_site_symmetry_multiplicity
 _atom_site_fract_x
 _atom_site_fract_y
 _atom_site_fract_z
 _atom_site_occupancy
  Pr  Pr0  1  0.27005505  0.49201306  0.87857668  1
  Pr  Pr1  1  0.72763245  0.52690099  0.13020099  1
  Pr  Pr2  1  0.76271630  0.01936776  0.87198291  1
  Pr  Pr3  1  0.23220932  0.94743328  0.12754662  1
  Mn  Mn4  1  0.29865931  0.41767054  0.60940914  1
  Mn  Mn5  1  0.69280564  0.48383796  0.36782505  1
  Mn  Mn6  1  0.00845223  0.97139407  0.00656766  1
  Mn  Mn7  1  0.80259595  0.01423228  0.62488684  1
  Mn  Mn8  1  0.20460207  0.06084649  0.38391585  1
  Mn  Mn9  1  0.48082603  0.50427937  0.98090276  1
  Sb  Sb10  1  0.88805501  0.95361041  0.45028822  1
  Sb  Sb11  1  0.11408054  0.98586825  0.54791816  1
  Sb  Sb12  1  0.04185696  0.51709315  0.82961557  1
  Sb  Sb13  1  0.97196144  0.47663163  0.19783365  1
  Sb  Sb14  1  0.40325740  0.55390993  0.45357305  1
  Sb  Sb15  1  0.60558756  0.48293719  0.53651898  1
  Sb  Sb16  1  0.52246766  0.95996871  0.79289095  1
  Sb  Sb17  1  0.46846986  0.05194339  0.17991383  1
  S  S18  1  0.93577004  0.99868594  0.79573086  1
  S  S19  1  0.05194769  0.00775165  0.18305855  1
  S  S20  1  0.41300789  0.99940590  0.96903327  1
  S  S21  1  0.58278001  0.99447146  0.99851101  1
  S  S22  1  0.16820663  0.99660080  0.90182195  1
  S  S23  1  0.82562565  0.95698617  0.09626543  1
  S  S24  1  0.09334838  0.47055816  0.65488338  1
  S  S25  1  0.92152340  0.44004307  0.37022240  1
  S  S26  1  0.73120160  0.98021160  0.30183610  1
  S  S27  1  0.26475927  0.92730259  0.68717739  1
  S  S28  1  0.17275798  0.52002787  0.44517877  1
  S  S29  1  0.81131495  0.49240652  0.54348466  1
  S  S30  1  0.43216856  0.47068910  0.79513719  1
  S  S31  1  0.56154521  0.47794224  0.18222289  1
  S  S32  1  0.91313519  0.52667597  0.98819153  1
  S  S33  1  0.08107871  0.43974211  0.02109512  1
  S  S34  1  0.66259835  0.51975651  0.88701256  1
  S  S35  1  0.33726518  0.45141062  0.11438370  1
  S  S36  1  0.59940586  0.99221094  0.64674890  1
  S  S37  1  0.40530979  0.01869290  0.34275186  1
  S  S38  1  0.24317218  0.50345481  0.30879948  1
  S  S39  1  0.75929527  0.47159416  0.69171619  1
  S  S40  1  0.67242530  0.01066324  0.44810469  1
  S  S41  1  0.32732384  0.95653445  0.54946117  1
