# generated using pymatgen
data_Pr2Mn3(SbS3)4
_symmetry_space_group_name_H-M   'P 1'
_cell_length_a   20.02960800
_cell_length_b   3.90410600
_cell_length_c   14.95364829
_cell_angle_alpha   90.00000000
_cell_angle_beta   126.33350609
_cell_angle_gamma   90.00000000
_symmetry_Int_Tables_number   1
_chemical_formula_structural   Pr2Mn3(SbS3)4
_chemical_formula_sum   'Pr4 Mn6 Sb8 S24'
_cell_volume   942.00006694
_cell_formula_units_Z   2
loop_
 _symmetry_equiv_pos_site_id
 _symmetry_equiv_pos_as_xyz
  1  'x, y, z'
loop_
 _atom_site_type_symbol
 _atom_site_label
 _atom_site_symmetry_multiplicity
 _atom_site_fract_x
 _atom_site_fract_y
 _atom_site_fract_z
 _atom_site_occupancy
  Pr  Pr0  1  0.26989985  0.49151640  0.87843770  1
  Pr  Pr1  1  0.72758282  0.52649515  0.13014991  1
  Pr  Pr2  1  0.76263069  0.01886243  0.87178858  1
  Pr  Pr3  1  0.23216017  0.94764104  0.12739906  1
  Mn  Mn4  1  0.29859025  0.41597841  0.60913945  1
  Mn  Mn5  1  0.69284999  0.48446469  0.36798200  1
  Mn  Mn6  1  0.00850871  0.97114308  0.00644955  1
  Mn  Mn7  1  0.80262256  0.01463901  0.62492030  1
  Mn  Mn8  1  0.20456308  0.06112459  0.38385954  1
  Mn  Mn9  1  0.48076871  0.50416002  0.98084984  1
  Sb  Sb10  1  0.88817165  0.95291181  0.45053492  1
  Sb  Sb11  1  0.11408993  0.98557730  0.54792423  1
  Sb  Sb12  1  0.04185046  0.51626912  0.82972087  1
  Sb  Sb13  1  0.97190828  0.47623423  0.19761356  1
  Sb  Sb14  1  0.40316960  0.55427898  0.45350746  1
  Sb  Sb15  1  0.60552065  0.48304087  0.53646897  1
  Sb  Sb16  1  0.52259650  0.95931883  0.79299439  1
  Sb  Sb17  1  0.46856111  0.05246014  0.17976719  1
  S  S18  1  0.93579364  0.99840030  0.79584062  1
  S  S19  1  0.05179177  0.00765529  0.18323329  1
  S  S20  1  0.41307944  0.00035119  0.96936940  1
  S  S21  1  0.58284088  0.99498664  0.99853433  1
  S  S22  1  0.16832502  0.99723686  0.90206896  1
  S  S23  1  0.82564463  0.95702440  0.09630724  1
  S  S24  1  0.09344015  0.47072132  0.65509297  1
  S  S25  1  0.92165272  0.43920298  0.36989023  1
  S  S26  1  0.73137702  0.98100012  0.30173164  1
  S  S27  1  0.26451161  0.92662975  0.68676342  1
  S  S28  1  0.17270776  0.52003953  0.44524150  1
  S  S29  1  0.81121121  0.49146775  0.54309268  1
  S  S30  1  0.43213340  0.47001862  0.79517410  1
  S  S31  1  0.56147676  0.47857639  0.18202494  1
  S  S32  1  0.91302794  0.52699717  0.98829702  1
  S  S33  1  0.08139623  0.44003889  0.02147857  1
  S  S34  1  0.66252096  0.51932272  0.88684886  1
  S  S35  1  0.33740815  0.45143872  0.11468436  1
  S  S36  1  0.59920793  0.99160806  0.64685506  1
  S  S37  1  0.40540473  0.01764431  0.34253141  1
  S  S38  1  0.24301516  0.50424581  0.30872200  1
  S  S39  1  0.75924275  0.47160351  0.69181018  1
  S  S40  1  0.67246827  0.01042469  0.44796355  1
  S  S41  1  0.32709914  0.95681113  0.54928419  1
