# generated using pymatgen
data_Pr2Mn3(SbS3)4
_symmetry_space_group_name_H-M   'P 1'
_cell_length_a   20.02960800
_cell_length_b   3.90410600
_cell_length_c   14.95364829
_cell_angle_alpha   90.00000000
_cell_angle_beta   126.33350609
_cell_angle_gamma   90.00000000
_symmetry_Int_Tables_number   1
_chemical_formula_structural   Pr2Mn3(SbS3)4
_chemical_formula_sum   'Pr4 Mn6 Sb8 S24'
_cell_volume   942.00006694
_cell_formula_units_Z   2
loop_
 _symmetry_equiv_pos_site_id
 _symmetry_equiv_pos_as_xyz
  1  'x, y, z'
loop_
 _atom_site_type_symbol
 _atom_site_label
 _atom_site_symmetry_multiplicity
 _atom_site_fract_x
 _atom_site_fract_y
 _atom_site_fract_z
 _atom_site_occupancy
  Pr  Pr0  1  0.26459579  0.48367852  0.86924923  1
  Pr  Pr1  1  0.73726194  0.50652775  0.13508486  1
  Pr  Pr2  1  0.76192303  0.00872497  0.86178680  1
  Pr  Pr3  1  0.23779214  0.99801330  0.14031081  1
  Mn  Mn4  1  0.29782338  0.50169581  0.61619951  1
  Mn  Mn5  1  0.69651310  0.50691385  0.38019480  1
  Mn  Mn6  1  0.00195024  0.99665192  0.99809209  1
  Mn  Mn7  1  0.80342248  0.99071720  0.61519359  1
  Mn  Mn8  1  0.19843185  0.97794953  0.37965556  1
  Mn  Mn9  1  0.50170370  0.47961231  0.99479827  1
  Sb  Sb10  1  0.89355113  0.00632451  0.45403702  1
  Sb  Sb11  1  0.10877142  0.97843863  0.55126061  1
  Sb  Sb12  1  0.03890194  0.48792881  0.81591498  1
  Sb  Sb13  1  0.96174991  0.51937073  0.18716737  1
  Sb  Sb14  1  0.39607216  0.49294227  0.45725076  1
  Sb  Sb15  1  0.60713300  0.49994169  0.54941038  1
  Sb  Sb16  1  0.53689463  0.00462578  0.81623552  1
  Sb  Sb17  1  0.46201108  0.00238551  0.18040507  1
  S  S18  1  0.93551391  0.97755242  0.79704137  1
  S  S19  1  0.06205946  0.99941569  0.19233944  1
  S  S20  1  0.40867005  0.99974099  0.97840525  1
  S  S21  1  0.59163517  0.99109261  0.01605789  1
  S  S22  1  0.17083863  0.99062246  0.89875889  1
  S  S23  1  0.82830163  0.01610548  0.10449081  1
  S  S24  1  0.08438580  0.47765029  0.64198031  1
  S  S25  1  0.91467899  0.48174925  0.36042938  1
  S  S26  1  0.74254023  0.94499810  0.29393483  1
  S  S27  1  0.25757381  0.00012268  0.70331505  1
  S  S28  1  0.16322551  0.49205370  0.44548102  1
  S  S29  1  0.83061177  0.48395495  0.54978257  1
  S  S30  1  0.43610432  0.51025911  0.80207839  1
  S  S31  1  0.56056141  0.51743841  0.19045865  1
  S  S32  1  0.90209413  0.48446892  0.97613244  1
  S  S33  1  0.08813821  0.48638944  0.01707666  1
  S  S34  1  0.66375839  0.50492260  0.89449626  1
  S  S35  1  0.32995014  0.52103099  0.09942994  1
  S  S36  1  0.59176169  0.01054436  0.64987565  1
  S  S37  1  0.41386127  0.96618712  0.35826969  1
  S  S38  1  0.24358624  0.48344459  0.30062501  1
  S  S39  1  0.76042765  0.49955998  0.69736719  1
  S  S40  1  0.66925484  0.01487271  0.46215756  1
  S  S41  1  0.33043266  0.98234648  0.54124130  1
