# generated using pymatgen
data_Pr2Mn3(SbS3)4
_symmetry_space_group_name_H-M   'P 1'
_cell_length_a   20.02960800
_cell_length_b   3.90410600
_cell_length_c   14.95364829
_cell_angle_alpha   90.00000000
_cell_angle_beta   126.33350609
_cell_angle_gamma   90.00000000
_symmetry_Int_Tables_number   1
_chemical_formula_structural   Pr2Mn3(SbS3)4
_chemical_formula_sum   'Pr4 Mn6 Sb8 S24'
_cell_volume   942.00006694
_cell_formula_units_Z   2
loop_
 _symmetry_equiv_pos_site_id
 _symmetry_equiv_pos_as_xyz
  1  'x, y, z'
loop_
 _atom_site_type_symbol
 _atom_site_label
 _atom_site_symmetry_multiplicity
 _atom_site_fract_x
 _atom_site_fract_y
 _atom_site_fract_z
 _atom_site_occupancy
  Pr  Pr0  1  0.26978954  0.49099440  0.87838259  1
  Pr  Pr1  1  0.72747110  0.52609321  0.13003034  1
  Pr  Pr2  1  0.76256251  0.01815176  0.87164483  1
  Pr  Pr3  1  0.23216405  0.94783644  0.12733632  1
  Mn  Mn4  1  0.29857084  0.41435067  0.60889002  1
  Mn  Mn5  1  0.69300420  0.48504764  0.36817744  1
  Mn  Mn6  1  0.00853954  0.97088489  0.00630451  1
  Mn  Mn7  1  0.80270298  0.01490927  0.62494498  1
  Mn  Mn8  1  0.20453921  0.06146477  0.38389526  1
  Mn  Mn9  1  0.48071600  0.50403172  0.98080491  1
  Sb  Sb10  1  0.88833688  0.95203681  0.45076528  1
  Sb  Sb11  1  0.11406657  0.98502213  0.54788282  1
  Sb  Sb12  1  0.04190413  0.51564835  0.82979599  1
  Sb  Sb13  1  0.97180766  0.47579336  0.19733972  1
  Sb  Sb14  1  0.40311586  0.55464613  0.45350650  1
  Sb  Sb15  1  0.60550880  0.48318404  0.53650707  1
  Sb  Sb16  1  0.52275364  0.95875512  0.79312539  1
  Sb  Sb17  1  0.46859553  0.05285385  0.17955247  1
  S  S18  1  0.93588289  0.99838264  0.79586967  1
  S  S19  1  0.05160587  0.00787283  0.18343734  1
  S  S20  1  0.41313462  0.00099643  0.96970853  1
  S  S21  1  0.58290306  0.99536711  0.99865587  1
  S  S22  1  0.16843904  0.99775595  0.90233565  1
  S  S23  1  0.82564788  0.95658120  0.09632207  1
  S  S24  1  0.09369556  0.47130735  0.65535064  1
  S  S25  1  0.92170779  0.43816100  0.36962167  1
  S  S26  1  0.73156920  0.98124498  0.30154211  1
  S  S27  1  0.26428405  0.92585681  0.68624281  1
  S  S28  1  0.17263397  0.52041983  0.44519238  1
  S  S29  1  0.81121317  0.49076824  0.54289850  1
  S  S30  1  0.43209419  0.46974318  0.79514913  1
  S  S31  1  0.56135075  0.47977720  0.18166150  1
  S  S32  1  0.91301768  0.52753738  0.98840550  1
  S  S33  1  0.08159718  0.44050995  0.02173181  1
  S  S34  1  0.66249016  0.51898184  0.88667104  1
  S  S35  1  0.33735242  0.45192007  0.11477379  1
  S  S36  1  0.59917203  0.99146575  0.64700630  1
  S  S37  1  0.40540877  0.01657731  0.34226185  1
  S  S38  1  0.24285097  0.50504369  0.30875010  1
  S  S39  1  0.75928397  0.47143112  0.69184237  1
  S  S40  1  0.67248484  0.01020054  0.44791881  1
  S  S41  1  0.32690235  0.95693359  0.54904189  1
