# generated using pymatgen
data_Pr2Mn3(SbS3)4
_symmetry_space_group_name_H-M   'P 1'
_cell_length_a   20.02960800
_cell_length_b   3.90410600
_cell_length_c   14.95364829
_cell_angle_alpha   90.00000000
_cell_angle_beta   126.33350609
_cell_angle_gamma   90.00000000
_symmetry_Int_Tables_number   1
_chemical_formula_structural   Pr2Mn3(SbS3)4
_chemical_formula_sum   'Pr4 Mn6 Sb8 S24'
_cell_volume   942.00006694
_cell_formula_units_Z   2
loop_
 _symmetry_equiv_pos_site_id
 _symmetry_equiv_pos_as_xyz
  1  'x, y, z'
loop_
 _atom_site_type_symbol
 _atom_site_label
 _atom_site_symmetry_multiplicity
 _atom_site_fract_x
 _atom_site_fract_y
 _atom_site_fract_z
 _atom_site_occupancy
  Pr  Pr0  1  0.26964844  0.49050407  0.87825704  1
  Pr  Pr1  1  0.72735742  0.52591141  0.12994331  1
  Pr  Pr2  1  0.76252287  0.01722549  0.87154643  1
  Pr  Pr3  1  0.23219936  0.94827137  0.12735916  1
  Mn  Mn4  1  0.29848643  0.41303376  0.60864195  1
  Mn  Mn5  1  0.69311265  0.48560089  0.36838891  1
  Mn  Mn6  1  0.00862672  0.97037416  0.00625915  1
  Mn  Mn7  1  0.80270188  0.01538711  0.62490070  1
  Mn  Mn8  1  0.20451122  0.06181001  0.38393576  1
  Mn  Mn9  1  0.48067289  0.50350699  0.98074005  1
  Sb  Sb10  1  0.88854176  0.95111027  0.45092412  1
  Sb  Sb11  1  0.11402767  0.98454649  0.54783415  1
  Sb  Sb12  1  0.04194884  0.51485698  0.82984409  1
  Sb  Sb13  1  0.97175206  0.47537807  0.19708230  1
  Sb  Sb14  1  0.40299070  0.55507147  0.45346262  1
  Sb  Sb15  1  0.60548336  0.48345056  0.53653258  1
  Sb  Sb16  1  0.52292277  0.95830485  0.79325443  1
  Sb  Sb17  1  0.46862955  0.05310770  0.17935804  1
  S  S18  1  0.93605730  0.99816824  0.79590472  1
  S  S19  1  0.05141203  0.00790950  0.18357548  1
  S  S20  1  0.41314818  0.00083333  0.96993352  1
  S  S21  1  0.58308085  0.99536586  0.99902397  1
  S  S22  1  0.16858781  0.99853133  0.90262799  1
  S  S23  1  0.82562385  0.95598167  0.09635976  1
  S  S24  1  0.09385981  0.47202525  0.65552439  1
  S  S25  1  0.92167573  0.43736889  0.36945032  1
  S  S26  1  0.73169893  0.98146478  0.30123200  1
  S  S27  1  0.26398457  0.92529339  0.68564872  1
  S  S28  1  0.17253828  0.52096002  0.44514917  1
  S  S29  1  0.81109466  0.49038206  0.54270203  1
  S  S30  1  0.43204628  0.46979661  0.79513709  1
  S  S31  1  0.56126049  0.48127679  0.18131884  1
  S  S32  1  0.91293337  0.52792570  0.98843094  1
  S  S33  1  0.08191991  0.44071759  0.02202873  1
  S  S34  1  0.66246005  0.51868771  0.88651163  1
  S  S35  1  0.33737219  0.45306036  0.11493761  1
  S  S36  1  0.59912599  0.99119386  0.64728930  1
  S  S37  1  0.40535512  0.01643394  0.34198636  1
  S  S38  1  0.24279237  0.50635513  0.30888590  1
  S  S39  1  0.75941184  0.47140688  0.69187649  1
  S  S40  1  0.67253602  0.00997866  0.44788490  1
  S  S41  1  0.32690561  0.95682108  0.54900860  1
