# generated using pymatgen
data_Pr2Mn3(SbS3)4
_symmetry_space_group_name_H-M   'P 1'
_cell_length_a   20.02960800
_cell_length_b   3.90410600
_cell_length_c   14.95364829
_cell_angle_alpha   90.00000000
_cell_angle_beta   126.33350609
_cell_angle_gamma   90.00000000
_symmetry_Int_Tables_number   1
_chemical_formula_structural   Pr2Mn3(SbS3)4
_chemical_formula_sum   'Pr4 Mn6 Sb8 S24'
_cell_volume   942.00006694
_cell_formula_units_Z   2
loop_
 _symmetry_equiv_pos_site_id
 _symmetry_equiv_pos_as_xyz
  1  'x, y, z'
loop_
 _atom_site_type_symbol
 _atom_site_label
 _atom_site_symmetry_multiplicity
 _atom_site_fract_x
 _atom_site_fract_y
 _atom_site_fract_z
 _atom_site_occupancy
  Pr  Pr0  1  0.26952908  0.48991779  0.87806303  1
  Pr  Pr1  1  0.72724123  0.52584508  0.12985083  1
  Pr  Pr2  1  0.76242556  0.01649338  0.87147409  1
  Pr  Pr3  1  0.23224322  0.94852635  0.12735509  1
  Mn  Mn4  1  0.29835814  0.41173566  0.60831834  1
  Mn  Mn5  1  0.69310123  0.48572375  0.36848304  1
  Mn  Mn6  1  0.00871571  0.96971324  0.00623258  1
  Mn  Mn7  1  0.80260707  0.01552583  0.62483120  1
  Mn  Mn8  1  0.20445188  0.06229851  0.38401868  1
  Mn  Mn9  1  0.48076974  0.50311294  0.98078591  1
  Sb  Sb10  1  0.88866958  0.95036098  0.45100105  1
  Sb  Sb11  1  0.11404160  0.98412138  0.54784351  1
  Sb  Sb12  1  0.04200598  0.51419264  0.82987160  1
  Sb  Sb13  1  0.97174427  0.47517261  0.19685887  1
  Sb  Sb14  1  0.40281292  0.55537242  0.45336621  1
  Sb  Sb15  1  0.60549261  0.48347816  0.53651138  1
  Sb  Sb16  1  0.52308007  0.95807690  0.79337516  1
  Sb  Sb17  1  0.46868926  0.05334953  0.17920702  1
  S  S18  1  0.93612721  0.99787346  0.79586807  1
  S  S19  1  0.05124908  0.00807823  0.18378731  1
  S  S20  1  0.41317371  0.00094840  0.97021542  1
  S  S21  1  0.58328380  0.99535306  0.99953850  1
  S  S22  1  0.16885609  0.99896786  0.90292569  1
  S  S23  1  0.82570069  0.95548249  0.09659009  1
  S  S24  1  0.09407752  0.47248430  0.65569294  1
  S  S25  1  0.92161734  0.43700306  0.36941614  1
  S  S26  1  0.73170743  0.98196352  0.30085957  1
  S  S27  1  0.26366342  0.92519594  0.68496132  1
  S  S28  1  0.17230493  0.52091595  0.44507755  1
  S  S29  1  0.81108271  0.49006318  0.54271727  1
  S  S30  1  0.43199989  0.47004308  0.79507728  1
  S  S31  1  0.56117216  0.48271376  0.18102499  1
  S  S32  1  0.91294126  0.52804751  0.98856665  1
  S  S33  1  0.08220048  0.44070595  0.02238708  1
  S  S34  1  0.66244282  0.51848621  0.88630791  1
  S  S35  1  0.33738199  0.45388640  0.11503846  1
  S  S36  1  0.59917886  0.99094528  0.64754414  1
  S  S37  1  0.40516081  0.01637785  0.34161406  1
  S  S38  1  0.24264415  0.50760042  0.30899295  1
  S  S39  1  0.75952905  0.47128857  0.69194230  1
  S  S40  1  0.67267662  0.00970153  0.44800034  1
  S  S41  1  0.32690987  0.95667477  0.54893428  1
