# generated using pymatgen
data_Pr2Mn3(SbS3)4
_symmetry_space_group_name_H-M   'P 1'
_cell_length_a   20.02960800
_cell_length_b   3.90410600
_cell_length_c   14.95364829
_cell_angle_alpha   90.00000000
_cell_angle_beta   126.33350609
_cell_angle_gamma   90.00000000
_symmetry_Int_Tables_number   1
_chemical_formula_structural   Pr2Mn3(SbS3)4
_chemical_formula_sum   'Pr4 Mn6 Sb8 S24'
_cell_volume   942.00006694
_cell_formula_units_Z   2
loop_
 _symmetry_equiv_pos_site_id
 _symmetry_equiv_pos_as_xyz
  1  'x, y, z'
loop_
 _atom_site_type_symbol
 _atom_site_label
 _atom_site_symmetry_multiplicity
 _atom_site_fract_x
 _atom_site_fract_y
 _atom_site_fract_z
 _atom_site_occupancy
  Pr  Pr0  1  0.26937008  0.48927280  0.87782951  1
  Pr  Pr1  1  0.72714395  0.52564023  0.12976579  1
  Pr  Pr2  1  0.76236620  0.01607873  0.87140013  1
  Pr  Pr3  1  0.23228202  0.94860135  0.12735098  1
  Mn  Mn4  1  0.29828450  0.41035447  0.60805468  1
  Mn  Mn5  1  0.69313228  0.48623389  0.36850136  1
  Mn  Mn6  1  0.00877287  0.96895851  0.00614314  1
  Mn  Mn7  1  0.80249378  0.01568584  0.62465908  1
  Mn  Mn8  1  0.20445066  0.06280317  0.38408203  1
  Mn  Mn9  1  0.48090851  0.50294184  0.98088665  1
  Sb  Sb10  1  0.88875202  0.94974403  0.45112696  1
  Sb  Sb11  1  0.11399465  0.98373731  0.54773435  1
  Sb  Sb12  1  0.04199446  0.51367566  0.82995862  1
  Sb  Sb13  1  0.97175802  0.47491820  0.19672179  1
  Sb  Sb14  1  0.40267761  0.55572989  0.45326324  1
  Sb  Sb15  1  0.60547165  0.48351116  0.53642972  1
  Sb  Sb16  1  0.52318441  0.95796536  0.79347881  1
  Sb  Sb17  1  0.46868893  0.05316127  0.17902855  1
  S  S18  1  0.93619283  0.99755336  0.79587218  1
  S  S19  1  0.05106237  0.00817804  0.18403149  1
  S  S20  1  0.41313445  0.00067031  0.97039315  1
  S  S21  1  0.58344266  0.99505594  0.00005539  1
  S  S22  1  0.16906558  0.99949926  0.90328959  1
  S  S23  1  0.82580390  0.95495674  0.09686379  1
  S  S24  1  0.09436551  0.47254191  0.65579229  1
  S  S25  1  0.92142893  0.43665428  0.36918284  1
  S  S26  1  0.73173926  0.98175697  0.30052030  1
  S  S27  1  0.26339310  0.92463449  0.68453570  1
  S  S28  1  0.17195608  0.52088717  0.44481423  1
  S  S29  1  0.81118596  0.49022492  0.54270493  1
  S  S30  1  0.43195356  0.47026619  0.79510399  1
  S  S31  1  0.56107813  0.48367865  0.18069128  1
  S  S32  1  0.91295737  0.52765266  0.98861741  1
  S  S33  1  0.08243086  0.44096603  0.02266719  1
  S  S34  1  0.66248206  0.51818875  0.88602508  1
  S  S35  1  0.33729610  0.45484832  0.11511750  1
  S  S36  1  0.59916954  0.99113416  0.64771488  1
  S  S37  1  0.40486782  0.01625680  0.34124795  1
  S  S38  1  0.24244225  0.50881071  0.30917823  1
  S  S39  1  0.75966734  0.47085502  0.69203068  1
  S  S40  1  0.67281107  0.00943614  0.44804825  1
  S  S41  1  0.32694079  0.95636898  0.54879856  1
