# generated using pymatgen
data_Pr2Mn3(SbS3)4
_symmetry_space_group_name_H-M   'P 1'
_cell_length_a   20.02960800
_cell_length_b   3.90410600
_cell_length_c   14.95364829
_cell_angle_alpha   90.00000000
_cell_angle_beta   126.33350609
_cell_angle_gamma   90.00000000
_symmetry_Int_Tables_number   1
_chemical_formula_structural   Pr2Mn3(SbS3)4
_chemical_formula_sum   'Pr4 Mn6 Sb8 S24'
_cell_volume   942.00006694
_cell_formula_units_Z   2
loop_
 _symmetry_equiv_pos_site_id
 _symmetry_equiv_pos_as_xyz
  1  'x, y, z'
loop_
 _atom_site_type_symbol
 _atom_site_label
 _atom_site_symmetry_multiplicity
 _atom_site_fract_x
 _atom_site_fract_y
 _atom_site_fract_z
 _atom_site_occupancy
  Pr  Pr0  1  0.26927202  0.48891631  0.87767383  1
  Pr  Pr1  1  0.72705383  0.52556125  0.12966489  1
  Pr  Pr2  1  0.76219641  0.01574169  0.87123501  1
  Pr  Pr3  1  0.23234021  0.94882925  0.12736346  1
  Mn  Mn4  1  0.29818806  0.40893478  0.60777711  1
  Mn  Mn5  1  0.69319470  0.48637151  0.36857697  1
  Mn  Mn6  1  0.00872761  0.96855823  0.00601907  1
  Mn  Mn7  1  0.80238925  0.01610444  0.62455797  1
  Mn  Mn8  1  0.20443142  0.06335553  0.38404753  1
  Mn  Mn9  1  0.48107037  0.50228982  0.98096918  1
  Sb  Sb10  1  0.88879983  0.94911037  0.45118342  1
  Sb  Sb11  1  0.11389024  0.98339462  0.54758855  1
  Sb  Sb12  1  0.04190145  0.51311833  0.82998155  1
  Sb  Sb13  1  0.97169961  0.47458440  0.19649377  1
  Sb  Sb14  1  0.40250848  0.55622335  0.45310134  1
  Sb  Sb15  1  0.60543379  0.48369875  0.53637022  1
  Sb  Sb16  1  0.52328790  0.95797066  0.79353972  1
  Sb  Sb17  1  0.46872940  0.05330437  0.17888403  1
  S  S18  1  0.93622291  0.99787215  0.79574330  1
  S  S19  1  0.05093871  0.00882954  0.18433316  1
  S  S20  1  0.41313729  0.00026585  0.97064496  1
  S  S21  1  0.58361696  0.99452564  0.00057589  1
  S  S22  1  0.16921190  0.99961043  0.90366500  1
  S  S23  1  0.82589407  0.95428710  0.09698680  1
  S  S24  1  0.09461406  0.47265505  0.65595902  1
  S  S25  1  0.92128545  0.43600544  0.36898428  1
  S  S26  1  0.73167709  0.98143580  0.30020919  1
  S  S27  1  0.26322579  0.92460430  0.68428511  1
  S  S28  1  0.17179080  0.52089635  0.44476196  1
  S  S29  1  0.81140222  0.49047352  0.54274738  1
  S  S30  1  0.43186405  0.47011137  0.79503794  1
  S  S31  1  0.56100573  0.48461784  0.18032916  1
  S  S32  1  0.91304129  0.52739874  0.98868043  1
  S  S33  1  0.08262308  0.44116303  0.02305260  1
  S  S34  1  0.66254041  0.51762258  0.88585440  1
  S  S35  1  0.33722033  0.45536150  0.11525887  1
  S  S36  1  0.59909038  0.99135530  0.64778545  1
  S  S37  1  0.40455599  0.01609517  0.34094342  1
  S  S38  1  0.24221101  0.51017343  0.30930823  1
  S  S39  1  0.75961267  0.47010974  0.69190483  1
  S  S40  1  0.67289472  0.00910874  0.44822603  1
  S  S41  1  0.32712031  0.95518469  0.54890127  1
