# generated using pymatgen
data_Pr2Mn3(SbS3)4
_symmetry_space_group_name_H-M   'P 1'
_cell_length_a   20.02960800
_cell_length_b   3.90410600
_cell_length_c   14.95364829
_cell_angle_alpha   90.00000000
_cell_angle_beta   126.33350609
_cell_angle_gamma   90.00000000
_symmetry_Int_Tables_number   1
_chemical_formula_structural   Pr2Mn3(SbS3)4
_chemical_formula_sum   'Pr4 Mn6 Sb8 S24'
_cell_volume   942.00006694
_cell_formula_units_Z   2
loop_
 _symmetry_equiv_pos_site_id
 _symmetry_equiv_pos_as_xyz
  1  'x, y, z'
loop_
 _atom_site_type_symbol
 _atom_site_label
 _atom_site_symmetry_multiplicity
 _atom_site_fract_x
 _atom_site_fract_y
 _atom_site_fract_z
 _atom_site_occupancy
  Pr  Pr0  1  0.26916367  0.48848760  0.87755947  1
  Pr  Pr1  1  0.72700655  0.52539966  0.12965484  1
  Pr  Pr2  1  0.76202022  0.01517016  0.87107564  1
  Pr  Pr3  1  0.23237903  0.94888660  0.12740404  1
  Mn  Mn4  1  0.29804072  0.40783060  0.60747880  1
  Mn  Mn5  1  0.69334869  0.48640977  0.36868057  1
  Mn  Mn6  1  0.00869013  0.96836826  0.00593069  1
  Mn  Mn7  1  0.80230396  0.01623098  0.62447797  1
  Mn  Mn8  1  0.20432452  0.06402973  0.38393802  1
  Mn  Mn9  1  0.48117329  0.50136484  0.98094319  1
  Sb  Sb10  1  0.88892677  0.94859677  0.45133080  1
  Sb  Sb11  1  0.11375861  0.98330308  0.54742349  1
  Sb  Sb12  1  0.04181776  0.51260549  0.83007038  1
  Sb  Sb13  1  0.97163129  0.47449025  0.19629334  1
  Sb  Sb14  1  0.40241717  0.55649843  0.45297683  1
  Sb  Sb15  1  0.60544836  0.48401235  0.53628697  1
  Sb  Sb16  1  0.52335763  0.95811753  0.79360292  1
  Sb  Sb17  1  0.46881847  0.05361198  0.17884009  1
  S  S18  1  0.93613032  0.99812021  0.79548183  1
  S  S19  1  0.05084328  0.00964479  0.18468587  1
  S  S20  1  0.41325713  0.99981505  0.97085906  1
  S  S21  1  0.58375532  0.99403919  0.00118880  1
  S  S22  1  0.16934686  0.99957874  0.90386547  1
  S  S23  1  0.82593795  0.95370047  0.09706520  1
  S  S24  1  0.09474501  0.47241745  0.65606229  1
  S  S25  1  0.92128090  0.43512890  0.36897171  1
  S  S26  1  0.73161817  0.98137352  0.29991520  1
  S  S27  1  0.26297576  0.92479012  0.68398012  1
  S  S28  1  0.17169769  0.52084467  0.44480758  1
  S  S29  1  0.81153105  0.49004652  0.54252597  1
  S  S30  1  0.43179632  0.46985192  0.79484210  1
  S  S31  1  0.56093832  0.48609264  0.18010059  1
  S  S32  1  0.91311692  0.52683491  0.98888671  1
  S  S33  1  0.08287910  0.44174635  0.02347044  1
  S  S34  1  0.66258704  0.51709858  0.88563234  1
  S  S35  1  0.33715664  0.45559882  0.11544540  1
  S  S36  1  0.59894767  0.99185895  0.64782067  1
  S  S37  1  0.40430729  0.01589357  0.34069633  1
  S  S38  1  0.24207118  0.51152409  0.30950117  1
  S  S39  1  0.75949135  0.46973194  0.69169663  1
  S  S40  1  0.67296468  0.00887957  0.44838820  1
  S  S41  1  0.32726475  0.95373597  0.54904728  1
