# generated using pymatgen
data_Pr2Mn3(SbS3)4
_symmetry_space_group_name_H-M   'P 1'
_cell_length_a   20.02960800
_cell_length_b   3.90410600
_cell_length_c   14.95364829
_cell_angle_alpha   90.00000000
_cell_angle_beta   126.33350609
_cell_angle_gamma   90.00000000
_symmetry_Int_Tables_number   1
_chemical_formula_structural   Pr2Mn3(SbS3)4
_chemical_formula_sum   'Pr4 Mn6 Sb8 S24'
_cell_volume   942.00006694
_cell_formula_units_Z   2
loop_
 _symmetry_equiv_pos_site_id
 _symmetry_equiv_pos_as_xyz
  1  'x, y, z'
loop_
 _atom_site_type_symbol
 _atom_site_label
 _atom_site_symmetry_multiplicity
 _atom_site_fract_x
 _atom_site_fract_y
 _atom_site_fract_z
 _atom_site_occupancy
  Pr  Pr0  1  0.26906181  0.48816873  0.87740901  1
  Pr  Pr1  1  0.72693072  0.52534765  0.12962159  1
  Pr  Pr2  1  0.76189677  0.01484844  0.87095576  1
  Pr  Pr3  1  0.23248479  0.94881348  0.12750111  1
  Mn  Mn4  1  0.29791694  0.40696352  0.60729386  1
  Mn  Mn5  1  0.69349463  0.48636228  0.36880692  1
  Mn  Mn6  1  0.00861300  0.96808469  0.00584602  1
  Mn  Mn7  1  0.80214144  0.01638734  0.62435800  1
  Mn  Mn8  1  0.20425363  0.06493238  0.38392585  1
  Mn  Mn9  1  0.48118684  0.50028138  0.98077826  1
  Sb  Sb10  1  0.88897098  0.94800268  0.45140754  1
  Sb  Sb11  1  0.11360543  0.98354533  0.54732214  1
  Sb  Sb12  1  0.04177393  0.51192178  0.83012380  1
  Sb  Sb13  1  0.97155161  0.47435346  0.19607376  1
  Sb  Sb14  1  0.40237170  0.55663239  0.45288010  1
  Sb  Sb15  1  0.60544572  0.48422548  0.53623389  1
  Sb  Sb16  1  0.52338243  0.95820603  0.79362569  1
  Sb  Sb17  1  0.46890021  0.05371878  0.17883641  1
  S  S18  1  0.93608375  0.99875773  0.79522404  1
  S  S19  1  0.05077695  0.01074752  0.18492289  1
  S  S20  1  0.41348282  0.99963894  0.97118876  1
  S  S21  1  0.58399639  0.99298342  0.00195374  1
  S  S22  1  0.16941355  0.99964998  0.90403284  1
  S  S23  1  0.82591714  0.95345343  0.09700195  1
  S  S24  1  0.09477865  0.47175236  0.65624630  1
  S  S25  1  0.92122849  0.43456927  0.36889067  1
  S  S26  1  0.73158945  0.98193832  0.29967838  1
  S  S27  1  0.26283430  0.92550259  0.68380075  1
  S  S28  1  0.17175673  0.52066878  0.44496721  1
  S  S29  1  0.81166356  0.48970814  0.54226004  1
  S  S30  1  0.43152371  0.46971762  0.79457541  1
  S  S31  1  0.56087667  0.48690622  0.17989801  1
  S  S32  1  0.91320519  0.52659954  0.98906018  1
  S  S33  1  0.08321710  0.44163486  0.02399408  1
  S  S34  1  0.66274542  0.51619901  0.88566260  1
  S  S35  1  0.33711633  0.45575343  0.11565099  1
  S  S36  1  0.59878963  0.99258935  0.64781612  1
  S  S37  1  0.40399152  0.01584122  0.34041918  1
  S  S38  1  0.24197709  0.51240643  0.30981339  1
  S  S39  1  0.75928003  0.46904658  0.69136587  1
  S  S40  1  0.67303803  0.00832341  0.44852727  1
  S  S41  1  0.32730808  0.95219368  0.54910771  1
