# generated using pymatgen
data_Pr2Mn3(SbS3)4
_symmetry_space_group_name_H-M   'P 1'
_cell_length_a   20.02960800
_cell_length_b   3.90410600
_cell_length_c   14.95364829
_cell_angle_alpha   90.00000000
_cell_angle_beta   126.33350609
_cell_angle_gamma   90.00000000
_symmetry_Int_Tables_number   1
_chemical_formula_structural   Pr2Mn3(SbS3)4
_chemical_formula_sum   'Pr4 Mn6 Sb8 S24'
_cell_volume   942.00006694
_cell_formula_units_Z   2
loop_
 _symmetry_equiv_pos_site_id
 _symmetry_equiv_pos_as_xyz
  1  'x, y, z'
loop_
 _atom_site_type_symbol
 _atom_site_label
 _atom_site_symmetry_multiplicity
 _atom_site_fract_x
 _atom_site_fract_y
 _atom_site_fract_z
 _atom_site_occupancy
  Pr  Pr0  1  0.26893836  0.48781000  0.87726317  1
  Pr  Pr1  1  0.72682939  0.52542629  0.12963413  1
  Pr  Pr2  1  0.76180215  0.01475210  0.87088340  1
  Pr  Pr3  1  0.23261067  0.94869424  0.12760725  1
  Mn  Mn4  1  0.29788731  0.40638313  0.60721873  1
  Mn  Mn5  1  0.69358048  0.48634417  0.36885498  1
  Mn  Mn6  1  0.00851061  0.96781856  0.00571324  1
  Mn  Mn7  1  0.80209594  0.01652137  0.62428720  1
  Mn  Mn8  1  0.20424242  0.06592207  0.38394811  1
  Mn  Mn9  1  0.48110296  0.49923012  0.98064301  1
  Sb  Sb10  1  0.88899884  0.94753427  0.45150053  1
  Sb  Sb11  1  0.11345472  0.98377885  0.54727904  1
  Sb  Sb12  1  0.04175491  0.51159473  0.83017009  1
  Sb  Sb13  1  0.97145083  0.47439745  0.19584450  1
  Sb  Sb14  1  0.40237294  0.55671195  0.45280362  1
  Sb  Sb15  1  0.60542386  0.48438280  0.53604294  1
  Sb  Sb16  1  0.52354127  0.95827703  0.79381230  1
  Sb  Sb17  1  0.46898839  0.05350244  0.17883785  1
  S  S18  1  0.93606357  0.99883797  0.79499431  1
  S  S19  1  0.05067810  0.01199749  0.18515781  1
  S  S20  1  0.41379068  0.99937761  0.97153475  1
  S  S21  1  0.58427417  0.99239644  0.00279429  1
  S  S22  1  0.16945600  0.99990494  0.90419951  1
  S  S23  1  0.82584463  0.95319760  0.09685445  1
  S  S24  1  0.09474338  0.47140555  0.65627708  1
  S  S25  1  0.92102565  0.43407392  0.36879784  1
  S  S26  1  0.73155047  0.98275245  0.29944205  1
  S  S27  1  0.26284222  0.92596435  0.68364226  1
  S  S28  1  0.17167541  0.51995391  0.44509165  1
  S  S29  1  0.81177587  0.48898394  0.54208270  1
  S  S30  1  0.43133977  0.46988964  0.79435368  1
  S  S31  1  0.56088591  0.48792834  0.17986289  1
  S  S32  1  0.91329473  0.52633057  0.98922810  1
  S  S33  1  0.08350959  0.44124427  0.02440691  1
  S  S34  1  0.66294642  0.51516638  0.88571559  1
  S  S35  1  0.33698116  0.45586892  0.11568842  1
  S  S36  1  0.59863899  0.99324653  0.64777394  1
  S  S37  1  0.40371217  0.01587456  0.34028775  1
  S  S38  1  0.24193894  0.51275354  0.31008348  1
  S  S39  1  0.75912807  0.46866288  0.69097891  1
  S  S40  1  0.67306755  0.00799298  0.44869214  1
  S  S41  1  0.32733821  0.95052673  0.54911191  1
