# generated using pymatgen
data_Pr2Mn3(SbS3)4
_symmetry_space_group_name_H-M   'P 1'
_cell_length_a   20.02960800
_cell_length_b   3.90410600
_cell_length_c   14.95364829
_cell_angle_alpha   90.00000000
_cell_angle_beta   126.33350609
_cell_angle_gamma   90.00000000
_symmetry_Int_Tables_number   1
_chemical_formula_structural   Pr2Mn3(SbS3)4
_chemical_formula_sum   'Pr4 Mn6 Sb8 S24'
_cell_volume   942.00006694
_cell_formula_units_Z   2
loop_
 _symmetry_equiv_pos_site_id
 _symmetry_equiv_pos_as_xyz
  1  'x, y, z'
loop_
 _atom_site_type_symbol
 _atom_site_label
 _atom_site_symmetry_multiplicity
 _atom_site_fract_x
 _atom_site_fract_y
 _atom_site_fract_z
 _atom_site_occupancy
  Pr  Pr0  1  0.26882807  0.48744953  0.87718180  1
  Pr  Pr1  1  0.72681157  0.52563415  0.12966378  1
  Pr  Pr2  1  0.76171222  0.01462792  0.87074579  1
  Pr  Pr3  1  0.23281161  0.94871656  0.12781121  1
  Mn  Mn4  1  0.29790013  0.40588871  0.60725893  1
  Mn  Mn5  1  0.69365954  0.48637415  0.36894603  1
  Mn  Mn6  1  0.00833201  0.96788167  0.00555260  1
  Mn  Mn7  1  0.80209889  0.01669270  0.62419307  1
  Mn  Mn8  1  0.20422322  0.06728744  0.38384463  1
  Mn  Mn9  1  0.48099379  0.49795926  0.98046762  1
  Sb  Sb10  1  0.88911125  0.94713051  0.45162698  1
  Sb  Sb11  1  0.11332707  0.98429889  0.54728739  1
  Sb  Sb12  1  0.04173505  0.51135295  0.83023191  1
  Sb  Sb13  1  0.97131234  0.47445855  0.19559390  1
  Sb  Sb14  1  0.40237084  0.55676540  0.45270498  1
  Sb  Sb15  1  0.60540919  0.48438060  0.53591016  1
  Sb  Sb16  1  0.52365404  0.95850252  0.79393744  1
  Sb  Sb17  1  0.46902963  0.05321633  0.17881201  1
  S  S18  1  0.93613442  0.99894701  0.79497021  1
  S  S19  1  0.05044380  0.01270379  0.18519505  1
  S  S20  1  0.41412887  0.99913428  0.97194833  1
  S  S21  1  0.58443229  0.99177797  0.00348418  1
  S  S22  1  0.16948998  0.00023209  0.90429719  1
  S  S23  1  0.82587514  0.95253905  0.09684586  1
  S  S24  1  0.09470534  0.47182097  0.65624856  1
  S  S25  1  0.92081534  0.43373298  0.36868383  1
  S  S26  1  0.73155406  0.98325526  0.29918066  1
  S  S27  1  0.26288176  0.92653512  0.68347304  1
  S  S28  1  0.17151319  0.51925211  0.44517360  1
  S  S29  1  0.81186753  0.48837378  0.54199848  1
  S  S30  1  0.43126586  0.47018541  0.79415931  1
  S  S31  1  0.56095498  0.48871470  0.17996208  1
  S  S32  1  0.91333002  0.52644751  0.98940598  1
  S  S33  1  0.08375647  0.44074332  0.02477024  1
  S  S34  1  0.66309579  0.51441925  0.88575601  1
  S  S35  1  0.33694714  0.45562138  0.11573629  1
  S  S36  1  0.59855345  0.99405935  0.64780193  1
  S  S37  1  0.40350036  0.01589500  0.34023163  1
  S  S38  1  0.24188401  0.51332751  0.31036982  1
  S  S39  1  0.75900512  0.46822626  0.69054456  1
  S  S40  1  0.67315191  0.00704385  0.44880231  1
  S  S41  1  0.32734387  0.94869853  0.54910973  1
