# generated using pymatgen
data_Pr2Mn3(SbS3)4
_symmetry_space_group_name_H-M   'P 1'
_cell_length_a   20.02960800
_cell_length_b   3.90410600
_cell_length_c   14.95364829
_cell_angle_alpha   90.00000000
_cell_angle_beta   126.33350609
_cell_angle_gamma   90.00000000
_symmetry_Int_Tables_number   1
_chemical_formula_structural   Pr2Mn3(SbS3)4
_chemical_formula_sum   'Pr4 Mn6 Sb8 S24'
_cell_volume   942.00006694
_cell_formula_units_Z   2
loop_
 _symmetry_equiv_pos_site_id
 _symmetry_equiv_pos_as_xyz
  1  'x, y, z'
loop_
 _atom_site_type_symbol
 _atom_site_label
 _atom_site_symmetry_multiplicity
 _atom_site_fract_x
 _atom_site_fract_y
 _atom_site_fract_z
 _atom_site_occupancy
  Pr  Pr0  1  0.26875888  0.48712029  0.87711260  1
  Pr  Pr1  1  0.72678664  0.52583930  0.12964251  1
  Pr  Pr2  1  0.76156363  0.01459236  0.87055947  1
  Pr  Pr3  1  0.23296086  0.94892826  0.12793671  1
  Mn  Mn4  1  0.29802494  0.40554647  0.60733946  1
  Mn  Mn5  1  0.69376489  0.48667175  0.36907669  1
  Mn  Mn6  1  0.00816001  0.96770952  0.00534320  1
  Mn  Mn7  1  0.80203328  0.01650346  0.62413518  1
  Mn  Mn8  1  0.20430155  0.06849578  0.38401914  1
  Mn  Mn9  1  0.48097031  0.49687365  0.98036091  1
  Sb  Sb10  1  0.88910992  0.94684980  0.45172226  1
  Sb  Sb11  1  0.11324244  0.98472355  0.54739372  1
  Sb  Sb12  1  0.04169138  0.51104277  0.83023003  1
  Sb  Sb13  1  0.97122004  0.47423578  0.19542602  1
  Sb  Sb14  1  0.40228333  0.55658784  0.45252778  1
  Sb  Sb15  1  0.60537610  0.48445956  0.53578784  1
  Sb  Sb16  1  0.52375830  0.95884811  0.79410274  1
  Sb  Sb17  1  0.46906321  0.05273972  0.17881905  1
  S  S18  1  0.93623184  0.99840349  0.79501785  1
  S  S19  1  0.05039984  0.01321797  0.18518056  1
  S  S20  1  0.41441837  0.99882469  0.97226880  1
  S  S21  1  0.58455676  0.99152173  0.00401689  1
  S  S22  1  0.16954621  0.00032152  0.90440564  1
  S  S23  1  0.82589095  0.95223597  0.09683908  1
  S  S24  1  0.09467182  0.47242425  0.65622325  1
  S  S25  1  0.92048811  0.43340451  0.36839352  1
  S  S26  1  0.73164883  0.98271725  0.29896317  1
  S  S27  1  0.26288343  0.92763044  0.68330054  1
  S  S28  1  0.17141039  0.51826587  0.44519048  1
  S  S29  1  0.81193744  0.48779137  0.54186816  1
  S  S30  1  0.43112109  0.46982005  0.79379162  1
  S  S31  1  0.56099154  0.48928697  0.17995807  1
  S  S32  1  0.91343996  0.52627399  0.98987171  1
  S  S33  1  0.08394421  0.44025472  0.02501234  1
  S  S34  1  0.66322877  0.51364134  0.88583802  1
  S  S35  1  0.33685216  0.45485175  0.11564374  1
  S  S36  1  0.59847231  0.99491882  0.64791443  1
  S  S37  1  0.40338330  0.01608936  0.34029999  1
  S  S38  1  0.24181622  0.51419589  0.31071618  1
  S  S39  1  0.75892123  0.46757946  0.69012827  1
  S  S40  1  0.67331975  0.00647027  0.44892048  1
  S  S41  1  0.32735292  0.94687250  0.54923212  1
