# generated using pymatgen
data_Pr2Mn3(SbS3)4
_symmetry_space_group_name_H-M   'P 1'
_cell_length_a   20.02960800
_cell_length_b   3.90410600
_cell_length_c   14.95364829
_cell_angle_alpha   90.00000000
_cell_angle_beta   126.33350609
_cell_angle_gamma   90.00000000
_symmetry_Int_Tables_number   1
_chemical_formula_structural   Pr2Mn3(SbS3)4
_chemical_formula_sum   'Pr4 Mn6 Sb8 S24'
_cell_volume   942.00006694
_cell_formula_units_Z   2
loop_
 _symmetry_equiv_pos_site_id
 _symmetry_equiv_pos_as_xyz
  1  'x, y, z'
loop_
 _atom_site_type_symbol
 _atom_site_label
 _atom_site_symmetry_multiplicity
 _atom_site_fract_x
 _atom_site_fract_y
 _atom_site_fract_z
 _atom_site_occupancy
  Pr  Pr0  1  0.26472759  0.48297224  0.86946220  1
  Pr  Pr1  1  0.73711334  0.50662832  0.13496676  1
  Pr  Pr2  1  0.76184428  0.00865164  0.86159981  1
  Pr  Pr3  1  0.23776340  0.99809189  0.14043294  1
  Mn  Mn4  1  0.29774714  0.50151978  0.61607304  1
  Mn  Mn5  1  0.69638441  0.50695367  0.38005372  1
  Mn  Mn6  1  0.00188959  0.99627582  0.99812369  1
  Mn  Mn7  1  0.80348288  0.98993405  0.61540363  1
  Mn  Mn8  1  0.19838367  0.97751129  0.37984956  1
  Mn  Mn9  1  0.50170604  0.47951068  0.99455771  1
  Sb  Sb10  1  0.89340383  0.00594426  0.45415534  1
  Sb  Sb11  1  0.10883271  0.97832234  0.55117602  1
  Sb  Sb12  1  0.03899763  0.48867597  0.81590287  1
  Sb  Sb13  1  0.96180651  0.52011419  0.18722725  1
  Sb  Sb14  1  0.39624353  0.49391132  0.45734138  1
  Sb  Sb15  1  0.60710558  0.49938118  0.54933172  1
  Sb  Sb16  1  0.53692559  0.00511719  0.81621441  1
  Sb  Sb17  1  0.46206707  0.00216894  0.18048409  1
  S  S18  1  0.93557179  0.97784917  0.79709808  1
  S  S19  1  0.06234109  0.99929388  0.19243583  1
  S  S20  1  0.40881834  0.00022169  0.97831735  1
  S  S21  1  0.59163352  0.99070430  0.01625171  1
  S  S22  1  0.17093029  0.99093653  0.89846105  1
  S  S23  1  0.82823367  0.01670164  0.10416970  1
  S  S24  1  0.08448447  0.47686183  0.64211977  1
  S  S25  1  0.91473521  0.48219819  0.36059512  1
  S  S26  1  0.74246461  0.94466946  0.29398754  1
  S  S27  1  0.25763369  0.00022417  0.70324325  1
  S  S28  1  0.16321000  0.49196289  0.44548496  1
  S  S29  1  0.83057923  0.48375769  0.54982674  1
  S  S30  1  0.43594164  0.51017017  0.80229832  1
  S  S31  1  0.56064804  0.51802816  0.19049397  1
  S  S32  1  0.90213840  0.48550155  0.97620761  1
  S  S33  1  0.08788399  0.48771953  0.01713110  1
  S  S34  1  0.66376798  0.50560909  0.89432092  1
  S  S35  1  0.32994339  0.52133912  0.09951443  1
  S  S36  1  0.59154832  0.01073611  0.64950683  1
  S  S37  1  0.41377891  0.96586352  0.35798111  1
  S  S38  1  0.24358336  0.48434048  0.30092924  1
  S  S39  1  0.76027928  0.49915339  0.69700396  1
  S  S40  1  0.66972391  0.01569455  0.46231400  1
  S  S41  1  0.33037949  0.98308655  0.54135854  1
