# generated using pymatgen
data_Pr2Mn3(SbS3)4
_symmetry_space_group_name_H-M   'P 1'
_cell_length_a   20.02960800
_cell_length_b   3.90410600
_cell_length_c   14.95364829
_cell_angle_alpha   90.00000000
_cell_angle_beta   126.33350609
_cell_angle_gamma   90.00000000
_symmetry_Int_Tables_number   1
_chemical_formula_structural   Pr2Mn3(SbS3)4
_chemical_formula_sum   'Pr4 Mn6 Sb8 S24'
_cell_volume   942.00006694
_cell_formula_units_Z   2
loop_
 _symmetry_equiv_pos_site_id
 _symmetry_equiv_pos_as_xyz
  1  'x, y, z'
loop_
 _atom_site_type_symbol
 _atom_site_label
 _atom_site_symmetry_multiplicity
 _atom_site_fract_x
 _atom_site_fract_y
 _atom_site_fract_z
 _atom_site_occupancy
  Pr  Pr0  1  0.26871304  0.48675851  0.87709963  1
  Pr  Pr1  1  0.72681168  0.52591803  0.12960220  1
  Pr  Pr2  1  0.76145970  0.01479316  0.87042487  1
  Pr  Pr3  1  0.23315497  0.94896257  0.12803276  1
  Mn  Mn4  1  0.29794719  0.40504604  0.60729493  1
  Mn  Mn5  1  0.69394604  0.48689880  0.36925196  1
  Mn  Mn6  1  0.00806716  0.96704023  0.00519663  1
  Mn  Mn7  1  0.80190915  0.01593962  0.62402434  1
  Mn  Mn8  1  0.20438556  0.06964716  0.38417174  1
  Mn  Mn9  1  0.48096064  0.49592192  0.98018983  1
  Sb  Sb10  1  0.88913097  0.94680948  0.45183647  1
  Sb  Sb11  1  0.11311763  0.98493304  0.54752652  1
  Sb  Sb12  1  0.04168476  0.51091710  0.83026039  1
  Sb  Sb13  1  0.97111787  0.47411160  0.19530813  1
  Sb  Sb14  1  0.40218239  0.55647458  0.45230426  1
  Sb  Sb15  1  0.60524402  0.48421382  0.53561743  1
  Sb  Sb16  1  0.52384264  0.95909787  0.79419183  1
  Sb  Sb17  1  0.46913569  0.05251242  0.17889321  1
  S  S18  1  0.93630424  0.99791044  0.79511497  1
  S  S19  1  0.05038193  0.01303206  0.18518696  1
  S  S20  1  0.41474739  0.99816841  0.97256429  1
  S  S21  1  0.58479886  0.99147903  0.00463342  1
  S  S22  1  0.16973948  0.99999329  0.90466598  1
  S  S23  1  0.82587578  0.95231807  0.09667009  1
  S  S24  1  0.09467728  0.47278598  0.65622754  1
  S  S25  1  0.92023231  0.43317844  0.36809163  1
  S  S26  1  0.73177479  0.98203108  0.29875517  1
  S  S27  1  0.26288878  0.92859148  0.68310107  1
  S  S28  1  0.17143637  0.51771927  0.44524912  1
  S  S29  1  0.81208480  0.48651000  0.54175132  1
  S  S30  1  0.43088798  0.46969570  0.79345624  1
  S  S31  1  0.56103734  0.49032652  0.17994837  1
  S  S32  1  0.91362390  0.52589221  0.99028100  1
  S  S33  1  0.08399139  0.43950286  0.02520724  1
  S  S34  1  0.66335861  0.51282772  0.88594688  1
  S  S35  1  0.33661842  0.45434701  0.11563658  1
  S  S36  1  0.59845558  0.99622767  0.64798022  1
  S  S37  1  0.40318444  0.01655069  0.34024520  1
  S  S38  1  0.24166616  0.51451733  0.31103408  1
  S  S39  1  0.75901505  0.46749611  0.69000906  1
  S  S40  1  0.67337420  0.00550491  0.44906085  1
  S  S41  1  0.32741369  0.94519459  0.54937164  1
