# generated using pymatgen
data_Pr2Mn3(SbS3)4
_symmetry_space_group_name_H-M   'P 1'
_cell_length_a   20.02960800
_cell_length_b   3.90410600
_cell_length_c   14.95364829
_cell_angle_alpha   90.00000000
_cell_angle_beta   126.33350609
_cell_angle_gamma   90.00000000
_symmetry_Int_Tables_number   1
_chemical_formula_structural   Pr2Mn3(SbS3)4
_chemical_formula_sum   'Pr4 Mn6 Sb8 S24'
_cell_volume   942.00006694
_cell_formula_units_Z   2
loop_
 _symmetry_equiv_pos_site_id
 _symmetry_equiv_pos_as_xyz
  1  'x, y, z'
loop_
 _atom_site_type_symbol
 _atom_site_label
 _atom_site_symmetry_multiplicity
 _atom_site_fract_x
 _atom_site_fract_y
 _atom_site_fract_z
 _atom_site_occupancy
  Pr  Pr0  1  0.26871710  0.48657836  0.87719315  1
  Pr  Pr1  1  0.72682718  0.52609903  0.12953580  1
  Pr  Pr2  1  0.76137534  0.01487949  0.87033931  1
  Pr  Pr3  1  0.23327934  0.94869051  0.12805899  1
  Mn  Mn4  1  0.29784150  0.40432622  0.60719744  1
  Mn  Mn5  1  0.69410524  0.48713703  0.36950473  1
  Mn  Mn6  1  0.00795931  0.96687860  0.00503321  1
  Mn  Mn7  1  0.80181826  0.01499124  0.62397554  1
  Mn  Mn8  1  0.20442329  0.07057207  0.38432520  1
  Mn  Mn9  1  0.48104522  0.49479392  0.98008332  1
  Sb  Sb10  1  0.88907402  0.94701693  0.45186090  1
  Sb  Sb11  1  0.11302466  0.98497479  0.54770745  1
  Sb  Sb12  1  0.04162037  0.51075724  0.83021612  1
  Sb  Sb13  1  0.97103875  0.47392140  0.19528650  1
  Sb  Sb14  1  0.40205336  0.55625418  0.45211147  1
  Sb  Sb15  1  0.60514725  0.48417215  0.53547920  1
  Sb  Sb16  1  0.52392070  0.95930432  0.79431396  1
  Sb  Sb17  1  0.46925319  0.05223030  0.17898517  1
  S  S18  1  0.93641449  0.99716073  0.79522509  1
  S  S19  1  0.05042350  0.01285341  0.18517016  1
  S  S20  1  0.41493946  0.99761367  0.97272544  1
  S  S21  1  0.58503451  0.99105169  0.00542339  1
  S  S22  1  0.16996683  0.00016471  0.90489505  1
  S  S23  1  0.82578488  0.95233968  0.09651318  1
  S  S24  1  0.09474780  0.47353775  0.65622984  1
  S  S25  1  0.91995345  0.43252491  0.36776544  1
  S  S26  1  0.73189482  0.98160723  0.29862696  1
  S  S27  1  0.26285562  0.92983931  0.68289735  1
  S  S28  1  0.17147272  0.51706106  0.44534688  1
  S  S29  1  0.81228219  0.48505509  0.54161267  1
  S  S30  1  0.43065155  0.46969348  0.79303385  1
  S  S31  1  0.56101356  0.49102181  0.17991730  1
  S  S32  1  0.91371776  0.52589196  0.99048073  1
  S  S33  1  0.08393166  0.43865532  0.02533367  1
  S  S34  1  0.66345730  0.51226885  0.88597181  1
  S  S35  1  0.33643720  0.45378949  0.11570745  1
  S  S36  1  0.59843087  0.99718434  0.64794141  1
  S  S37  1  0.40314402  0.01668923  0.34037018  1
  S  S38  1  0.24156624  0.51477830  0.31148305  1
  S  S39  1  0.75912006  0.46743902  0.68994534  1
  S  S40  1  0.67324957  0.00518404  0.44895000  1
  S  S41  1  0.32740367  0.94342264  0.54938839  1
