# generated using pymatgen
data_Pr2Mn3(SbS3)4
_symmetry_space_group_name_H-M   'P 1'
_cell_length_a   20.02960800
_cell_length_b   3.90410600
_cell_length_c   14.95364829
_cell_angle_alpha   90.00000000
_cell_angle_beta   126.33350609
_cell_angle_gamma   90.00000000
_symmetry_Int_Tables_number   1
_chemical_formula_structural   Pr2Mn3(SbS3)4
_chemical_formula_sum   'Pr4 Mn6 Sb8 S24'
_cell_volume   942.00006694
_cell_formula_units_Z   2
loop_
 _symmetry_equiv_pos_site_id
 _symmetry_equiv_pos_as_xyz
  1  'x, y, z'
loop_
 _atom_site_type_symbol
 _atom_site_label
 _atom_site_symmetry_multiplicity
 _atom_site_fract_x
 _atom_site_fract_y
 _atom_site_fract_z
 _atom_site_occupancy
  Pr  Pr0  1  0.26870390  0.48641707  0.87728050  1
  Pr  Pr1  1  0.72683469  0.52579516  0.12945614  1
  Pr  Pr2  1  0.76133956  0.01491874  0.87027362  1
  Pr  Pr3  1  0.23339915  0.94836041  0.12810105  1
  Mn  Mn4  1  0.29778615  0.40375190  0.60702753  1
  Mn  Mn5  1  0.69434121  0.48782676  0.36974936  1
  Mn  Mn6  1  0.00785130  0.96691123  0.00480874  1
  Mn  Mn7  1  0.80175585  0.01401753  0.62399208  1
  Mn  Mn8  1  0.20441634  0.07151352  0.38437348  1
  Mn  Mn9  1  0.48114289  0.49353699  0.98003238  1
  Sb  Sb10  1  0.88895861  0.94721588  0.45188965  1
  Sb  Sb11  1  0.11293962  0.98485587  0.54785206  1
  Sb  Sb12  1  0.04155907  0.51039822  0.83014983  1
  Sb  Sb13  1  0.97086423  0.47400838  0.19515118  1
  Sb  Sb14  1  0.40196360  0.55603709  0.45200562  1
  Sb  Sb15  1  0.60509668  0.48424590  0.53536513  1
  Sb  Sb16  1  0.52392823  0.95934045  0.79439316  1
  Sb  Sb17  1  0.46937981  0.05194030  0.17911553  1
  S  S18  1  0.93651934  0.99679074  0.79537951  1
  S  S19  1  0.05055198  0.01304209  0.18518266  1
  S  S20  1  0.41505902  0.99758602  0.97286999  1
  S  S21  1  0.58523105  0.99078111  0.00608492  1
  S  S22  1  0.17022105  0.00053352  0.90529237  1
  S  S23  1  0.82576316  0.95247994  0.09649949  1
  S  S24  1  0.09465526  0.47403597  0.65617028  1
  S  S25  1  0.91977878  0.43194866  0.36769760  1
  S  S26  1  0.73207613  0.98158932  0.29857352  1
  S  S27  1  0.26273683  0.93044545  0.68264191  1
  S  S28  1  0.17154212  0.51612504  0.44539790  1
  S  S29  1  0.81249637  0.48400845  0.54153806  1
  S  S30  1  0.43044207  0.46966317  0.79257340  1
  S  S31  1  0.56100392  0.49093662  0.17995592  1
  S  S32  1  0.91379375  0.52646489  0.99070716  1
  S  S33  1  0.08368938  0.43778932  0.02531679  1
  S  S34  1  0.66345890  0.51186742  0.88606487  1
  S  S35  1  0.33650333  0.45349057  0.11593416  1
  S  S36  1  0.59838833  0.99846730  0.64785195  1
  S  S37  1  0.40305724  0.01692921  0.34032640  1
  S  S38  1  0.24154889  0.51448175  0.31201300  1
  S  S39  1  0.75924655  0.46786669  0.68994429  1
  S  S40  1  0.67307495  0.00533488  0.44872806  1
  S  S41  1  0.32741724  0.94183535  0.54935355  1
