# generated using pymatgen
data_Pr2Mn3(SbS3)4
_symmetry_space_group_name_H-M   'P 1'
_cell_length_a   20.02960800
_cell_length_b   3.90410600
_cell_length_c   14.95364829
_cell_angle_alpha   90.00000000
_cell_angle_beta   126.33350609
_cell_angle_gamma   90.00000000
_symmetry_Int_Tables_number   1
_chemical_formula_structural   Pr2Mn3(SbS3)4
_chemical_formula_sum   'Pr4 Mn6 Sb8 S24'
_cell_volume   942.00006694
_cell_formula_units_Z   2
loop_
 _symmetry_equiv_pos_site_id
 _symmetry_equiv_pos_as_xyz
  1  'x, y, z'
loop_
 _atom_site_type_symbol
 _atom_site_label
 _atom_site_symmetry_multiplicity
 _atom_site_fract_x
 _atom_site_fract_y
 _atom_site_fract_z
 _atom_site_occupancy
  Pr  Pr0  1  0.26874447  0.48623123  0.87742846  1
  Pr  Pr1  1  0.72679954  0.52560813  0.12934397  1
  Pr  Pr2  1  0.76123874  0.01471077  0.87019013  1
  Pr  Pr3  1  0.23349456  0.94773011  0.12813132  1
  Mn  Mn4  1  0.29780553  0.40317569  0.60696450  1
  Mn  Mn5  1  0.69458132  0.48813543  0.36998070  1
  Mn  Mn6  1  0.00774399  0.96703522  0.00456439  1
  Mn  Mn7  1  0.80163937  0.01314862  0.62388064  1
  Mn  Mn8  1  0.20436046  0.07223547  0.38427553  1
  Mn  Mn9  1  0.48127680  0.49223840  0.98002656  1
  Sb  Sb10  1  0.88883274  0.94749692  0.45191127  1
  Sb  Sb11  1  0.11280857  0.98475383  0.54791599  1
  Sb  Sb12  1  0.04146775  0.51001363  0.83003287  1
  Sb  Sb13  1  0.97070302  0.47373807  0.19501980  1
  Sb  Sb14  1  0.40188135  0.55588266  0.45193332  1
  Sb  Sb15  1  0.60502099  0.48436539  0.53523696  1
  Sb  Sb16  1  0.52398679  0.95943461  0.79452644  1
  Sb  Sb17  1  0.46953812  0.05170126  0.17920817  1
  S  S18  1  0.93660423  0.99677916  0.79554712  1
  S  S19  1  0.05066569  0.01271358  0.18515810  1
  S  S20  1  0.41529341  0.99735381  0.97311444  1
  S  S21  1  0.58544294  0.99040663  0.00671917  1
  S  S22  1  0.17037915  0.00061437  0.90567044  1
  S  S23  1  0.82579786  0.95289435  0.09648625  1
  S  S24  1  0.09453649  0.47476151  0.65602187  1
  S  S25  1  0.91967915  0.43147677  0.36774106  1
  S  S26  1  0.73238012  0.98159065  0.29877289  1
  S  S27  1  0.26269774  0.93095936  0.68241520  1
  S  S28  1  0.17164501  0.51581764  0.44542132  1
  S  S29  1  0.81266005  0.48260415  0.54150885  1
  S  S30  1  0.43027414  0.47010995  0.79215405  1
  S  S31  1  0.56081294  0.49084735  0.17983320  1
  S  S32  1  0.91392867  0.52698923  0.99100138  1
  S  S33  1  0.08347455  0.43700228  0.02529845  1
  S  S34  1  0.66351821  0.51026890  0.88617460  1
  S  S35  1  0.33650651  0.45299497  0.11616927  1
  S  S36  1  0.59829755  0.99987935  0.64756390  1
  S  S37  1  0.40288423  0.01759703  0.34011104  1
  S  S38  1  0.24159561  0.51405025  0.31251064  1
  S  S39  1  0.75931386  0.46768712  0.68985058  1
  S  S40  1  0.67280356  0.00519629  0.44844482  1
  S  S41  1  0.32755371  0.94040072  0.54931334  1
