# generated using pymatgen
data_Pr2Mn3(SbS3)4
_symmetry_space_group_name_H-M   'P 1'
_cell_length_a   20.02960800
_cell_length_b   3.90410600
_cell_length_c   14.95364829
_cell_angle_alpha   90.00000000
_cell_angle_beta   126.33350609
_cell_angle_gamma   90.00000000
_symmetry_Int_Tables_number   1
_chemical_formula_structural   Pr2Mn3(SbS3)4
_chemical_formula_sum   'Pr4 Mn6 Sb8 S24'
_cell_volume   942.00006694
_cell_formula_units_Z   2
loop_
 _symmetry_equiv_pos_site_id
 _symmetry_equiv_pos_as_xyz
  1  'x, y, z'
loop_
 _atom_site_type_symbol
 _atom_site_label
 _atom_site_symmetry_multiplicity
 _atom_site_fract_x
 _atom_site_fract_y
 _atom_site_fract_z
 _atom_site_occupancy
  Pr  Pr0  1  0.26879047  0.48615784  0.87763608  1
  Pr  Pr1  1  0.72679639  0.52555334  0.12925910  1
  Pr  Pr2  1  0.76107592  0.01449258  0.87004594  1
  Pr  Pr3  1  0.23359725  0.94724065  0.12815353  1
  Mn  Mn4  1  0.29781172  0.40240295  0.60697419  1
  Mn  Mn5  1  0.69477041  0.48850180  0.37018995  1
  Mn  Mn6  1  0.00773484  0.96742204  0.00443093  1
  Mn  Mn7  1  0.80155351  0.01246867  0.62383980  1
  Mn  Mn8  1  0.20424593  0.07279593  0.38409107  1
  Mn  Mn9  1  0.48145066  0.49077182  0.98014801  1
  Sb  Sb10  1  0.88871759  0.94761704  0.45203683  1
  Sb  Sb11  1  0.11275083  0.98486665  0.54800964  1
  Sb  Sb12  1  0.04140648  0.50976932  0.82990236  1
  Sb  Sb13  1  0.97057255  0.47366530  0.19495258  1
  Sb  Sb14  1  0.40182705  0.55592773  0.45189595  1
  Sb  Sb15  1  0.60501875  0.48464335  0.53515273  1
  Sb  Sb16  1  0.52403477  0.95935505  0.79462524  1
  Sb  Sb17  1  0.46968941  0.05149526  0.17928890  1
  S  S18  1  0.93671889  0.99683400  0.79559375  1
  S  S19  1  0.05077659  0.01178960  0.18514594  1
  S  S20  1  0.41534857  0.99733407  0.97329731  1
  S  S21  1  0.58562515  0.99027784  0.00726941  1
  S  S22  1  0.17053310  0.00079373  0.90608416  1
  S  S23  1  0.82593685  0.95385039  0.09643433  1
  S  S24  1  0.09447157  0.47559313  0.65594026  1
  S  S25  1  0.91966675  0.43114169  0.36779657  1
  S  S26  1  0.73261558  0.98156412  0.29883073  1
  S  S27  1  0.26256602  0.93157725  0.68216831  1
  S  S28  1  0.17164736  0.51576248  0.44536328  1
  S  S29  1  0.81295399  0.48150161  0.54165446  1
  S  S30  1  0.43024315  0.47116334  0.79183368  1
  S  S31  1  0.56062729  0.49085450  0.17968704  1
  S  S32  1  0.91395969  0.52721714  0.99124022  1
  S  S33  1  0.08323968  0.43663573  0.02524126  1
  S  S34  1  0.66358481  0.50859061  0.88628205  1
  S  S35  1  0.33651946  0.45282784  0.11634494  1
  S  S36  1  0.59813319  0.00101950  0.64725793  1
  S  S37  1  0.40273096  0.01796343  0.33995526  1
  S  S38  1  0.24165132  0.51377060  0.31304301  1
  S  S39  1  0.75935392  0.46712533  0.68975195  1
  S  S40  1  0.67270441  0.00506991  0.44825450  1
  S  S41  1  0.32771884  0.93891724  0.54924664  1
