# generated using pymatgen
data_Pr2Mn3(SbS3)4
_symmetry_space_group_name_H-M   'P 1'
_cell_length_a   20.02960800
_cell_length_b   3.90410600
_cell_length_c   14.95364829
_cell_angle_alpha   90.00000000
_cell_angle_beta   126.33350609
_cell_angle_gamma   90.00000000
_symmetry_Int_Tables_number   1
_chemical_formula_structural   Pr2Mn3(SbS3)4
_chemical_formula_sum   'Pr4 Mn6 Sb8 S24'
_cell_volume   942.00006694
_cell_formula_units_Z   2
loop_
 _symmetry_equiv_pos_site_id
 _symmetry_equiv_pos_as_xyz
  1  'x, y, z'
loop_
 _atom_site_type_symbol
 _atom_site_label
 _atom_site_symmetry_multiplicity
 _atom_site_fract_x
 _atom_site_fract_y
 _atom_site_fract_z
 _atom_site_occupancy
  Pr  Pr0  1  0.26886916  0.48567573  0.87781129  1
  Pr  Pr1  1  0.72671981  0.52546698  0.12907320  1
  Pr  Pr2  1  0.76102649  0.01427271  0.86999991  1
  Pr  Pr3  1  0.23372959  0.94673712  0.12823938  1
  Mn  Mn4  1  0.29781085  0.40192341  0.60699235  1
  Mn  Mn5  1  0.69493929  0.48897127  0.37039734  1
  Mn  Mn6  1  0.00777935  0.96771172  0.00446228  1
  Mn  Mn7  1  0.80145849  0.01174247  0.62381493  1
  Mn  Mn8  1  0.20413783  0.07314275  0.38392762  1
  Mn  Mn9  1  0.48163292  0.48954464  0.98023823  1
  Sb  Sb10  1  0.88865459  0.94773115  0.45218186  1
  Sb  Sb11  1  0.11267853  0.98496428  0.54811530  1
  Sb  Sb12  1  0.04132841  0.50962633  0.82974797  1
  Sb  Sb13  1  0.97047766  0.47343254  0.19489480  1
  Sb  Sb14  1  0.40181025  0.55602255  0.45189958  1
  Sb  Sb15  1  0.60508428  0.48502516  0.53514865  1
  Sb  Sb16  1  0.52403853  0.95934929  0.79475224  1
  Sb  Sb17  1  0.46985027  0.05093362  0.17936470  1
  S  S18  1  0.93670020  0.99706231  0.79565039  1
  S  S19  1  0.05090096  0.01135842  0.18527672  1
  S  S20  1  0.41536670  0.99714608  0.97359322  1
  S  S21  1  0.58571338  0.99035317  0.00773893  1
  S  S22  1  0.17060767  0.00106686  0.90630982  1
  S  S23  1  0.82598279  0.95451746  0.09626374  1
  S  S24  1  0.09448216  0.47626045  0.65586666  1
  S  S25  1  0.91972867  0.43062826  0.36785241  1
  S  S26  1  0.73290204  0.98180469  0.29903503  1
  S  S27  1  0.26237844  0.93224684  0.68193416  1
  S  S28  1  0.17164696  0.51591431  0.44530270  1
  S  S29  1  0.81320740  0.48068034  0.54172209  1
  S  S30  1  0.43007116  0.47189966  0.79141107  1
  S  S31  1  0.56032160  0.49128331  0.17940024  1
  S  S32  1  0.91400635  0.52763598  0.99143825  1
  S  S33  1  0.08302168  0.43598650  0.02519073  1
  S  S34  1  0.66368452  0.50721736  0.88639743  1
  S  S35  1  0.33639833  0.45290263  0.11635474  1
  S  S36  1  0.59798126  0.00215922  0.64698520  1
  S  S37  1  0.40270108  0.01824797  0.33982798  1
  S  S38  1  0.24179658  0.51350496  0.31359068  1
  S  S39  1  0.75932216  0.46651562  0.68954956  1
  S  S40  1  0.67265045  0.00489998  0.44810344  1
  S  S41  1  0.32783070  0.93744821  0.54912160  1
