# generated using pymatgen
data_Pr2Mn3(SbS3)4
_symmetry_space_group_name_H-M   'P 1'
_cell_length_a   20.02960800
_cell_length_b   3.90410600
_cell_length_c   14.95364829
_cell_angle_alpha   90.00000000
_cell_angle_beta   126.33350609
_cell_angle_gamma   90.00000000
_symmetry_Int_Tables_number   1
_chemical_formula_structural   Pr2Mn3(SbS3)4
_chemical_formula_sum   'Pr4 Mn6 Sb8 S24'
_cell_volume   942.00006694
_cell_formula_units_Z   2
loop_
 _symmetry_equiv_pos_site_id
 _symmetry_equiv_pos_as_xyz
  1  'x, y, z'
loop_
 _atom_site_type_symbol
 _atom_site_label
 _atom_site_symmetry_multiplicity
 _atom_site_fract_x
 _atom_site_fract_y
 _atom_site_fract_z
 _atom_site_occupancy
  Pr  Pr0  1  0.26891844  0.48529816  0.87794134  1
  Pr  Pr1  1  0.72669327  0.52543568  0.12889182  1
  Pr  Pr2  1  0.76101681  0.01417509  0.87001993  1
  Pr  Pr3  1  0.23385388  0.94615724  0.12831865  1
  Mn  Mn4  1  0.29780990  0.40130921  0.60697531  1
  Mn  Mn5  1  0.69503770  0.48997974  0.37054697  1
  Mn  Mn6  1  0.00781180  0.96758951  0.00441728  1
  Mn  Mn7  1  0.80146034  0.01147789  0.62386270  1
  Mn  Mn8  1  0.20408202  0.07370832  0.38382049  1
  Mn  Mn9  1  0.48176577  0.48847860  0.98029986  1
  Sb  Sb10  1  0.88865850  0.94789251  0.45229799  1
  Sb  Sb11  1  0.11253415  0.98497595  0.54817228  1
  Sb  Sb12  1  0.04124235  0.50957844  0.82959991  1
  Sb  Sb13  1  0.97037307  0.47318868  0.19481965  1
  Sb  Sb14  1  0.40173834  0.55618504  0.45184976  1
  Sb  Sb15  1  0.60513068  0.48538779  0.53509254  1
  Sb  Sb16  1  0.52407234  0.95917507  0.79483286  1
  Sb  Sb17  1  0.47001661  0.05040506  0.17941273  1
  S  S18  1  0.93675629  0.99689490  0.79572199  1
  S  S19  1  0.05092100  0.01082948  0.18525087  1
  S  S20  1  0.41546646  0.99693974  0.97392908  1
  S  S21  1  0.58589109  0.99107867  0.00831878  1
  S  S22  1  0.17070554  0.00102947  0.90646118  1
  S  S23  1  0.82597462  0.95485152  0.09602365  1
  S  S24  1  0.09467031  0.47706267  0.65605742  1
  S  S25  1  0.91973291  0.43068440  0.36785205  1
  S  S26  1  0.73310912  0.98187060  0.29912846  1
  S  S27  1  0.26216337  0.93315066  0.68179755  1
  S  S28  1  0.17162441  0.51657093  0.44524410  1
  S  S29  1  0.81354922  0.47967466  0.54184442  1
  S  S30  1  0.43009040  0.47210215  0.79120219  1
  S  S31  1  0.56007517  0.49141509  0.17913844  1
  S  S32  1  0.91397684  0.52774878  0.99145092  1
  S  S33  1  0.08283589  0.43538855  0.02511814  1
  S  S34  1  0.66376307  0.50648986  0.88647343  1
  S  S35  1  0.33630945  0.45271578  0.11622894  1
  S  S36  1  0.59796770  0.00301890  0.64686921  1
  S  S37  1  0.40266629  0.01849889  0.33985077  1
  S  S38  1  0.24196155  0.51296601  0.31415586  1
  S  S39  1  0.75927606  0.46617795  0.68947030  1
  S  S40  1  0.67263232  0.00515103  0.44810227  1
  S  S41  1  0.32805889  0.93630185  0.54910092  1
