# generated using pymatgen
data_Pr2Mn3(SbS3)4
_symmetry_space_group_name_H-M   'P 1'
_cell_length_a   20.02960800
_cell_length_b   3.90410600
_cell_length_c   14.95364829
_cell_angle_alpha   90.00000000
_cell_angle_beta   126.33350609
_cell_angle_gamma   90.00000000
_symmetry_Int_Tables_number   1
_chemical_formula_structural   Pr2Mn3(SbS3)4
_chemical_formula_sum   'Pr4 Mn6 Sb8 S24'
_cell_volume   942.00006694
_cell_formula_units_Z   2
loop_
 _symmetry_equiv_pos_site_id
 _symmetry_equiv_pos_as_xyz
  1  'x, y, z'
loop_
 _atom_site_type_symbol
 _atom_site_label
 _atom_site_symmetry_multiplicity
 _atom_site_fract_x
 _atom_site_fract_y
 _atom_site_fract_z
 _atom_site_occupancy
  Pr  Pr0  1  0.26901791  0.48483792  0.87815585  1
  Pr  Pr1  1  0.72669445  0.52550456  0.12869330  1
  Pr  Pr2  1  0.76103085  0.01402251  0.87007580  1
  Pr  Pr3  1  0.23391838  0.94521093  0.12831827  1
  Mn  Mn4  1  0.29785244  0.40051557  0.60694675  1
  Mn  Mn5  1  0.69513760  0.49054313  0.37069634  1
  Mn  Mn6  1  0.00788230  0.96792973  0.00442896  1
  Mn  Mn7  1  0.80150942  0.01138166  0.62380530  1
  Mn  Mn8  1  0.20407888  0.07376456  0.38379752  1
  Mn  Mn9  1  0.48201890  0.48734997  0.98056233  1
  Sb  Sb10  1  0.88872406  0.94782643  0.45244443  1
  Sb  Sb11  1  0.11238100  0.98516723  0.54813998  1
  Sb  Sb12  1  0.04113436  0.50948054  0.82941431  1
  Sb  Sb13  1  0.97030136  0.47323069  0.19479435  1
  Sb  Sb14  1  0.40165908  0.55660701  0.45176047  1
  Sb  Sb15  1  0.60512980  0.48598540  0.53490621  1
  Sb  Sb16  1  0.52414699  0.95914743  0.79488336  1
  Sb  Sb17  1  0.47022972  0.05022467  0.17949111  1
  S  S18  1  0.93686653  0.99708213  0.79595599  1
  S  S19  1  0.05103767  0.01042900  0.18535889  1
  S  S20  1  0.41559619  0.99685342  0.97412045  1
  S  S21  1  0.58606383  0.99180362  0.00891989  1
  S  S22  1  0.17081165  0.00094739  0.90676462  1
  S  S23  1  0.82607524  0.95513443  0.09580876  1
  S  S24  1  0.09478726  0.47774378  0.65616950  1
  S  S25  1  0.91968085  0.43080031  0.36772761  1
  S  S26  1  0.73337072  0.98246865  0.29919827  1
  S  S27  1  0.26197863  0.93390153  0.68172806  1
  S  S28  1  0.17148598  0.51690975  0.44496913  1
  S  S29  1  0.81378553  0.47931110  0.54188724  1
  S  S30  1  0.43000147  0.47228423  0.79094200  1
  S  S31  1  0.55975097  0.49095706  0.17901312  1
  S  S32  1  0.91394376  0.52775367  0.99133751  1
  S  S33  1  0.08259814  0.43515214  0.02502062  1
  S  S34  1  0.66386412  0.50579450  0.88657505  1
  S  S35  1  0.33611311  0.45195877  0.11596943  1
  S  S36  1  0.59806017  0.00369173  0.64689874  1
  S  S37  1  0.40261331  0.01896969  0.33985405  1
  S  S38  1  0.24212817  0.51240975  0.31474282  1
  S  S39  1  0.75928475  0.46559038  0.68934000  1
  S  S40  1  0.67246029  0.00510999  0.44805593  1
  S  S41  1  0.32831356  0.93472327  0.54907796  1
