# generated using pymatgen
data_Pr2Mn3(SbS3)4
_symmetry_space_group_name_H-M   'P 1'
_cell_length_a   20.02960800
_cell_length_b   3.90410600
_cell_length_c   14.95364829
_cell_angle_alpha   90.00000000
_cell_angle_beta   126.33350609
_cell_angle_gamma   90.00000000
_symmetry_Int_Tables_number   1
_chemical_formula_structural   Pr2Mn3(SbS3)4
_chemical_formula_sum   'Pr4 Mn6 Sb8 S24'
_cell_volume   942.00006694
_cell_formula_units_Z   2
loop_
 _symmetry_equiv_pos_site_id
 _symmetry_equiv_pos_as_xyz
  1  'x, y, z'
loop_
 _atom_site_type_symbol
 _atom_site_label
 _atom_site_symmetry_multiplicity
 _atom_site_fract_x
 _atom_site_fract_y
 _atom_site_fract_z
 _atom_site_occupancy
  Pr  Pr0  1  0.26908887  0.48479381  0.87829399  1
  Pr  Pr1  1  0.72677415  0.52579200  0.12861841  1
  Pr  Pr2  1  0.76100621  0.01385876  0.87015811  1
  Pr  Pr3  1  0.23388632  0.94444398  0.12817386  1
  Mn  Mn4  1  0.29782672  0.39971142  0.60682219  1
  Mn  Mn5  1  0.69528170  0.49098376  0.37086223  1
  Mn  Mn6  1  0.00798243  0.96855618  0.00452262  1
  Mn  Mn7  1  0.80161080  0.01120420  0.62387425  1
  Mn  Mn8  1  0.20408847  0.07356661  0.38369633  1
  Mn  Mn9  1  0.48227963  0.48639846  0.98088392  1
  Sb  Sb10  1  0.88885796  0.94783205  0.45259524  1
  Sb  Sb11  1  0.11218442  0.98537982  0.54810704  1
  Sb  Sb12  1  0.04103771  0.50917028  0.82926375  1
  Sb  Sb13  1  0.97026461  0.47318023  0.19478250  1
  Sb  Sb14  1  0.40155671  0.55686446  0.45171316  1
  Sb  Sb15  1  0.60504705  0.48650869  0.53464545  1
  Sb  Sb16  1  0.52416953  0.95898908  0.79496405  1
  Sb  Sb17  1  0.47042018  0.05007832  0.17958867  1
  S  S18  1  0.93695544  0.99722872  0.79606048  1
  S  S19  1  0.05111544  0.00999933  0.18546104  1
  S  S20  1  0.41569695  0.99670084  0.97435004  1
  S  S21  1  0.58624668  0.99239295  0.00949854  1
  S  S22  1  0.17104759  0.00122424  0.90705891  1
  S  S23  1  0.82621644  0.95567918  0.09568867  1
  S  S24  1  0.09488881  0.47837855  0.65616956  1
  S  S25  1  0.91966520  0.43093285  0.36762574  1
  S  S26  1  0.73361630  0.98335311  0.29928646  1
  S  S27  1  0.26195046  0.93481058  0.68191660  1
  S  S28  1  0.17132528  0.51708636  0.44474521  1
  S  S29  1  0.81385634  0.47903451  0.54176004  1
  S  S30  1  0.43002378  0.47213154  0.79069986  1
  S  S31  1  0.55944529  0.49070768  0.17893677  1
  S  S32  1  0.91393076  0.52839313  0.99115627  1
  S  S33  1  0.08230072  0.43564196  0.02478807  1
  S  S34  1  0.66392781  0.50528209  0.88663782  1
  S  S35  1  0.33587482  0.45127956  0.11572812  1
  S  S36  1  0.59818832  0.00405107  0.64692899  1
  S  S37  1  0.40257338  0.02008992  0.33986441  1
  S  S38  1  0.24232033  0.51169387  0.31520745  1
  S  S39  1  0.75932560  0.46515559  0.68917576  1
  S  S40  1  0.67243300  0.00495195  0.44814302  1
  S  S41  1  0.32862107  0.93346497  0.54903334  1
