# generated using pymatgen
data_Pr2Mn3(SbS3)4
_symmetry_space_group_name_H-M   'P 1'
_cell_length_a   20.02960800
_cell_length_b   3.90410600
_cell_length_c   14.95364829
_cell_angle_alpha   90.00000000
_cell_angle_beta   126.33350609
_cell_angle_gamma   90.00000000
_symmetry_Int_Tables_number   1
_chemical_formula_structural   Pr2Mn3(SbS3)4
_chemical_formula_sum   'Pr4 Mn6 Sb8 S24'
_cell_volume   942.00006694
_cell_formula_units_Z   2
loop_
 _symmetry_equiv_pos_site_id
 _symmetry_equiv_pos_as_xyz
  1  'x, y, z'
loop_
 _atom_site_type_symbol
 _atom_site_label
 _atom_site_symmetry_multiplicity
 _atom_site_fract_x
 _atom_site_fract_y
 _atom_site_fract_z
 _atom_site_occupancy
  Pr  Pr0  1  0.26919579  0.48468269  0.87848963  1
  Pr  Pr1  1  0.72682253  0.52605386  0.12855721  1
  Pr  Pr2  1  0.76096139  0.01381980  0.87026148  1
  Pr  Pr3  1  0.23389485  0.94384958  0.12807214  1
  Mn  Mn4  1  0.29775078  0.39926293  0.60668938  1
  Mn  Mn5  1  0.69539111  0.49122488  0.37105638  1
  Mn  Mn6  1  0.00797865  0.96891783  0.00449433  1
  Mn  Mn7  1  0.80170293  0.01112493  0.62394344  1
  Mn  Mn8  1  0.20404816  0.07360988  0.38351033  1
  Mn  Mn9  1  0.48250255  0.48572362  0.98110919  1
  Sb  Sb10  1  0.88891657  0.94761960  0.45269351  1
  Sb  Sb11  1  0.11199244  0.98549049  0.54811718  1
  Sb  Sb12  1  0.04090469  0.50885216  0.82910741  1
  Sb  Sb13  1  0.97023130  0.47269511  0.19475145  1
  Sb  Sb14  1  0.40150388  0.55695873  0.45171141  1
  Sb  Sb15  1  0.60493424  0.48707265  0.53440829  1
  Sb  Sb16  1  0.52422189  0.95899967  0.79512447  1
  Sb  Sb17  1  0.47058544  0.05024368  0.17960754  1
  S  S18  1  0.93703556  0.99718261  0.79625658  1
  S  S19  1  0.05122240  0.00968129  0.18556305  1
  S  S20  1  0.41569094  0.99636013  0.97445396  1
  S  S21  1  0.58640630  0.99329463  0.00991959  1
  S  S22  1  0.17122539  0.00139830  0.90719029  1
  S  S23  1  0.82620031  0.95597992  0.09534376  1
  S  S24  1  0.09496627  0.47894708  0.65610282  1
  S  S25  1  0.91960008  0.43155072  0.36751263  1
  S  S26  1  0.73369052  0.98406704  0.29923165  1
  S  S27  1  0.26204022  0.93576307  0.68217654  1
  S  S28  1  0.17132614  0.51741682  0.44461782  1
  S  S29  1  0.81396689  0.47922747  0.54176939  1
  S  S30  1  0.43009891  0.47157675  0.79055426  1
  S  S31  1  0.55911992  0.49095246  0.17887068  1
  S  S32  1  0.91389431  0.52860426  0.99088786  1
  S  S33  1  0.08198650  0.43642752  0.02453593  1
  S  S34  1  0.66401556  0.50517936  0.88674372  1
  S  S35  1  0.33589265  0.45067517  0.11574265  1
  S  S36  1  0.59822392  0.00427761  0.64691337  1
  S  S37  1  0.40255067  0.02095910  0.33993577  1
  S  S38  1  0.24244976  0.51118079  0.31569008  1
  S  S39  1  0.75935340  0.46438946  0.68898284  1
  S  S40  1  0.67244166  0.00443985  0.44830192  1
  S  S41  1  0.32887766  0.93288696  0.54909469  1
