# generated using pymatgen
data_Pr2Mn3(SbS3)4
_symmetry_space_group_name_H-M   'P 1'
_cell_length_a   20.02960800
_cell_length_b   3.90410600
_cell_length_c   14.95364829
_cell_angle_alpha   90.00000000
_cell_angle_beta   126.33350609
_cell_angle_gamma   90.00000000
_symmetry_Int_Tables_number   1
_chemical_formula_structural   Pr2Mn3(SbS3)4
_chemical_formula_sum   'Pr4 Mn6 Sb8 S24'
_cell_volume   942.00006694
_cell_formula_units_Z   2
loop_
 _symmetry_equiv_pos_site_id
 _symmetry_equiv_pos_as_xyz
  1  'x, y, z'
loop_
 _atom_site_type_symbol
 _atom_site_label
 _atom_site_symmetry_multiplicity
 _atom_site_fract_x
 _atom_site_fract_y
 _atom_site_fract_z
 _atom_site_occupancy
  Pr  Pr0  1  0.26019163  0.49924066  0.86317337  1
  Pr  Pr1  1  0.74041813  0.49857595  0.13716703  1
  Pr  Pr2  1  0.75995858  0.00312080  0.86256064  1
  Pr  Pr3  1  0.24027480  0.99668994  0.13734205  1
  Mn  Mn4  1  0.30075016  0.50305175  0.62110387  1
  Mn  Mn5  1  0.69855875  0.50051819  0.37922802  1
  Mn  Mn6  1  0.99963722  0.99899953  0.99994994  1
  Mn  Mn7  1  0.80121102  0.99972997  0.62022694  1
  Mn  Mn8  1  0.19917240  0.99664679  0.37937850  1
  Mn  Mn9  1  0.49996011  0.49535343  0.00082138  1
  Sb  Sb10  1  0.89421723  0.99998078  0.45295930  1
  Sb  Sb11  1  0.10680190  0.99954612  0.54862912  1
  Sb  Sb12  1  0.03824165  0.49682611  0.81454736  1
  Sb  Sb13  1  0.96213312  0.49763850  0.18610292  1
  Sb  Sb14  1  0.39403148  0.49915833  0.45351891  1
  Sb  Sb15  1  0.60573380  0.49908611  0.54708022  1
  Sb  Sb16  1  0.53907144  0.99836146  0.81513482  1
  Sb  Sb17  1  0.46188124  0.99963377  0.18551260  1
  S  S18  1  0.94121859  0.99803424  0.80098722  1
  S  S19  1  0.05797067  0.99845288  0.19707724  1
  S  S20  1  0.40122784  0.99606524  0.98003727  1
  S  S21  1  0.59952114  0.99947254  0.02046392  1
  S  S22  1  0.16799455  0.99460099  0.89605338  1
  S  S23  1  0.83080239  0.00053789  0.10298501  1
  S  S24  1  0.08948762  0.49941008  0.65080737  1
  S  S25  1  0.91081512  0.49780953  0.34967721  1
  S  S26  1  0.74282598  0.99561964  0.29372951  1
  S  S27  1  0.25727191  0.00322848  0.70589982  1
  S  S28  1  0.15676787  0.49531922  0.45159210  1
  S  S29  1  0.84316746  0.50141734  0.54804058  1
  S  S30  1  0.44252797  0.49787563  0.80160106  1
  S  S31  1  0.55889079  0.50084505  0.19846478  1
  S  S32  1  0.90135848  0.49630429  0.97967552  1
  S  S33  1  0.09920937  0.49548085  0.02140724  1
  S  S34  1  0.66681514  0.50415536  0.89466475  1
  S  S35  1  0.33371834  0.49887820  0.10571348  1
  S  S36  1  0.58789241  0.00349891  0.64824709  1
  S  S37  1  0.41202884  0.99713470  0.35107652  1
  S  S38  1  0.24358482  0.49489340  0.29349514  1
  S  S39  1  0.75864743  0.49974387  0.70809570  1
  S  S40  1  0.65705634  0.99902275  0.45263103  1
  S  S41  1  0.34313102  0.99718294  0.54696939  1
