# generated using pymatgen
data_Pr2Mn3(SbS3)4
_symmetry_space_group_name_H-M   'P 1'
_cell_length_a   20.02960800
_cell_length_b   3.90410600
_cell_length_c   14.95364829
_cell_angle_alpha   90.00000000
_cell_angle_beta   126.33350609
_cell_angle_gamma   90.00000000
_symmetry_Int_Tables_number   1
_chemical_formula_structural   Pr2Mn3(SbS3)4
_chemical_formula_sum   'Pr4 Mn6 Sb8 S24'
_cell_volume   942.00006694
_cell_formula_units_Z   2
loop_
 _symmetry_equiv_pos_site_id
 _symmetry_equiv_pos_as_xyz
  1  'x, y, z'
loop_
 _atom_site_type_symbol
 _atom_site_label
 _atom_site_symmetry_multiplicity
 _atom_site_fract_x
 _atom_site_fract_y
 _atom_site_fract_z
 _atom_site_occupancy
  Pr  Pr0  1  0.26477932  0.48254360  0.86958606  1
  Pr  Pr1  1  0.73701755  0.50674282  0.13493195  1
  Pr  Pr2  1  0.76181987  0.00845852  0.86151969  1
  Pr  Pr3  1  0.23770963  0.99817903  0.14053696  1
  Mn  Mn4  1  0.29769381  0.50121872  0.61599624  1
  Mn  Mn5  1  0.69632341  0.50725005  0.37996030  1
  Mn  Mn6  1  0.00186102  0.99609614  0.99815201  1
  Mn  Mn7  1  0.80349299  0.98934272  0.61556435  1
  Mn  Mn8  1  0.19838379  0.97706259  0.38002918  1
  Mn  Mn9  1  0.50178263  0.47942757  0.99441553  1
  Sb  Sb10  1  0.89329006  0.00560535  0.45426393  1
  Sb  Sb11  1  0.10887936  0.97802783  0.55105406  1
  Sb  Sb12  1  0.03911581  0.48931627  0.81587738  1
  Sb  Sb13  1  0.96185698  0.52089839  0.18731356  1
  Sb  Sb14  1  0.39641454  0.49459855  0.45736471  1
  Sb  Sb15  1  0.60712733  0.49898836  0.54924982  1
  Sb  Sb16  1  0.53698523  0.00547954  0.81624693  1
  Sb  Sb17  1  0.46209136  0.00192130  0.18056313  1
  S  S18  1  0.93564823  0.97774733  0.79713256  1
  S  S19  1  0.06253066  0.99895243  0.19245000  1
  S  S20  1  0.40893881  0.00068756  0.97822040  1
  S  S21  1  0.59182449  0.99068832  0.01664184  1
  S  S22  1  0.17119543  0.99122875  0.89830338  1
  S  S23  1  0.82825098  0.01724479  0.10398553  1
  S  S24  1  0.08466630  0.47592030  0.64234177  1
  S  S25  1  0.91467225  0.48313060  0.36071120  1
  S  S26  1  0.74241392  0.94426770  0.29405358  1
  S  S27  1  0.25779334  0.00053621  0.70327445  1
  S  S28  1  0.16329757  0.49144990  0.44549533  1
  S  S29  1  0.83053678  0.48374705  0.54993504  1
  S  S30  1  0.43584248  0.51024395  0.80245578  1
  S  S31  1  0.56059810  0.51873898  0.19053061  1
  S  S32  1  0.90215672  0.48696893  0.97623323  1
  S  S33  1  0.08773381  0.48820014  0.01708321  1
  S  S34  1  0.66381185  0.50605789  0.89411137  1
  S  S35  1  0.33010877  0.52190264  0.09971711  1
  S  S36  1  0.59131791  0.01105429  0.64924587  1
  S  S37  1  0.41361260  0.96607000  0.35763976  1
  S  S38  1  0.24332110  0.48537547  0.30101259  1
  S  S39  1  0.76023691  0.49882120  0.69676490  1
  S  S40  1  0.67023509  0.01626510  0.46254809  1
  S  S41  1  0.33041762  0.98411700  0.54165853  1
