# generated using pymatgen
data_Pr2Mn3(SbS3)4
_symmetry_space_group_name_H-M   'P 1'
_cell_length_a   20.02960800
_cell_length_b   3.90410600
_cell_length_c   14.95364829
_cell_angle_alpha   90.00000000
_cell_angle_beta   126.33350609
_cell_angle_gamma   90.00000000
_symmetry_Int_Tables_number   1
_chemical_formula_structural   Pr2Mn3(SbS3)4
_chemical_formula_sum   'Pr4 Mn6 Sb8 S24'
_cell_volume   942.00006694
_cell_formula_units_Z   2
loop_
 _symmetry_equiv_pos_site_id
 _symmetry_equiv_pos_as_xyz
  1  'x, y, z'
loop_
 _atom_site_type_symbol
 _atom_site_label
 _atom_site_symmetry_multiplicity
 _atom_site_fract_x
 _atom_site_fract_y
 _atom_site_fract_z
 _atom_site_occupancy
  Pr  Pr0  1  0.26926463  0.48428866  0.87865429  1
  Pr  Pr1  1  0.72689417  0.52617922  0.12856709  1
  Pr  Pr2  1  0.76085480  0.01379497  0.87026053  1
  Pr  Pr3  1  0.23391052  0.94344721  0.12809222  1
  Mn  Mn4  1  0.29764589  0.39842673  0.60650148  1
  Mn  Mn5  1  0.69548542  0.49157304  0.37114979  1
  Mn  Mn6  1  0.00802467  0.96921151  0.00432745  1
  Mn  Mn7  1  0.80170865  0.01077842  0.62390610  1
  Mn  Mn8  1  0.20406272  0.07364943  0.38331655  1
  Mn  Mn9  1  0.48274484  0.48514468  0.98137157  1
  Sb  Sb10  1  0.88903487  0.94734395  0.45275317  1
  Sb  Sb11  1  0.11186812  0.98573126  0.54822055  1
  Sb  Sb12  1  0.04077854  0.50838343  0.82900252  1
  Sb  Sb13  1  0.97019422  0.47236624  0.19473138  1
  Sb  Sb14  1  0.40145001  0.55725732  0.45170716  1
  Sb  Sb15  1  0.60484931  0.48782492  0.53415353  1
  Sb  Sb16  1  0.52425545  0.95906001  0.79521733  1
  Sb  Sb17  1  0.47081062  0.05007491  0.17960556  1
  S  S18  1  0.93704652  0.99710446  0.79644378  1
  S  S19  1  0.05114146  0.00937099  0.18556244  1
  S  S20  1  0.41581002  0.99609537  0.97472530  1
  S  S21  1  0.58655710  0.99428071  0.01041490  1
  S  S22  1  0.17132969  0.00133643  0.90720687  1
  S  S23  1  0.82616806  0.95690500  0.09514554  1
  S  S24  1  0.09504007  0.47957298  0.65595380  1
  S  S25  1  0.91948933  0.43210527  0.36724477  1
  S  S26  1  0.73380214  0.98509381  0.29912931  1
  S  S27  1  0.26204875  0.93663679  0.68240519  1
  S  S28  1  0.17129400  0.51780352  0.44462178  1
  S  S29  1  0.81408898  0.47967966  0.54197497  1
  S  S30  1  0.43018201  0.47094992  0.79044005  1
  S  S31  1  0.55885072  0.49156185  0.17882098  1
  S  S32  1  0.91371253  0.52887227  0.99046071  1
  S  S33  1  0.08175741  0.43685877  0.02446341  1
  S  S34  1  0.66409545  0.50485961  0.88689780  1
  S  S35  1  0.33573606  0.45016852  0.11554039  1
  S  S36  1  0.59821234  0.00425632  0.64682262  1
  S  S37  1  0.40248396  0.02179549  0.33990154  1
  S  S38  1  0.24262866  0.51135749  0.31615245  1
  S  S39  1  0.75939598  0.46364712  0.68886107  1
  S  S40  1  0.67233636  0.00464644  0.44827481  1
  S  S41  1  0.32931006  0.93229676  0.54934399  1
