# generated using pymatgen
data_Pr2Mn3(SbS3)4
_symmetry_space_group_name_H-M   'P 1'
_cell_length_a   20.02960800
_cell_length_b   3.90410600
_cell_length_c   14.95364829
_cell_angle_alpha   90.00000000
_cell_angle_beta   126.33350609
_cell_angle_gamma   90.00000000
_symmetry_Int_Tables_number   1
_chemical_formula_structural   Pr2Mn3(SbS3)4
_chemical_formula_sum   'Pr4 Mn6 Sb8 S24'
_cell_volume   942.00006694
_cell_formula_units_Z   2
loop_
 _symmetry_equiv_pos_site_id
 _symmetry_equiv_pos_as_xyz
  1  'x, y, z'
loop_
 _atom_site_type_symbol
 _atom_site_label
 _atom_site_symmetry_multiplicity
 _atom_site_fract_x
 _atom_site_fract_y
 _atom_site_fract_z
 _atom_site_occupancy
  Pr  Pr0  1  0.26934361  0.48380798  0.87879414  1
  Pr  Pr1  1  0.72697658  0.52626230  0.12856481  1
  Pr  Pr2  1  0.76076982  0.01384969  0.87029846  1
  Pr  Pr3  1  0.23388447  0.94285249  0.12817365  1
  Mn  Mn4  1  0.29755471  0.39769020  0.60633862  1
  Mn  Mn5  1  0.69563711  0.49181272  0.37126823  1
  Mn  Mn6  1  0.00808339  0.96950011  0.00423168  1
  Mn  Mn7  1  0.80175767  0.01022128  0.62397296  1
  Mn  Mn8  1  0.20414492  0.07400907  0.38322593  1
  Mn  Mn9  1  0.48303379  0.48478428  0.98159167  1
  Sb  Sb10  1  0.88910704  0.94702545  0.45282555  1
  Sb  Sb11  1  0.11172809  0.98611829  0.54830237  1
  Sb  Sb12  1  0.04064626  0.50787122  0.82885814  1
  Sb  Sb13  1  0.97016395  0.47208114  0.19466748  1
  Sb  Sb14  1  0.40145685  0.55770565  0.45167080  1
  Sb  Sb15  1  0.60476499  0.48866875  0.53386978  1
  Sb  Sb16  1  0.52432600  0.95887092  0.79535675  1
  Sb  Sb17  1  0.47100945  0.05009940  0.17965500  1
  S  S18  1  0.93703428  0.99684873  0.79649018  1
  S  S19  1  0.05111536  0.00899568  0.18565570  1
  S  S20  1  0.41586553  0.99629913  0.97499558  1
  S  S21  1  0.58678453  0.99551729  0.01109701  1
  S  S22  1  0.17142582  0.00142054  0.90725754  1
  S  S23  1  0.82613249  0.95800651  0.09501817  1
  S  S24  1  0.09505628  0.47958903  0.65587188  1
  S  S25  1  0.91930458  0.43250545  0.36688865  1
  S  S26  1  0.73392980  0.98568787  0.29898861  1
  S  S27  1  0.26209443  0.93732129  0.68254433  1
  S  S28  1  0.17122769  0.51800109  0.44474316  1
  S  S29  1  0.81419138  0.48003962  0.54217130  1
  S  S30  1  0.43032574  0.47016729  0.79053712  1
  S  S31  1  0.55868322  0.49165199  0.17888043  1
  S  S32  1  0.91350876  0.52892572  0.99010543  1
  S  S33  1  0.08155013  0.43708720  0.02428052  1
  S  S34  1  0.66412162  0.50492245  0.88693107  1
  S  S35  1  0.33566483  0.44976165  0.11534424  1
  S  S36  1  0.59822557  0.00388045  0.64685498  1
  S  S37  1  0.40242651  0.02265235  0.33997635  1
  S  S38  1  0.24275714  0.51110545  0.31633336  1
  S  S39  1  0.75943301  0.46361856  0.68870206  1
  S  S40  1  0.67221431  0.00473217  0.44817403  1
  S  S41  1  0.32970152  0.93153279  0.54961613  1
