# generated using pymatgen
data_Pr2Mn3(SbS3)4
_symmetry_space_group_name_H-M   'P 1'
_cell_length_a   20.02960800
_cell_length_b   3.90410600
_cell_length_c   14.95364829
_cell_angle_alpha   90.00000000
_cell_angle_beta   126.33350609
_cell_angle_gamma   90.00000000
_symmetry_Int_Tables_number   1
_chemical_formula_structural   Pr2Mn3(SbS3)4
_chemical_formula_sum   'Pr4 Mn6 Sb8 S24'
_cell_volume   942.00006694
_cell_formula_units_Z   2
loop_
 _symmetry_equiv_pos_site_id
 _symmetry_equiv_pos_as_xyz
  1  'x, y, z'
loop_
 _atom_site_type_symbol
 _atom_site_label
 _atom_site_symmetry_multiplicity
 _atom_site_fract_x
 _atom_site_fract_y
 _atom_site_fract_z
 _atom_site_occupancy
  Pr  Pr0  1  0.26941907  0.48334827  0.87886204  1
  Pr  Pr1  1  0.72709312  0.52654601  0.12859289  1
  Pr  Pr2  1  0.76077088  0.01374692  0.87040113  1
  Pr  Pr3  1  0.23383114  0.94218784  0.12824619  1
  Mn  Mn4  1  0.29752693  0.39723596  0.60617666  1
  Mn  Mn5  1  0.69571170  0.49195204  0.37130018  1
  Mn  Mn6  1  0.00809768  0.96992530  0.00416818  1
  Mn  Mn7  1  0.80180066  0.00960014  0.62395185  1
  Mn  Mn8  1  0.20430527  0.07440421  0.38325938  1
  Mn  Mn9  1  0.48326855  0.48447130  0.98170824  1
  Sb  Sb10  1  0.88918590  0.94687196  0.45292564  1
  Sb  Sb11  1  0.11157623  0.98639341  0.54832726  1
  Sb  Sb12  1  0.04057151  0.50745620  0.82879281  1
  Sb  Sb13  1  0.97012909  0.47207301  0.19456948  1
  Sb  Sb14  1  0.40146340  0.55806430  0.45163452  1
  Sb  Sb15  1  0.60472839  0.48936536  0.53358538  1
  Sb  Sb16  1  0.52436783  0.95878308  0.79549508  1
  Sb  Sb17  1  0.47116396  0.05015773  0.17978034  1
  S  S18  1  0.93698141  0.99631869  0.79654766  1
  S  S19  1  0.05108145  0.00853251  0.18573518  1
  S  S20  1  0.41586284  0.99685553  0.97526423  1
  S  S21  1  0.58701496  0.99690405  0.01164371  1
  S  S22  1  0.17155696  0.00125358  0.90736329  1
  S  S23  1  0.82612368  0.95884070  0.09487662  1
  S  S24  1  0.09502140  0.47961351  0.65569508  1
  S  S25  1  0.91913537  0.43240044  0.36672508  1
  S  S26  1  0.73395350  0.98629821  0.29900235  1
  S  S27  1  0.26211889  0.93816080  0.68256522  1
  S  S28  1  0.17116213  0.51787106  0.44484452  1
  S  S29  1  0.81424189  0.48036094  0.54232955  1
  S  S30  1  0.43043764  0.46920582  0.79063298  1
  S  S31  1  0.55847953  0.49206707  0.17884825  1
  S  S32  1  0.91336505  0.52873222  0.98971126  1
  S  S33  1  0.08127450  0.43768823  0.02394416  1
  S  S34  1  0.66423360  0.50479358  0.88696319  1
  S  S35  1  0.33553907  0.44954775  0.11519320  1
  S  S36  1  0.59830110  0.00374888  0.64689706  1
  S  S37  1  0.40236716  0.02355899  0.34002659  1
  S  S38  1  0.24298482  0.51099156  0.31657918  1
  S  S39  1  0.75956841  0.46386612  0.68864681  1
  S  S40  1  0.67204162  0.00518797  0.44795028  1
  S  S41  1  0.33003600  0.93092230  0.54980023  1
