# generated using pymatgen
data_Pr2Mn3(SbS3)4
_symmetry_space_group_name_H-M   'P 1'
_cell_length_a   20.02960800
_cell_length_b   3.90410600
_cell_length_c   14.95364829
_cell_angle_alpha   90.00000000
_cell_angle_beta   126.33350609
_cell_angle_gamma   90.00000000
_symmetry_Int_Tables_number   1
_chemical_formula_structural   Pr2Mn3(SbS3)4
_chemical_formula_sum   'Pr4 Mn6 Sb8 S24'
_cell_volume   942.00006694
_cell_formula_units_Z   2
loop_
 _symmetry_equiv_pos_site_id
 _symmetry_equiv_pos_as_xyz
  1  'x, y, z'
loop_
 _atom_site_type_symbol
 _atom_site_label
 _atom_site_symmetry_multiplicity
 _atom_site_fract_x
 _atom_site_fract_y
 _atom_site_fract_z
 _atom_site_occupancy
  Pr  Pr0  1  0.26944091  0.48317774  0.87881253  1
  Pr  Pr1  1  0.72724659  0.52673467  0.12871833  1
  Pr  Pr2  1  0.76078139  0.01365691  0.87046243  1
  Pr  Pr3  1  0.23379325  0.94168593  0.12826975  1
  Mn  Mn4  1  0.29746568  0.39694999  0.60608155  1
  Mn  Mn5  1  0.69576610  0.49201724  0.37120586  1
  Mn  Mn6  1  0.00805943  0.97012698  0.00416663  1
  Mn  Mn7  1  0.80171965  0.00911461  0.62389383  1
  Mn  Mn8  1  0.20437097  0.07462562  0.38324280  1
  Mn  Mn9  1  0.48352906  0.48423233  0.98181846  1
  Sb  Sb10  1  0.88924241  0.94653921  0.45298093  1
  Sb  Sb11  1  0.11138567  0.98667608  0.54827776  1
  Sb  Sb12  1  0.04050056  0.50717222  0.82870958  1
  Sb  Sb13  1  0.97003653  0.47217839  0.19443567  1
  Sb  Sb14  1  0.40144364  0.55826294  0.45152171  1
  Sb  Sb15  1  0.60467144  0.49000551  0.53332801  1
  Sb  Sb16  1  0.52445730  0.95897722  0.79568023  1
  Sb  Sb17  1  0.47134834  0.05013201  0.17992441  1
  S  S18  1  0.93687366  0.99568972  0.79663135  1
  S  S19  1  0.05110360  0.00786678  0.18581518  1
  S  S20  1  0.41587692  0.99778889  0.97547827  1
  S  S21  1  0.58723011  0.99808284  0.01219720  1
  S  S22  1  0.17164542  0.00092467  0.90749633  1
  S  S23  1  0.82608896  0.96006247  0.09473204  1
  S  S24  1  0.09491112  0.47966512  0.65556803  1
  S  S25  1  0.91897890  0.43245834  0.36664786  1
  S  S26  1  0.73393705  0.98717768  0.29911415  1
  S  S27  1  0.26208698  0.93888369  0.68248650  1
  S  S28  1  0.17109286  0.51752170  0.44492146  1
  S  S29  1  0.81435863  0.48069334  0.54248415  1
  S  S30  1  0.43056639  0.46807044  0.79073185  1
  S  S31  1  0.55826040  0.49243187  0.17874615  1
  S  S32  1  0.91329264  0.52894588  0.98926930  1
  S  S33  1  0.08091305  0.43821982  0.02358845  1
  S  S34  1  0.66440678  0.50470654  0.88705841  1
  S  S35  1  0.33550687  0.44944269  0.11508513  1
  S  S36  1  0.59837397  0.00409094  0.64707362  1
  S  S37  1  0.40241079  0.02436190  0.34030122  1
  S  S38  1  0.24310886  0.51064179  0.31680780  1
  S  S39  1  0.75975527  0.46410775  0.68859290  1
  S  S40  1  0.67189915  0.00571548  0.44800882  1
  S  S41  1  0.33038719  0.92967521  0.55011682  1
