# generated using pymatgen
data_Pr2Mn3(SbS3)4
_symmetry_space_group_name_H-M   'P 1'
_cell_length_a   20.02960800
_cell_length_b   3.90410600
_cell_length_c   14.95364829
_cell_angle_alpha   90.00000000
_cell_angle_beta   126.33350609
_cell_angle_gamma   90.00000000
_symmetry_Int_Tables_number   1
_chemical_formula_structural   Pr2Mn3(SbS3)4
_chemical_formula_sum   'Pr4 Mn6 Sb8 S24'
_cell_volume   942.00006694
_cell_formula_units_Z   2
loop_
 _symmetry_equiv_pos_site_id
 _symmetry_equiv_pos_as_xyz
  1  'x, y, z'
loop_
 _atom_site_type_symbol
 _atom_site_label
 _atom_site_symmetry_multiplicity
 _atom_site_fract_x
 _atom_site_fract_y
 _atom_site_fract_z
 _atom_site_occupancy
  Pr  Pr0  1  0.26940573  0.48270385  0.87871103  1
  Pr  Pr1  1  0.72737105  0.52710363  0.12885820  1
  Pr  Pr2  1  0.76079753  0.01342441  0.87053300  1
  Pr  Pr3  1  0.23374633  0.94135957  0.12826685  1
  Mn  Mn4  1  0.29739842  0.39659621  0.60605817  1
  Mn  Mn5  1  0.69586576  0.49201170  0.37113022  1
  Mn  Mn6  1  0.00801868  0.97046615  0.00408370  1
  Mn  Mn7  1  0.80162028  0.00853525  0.62389675  1
  Mn  Mn8  1  0.20440848  0.07464381  0.38328627  1
  Mn  Mn9  1  0.48380678  0.48396782  0.98199155  1
  Sb  Sb10  1  0.88932525  0.94643030  0.45302705  1
  Sb  Sb11  1  0.11119992  0.98688764  0.54822370  1
  Sb  Sb12  1  0.04039724  0.50692656  0.82855899  1
  Sb  Sb13  1  0.96990049  0.47240016  0.19428753  1
  Sb  Sb14  1  0.40136338  0.55842786  0.45137357  1
  Sb  Sb15  1  0.60464796  0.49063566  0.53313506  1
  Sb  Sb16  1  0.52451416  0.95914360  0.79580429  1
  Sb  Sb17  1  0.47151420  0.05015071  0.18002717  1
  S  S18  1  0.93668396  0.99521027  0.79664989  1
  S  S19  1  0.05115612  0.00649967  0.18594890  1
  S  S20  1  0.41580766  0.99862180  0.97563119  1
  S  S21  1  0.58732731  0.99906516  0.01267409  1
  S  S22  1  0.17165743  0.00056835  0.90762062  1
  S  S23  1  0.82601740  0.96131976  0.09449474  1
  S  S24  1  0.09482307  0.47997941  0.65547080  1
  S  S25  1  0.91880702  0.43262220  0.36659880  1
  S  S26  1  0.73396678  0.98778944  0.29932401  1
  S  S27  1  0.26202947  0.93900452  0.68236660  1
  S  S28  1  0.17109892  0.51719428  0.44502411  1
  S  S29  1  0.81447090  0.48082364  0.54261647  1
  S  S30  1  0.43091607  0.46695123  0.79105607  1
  S  S31  1  0.55812645  0.49263703  0.17860090  1
  S  S32  1  0.91318711  0.52931390  0.98877699  1
  S  S33  1  0.08068554  0.43886137  0.02337511  1
  S  S34  1  0.66445282  0.50433019  0.88696592  1
  S  S35  1  0.33541843  0.44958521  0.11502421  1
  S  S36  1  0.59849657  0.00460130  0.64732813  1
  S  S37  1  0.40247182  0.02486618  0.34065614  1
  S  S38  1  0.24317571  0.51048183  0.31700042  1
  S  S39  1  0.75987204  0.46418115  0.68845504  1
  S  S40  1  0.67172712  0.00596983  0.44809203  1
  S  S41  1  0.33077122  0.92843350  0.55056926  1
