# generated using pymatgen
data_Pr2Mn3(SbS3)4
_symmetry_space_group_name_H-M   'P 1'
_cell_length_a   20.02960800
_cell_length_b   3.90410600
_cell_length_c   14.95364829
_cell_angle_alpha   90.00000000
_cell_angle_beta   126.33350609
_cell_angle_gamma   90.00000000
_symmetry_Int_Tables_number   1
_chemical_formula_structural   Pr2Mn3(SbS3)4
_chemical_formula_sum   'Pr4 Mn6 Sb8 S24'
_cell_volume   942.00006694
_cell_formula_units_Z   2
loop_
 _symmetry_equiv_pos_site_id
 _symmetry_equiv_pos_as_xyz
  1  'x, y, z'
loop_
 _atom_site_type_symbol
 _atom_site_label
 _atom_site_symmetry_multiplicity
 _atom_site_fract_x
 _atom_site_fract_y
 _atom_site_fract_z
 _atom_site_occupancy
  Pr  Pr0  1  0.26933987  0.48218160  0.87852102  1
  Pr  Pr1  1  0.72751678  0.52741388  0.12905838  1
  Pr  Pr2  1  0.76085386  0.01309568  0.87063770  1
  Pr  Pr3  1  0.23376201  0.94137058  0.12829531  1
  Mn  Mn4  1  0.29732693  0.39629917  0.60612519  1
  Mn  Mn5  1  0.69588946  0.49214636  0.37108681  1
  Mn  Mn6  1  0.00798547  0.97070694  0.00391036  1
  Mn  Mn7  1  0.80142741  0.00800932  0.62390669  1
  Mn  Mn8  1  0.20438072  0.07479425  0.38334014  1
  Mn  Mn9  1  0.48399065  0.48351380  0.98216042  1
  Sb  Sb10  1  0.88942100  0.94643951  0.45303527  1
  Sb  Sb11  1  0.11101446  0.98703508  0.54817490  1
  Sb  Sb12  1  0.04032114  0.50677151  0.82846234  1
  Sb  Sb13  1  0.96978140  0.47261935  0.19419662  1
  Sb  Sb14  1  0.40126438  0.55839572  0.45115612  1
  Sb  Sb15  1  0.60461490  0.49107524  0.53292819  1
  Sb  Sb16  1  0.52451691  0.95922551  0.79582352  1
  Sb  Sb17  1  0.47167718  0.05022231  0.18015159  1
  S  S18  1  0.93645207  0.99513336  0.79667013  1
  S  S19  1  0.05120162  0.00517520  0.18605605  1
  S  S20  1  0.41591566  0.99911858  0.97592151  1
  S  S21  1  0.58738839  0.99994448  0.01309563  1
  S  S22  1  0.17171747  0.00034268  0.90785498  1
  S  S23  1  0.82594954  0.96256424  0.09426993  1
  S  S24  1  0.09476031  0.48013039  0.65533730  1
  S  S25  1  0.91865244  0.43237875  0.36641494  1
  S  S26  1  0.73415405  0.98773500  0.29961763  1
  S  S27  1  0.26203815  0.93899978  0.68248628  1
  S  S28  1  0.17115237  0.51653932  0.44510104  1
  S  S29  1  0.81447533  0.48102679  0.54265010  1
  S  S30  1  0.43116143  0.46565331  0.79128913  1
  S  S31  1  0.55795692  0.49249165  0.17844208  1
  S  S32  1  0.91313542  0.52996639  0.98834319  1
  S  S33  1  0.08051908  0.43933134  0.02340701  1
  S  S34  1  0.66445057  0.50420980  0.88684865  1
  S  S35  1  0.33533396  0.44944014  0.11496015  1
  S  S36  1  0.59850381  0.00492019  0.64751196  1
  S  S37  1  0.40253379  0.02481133  0.34105493  1
  S  S38  1  0.24327599  0.51063434  0.31731033  1
  S  S39  1  0.75998350  0.46401794  0.68840627  1
  S  S40  1  0.67164530  0.00614510  0.44817963  1
  S  S41  1  0.33087991  0.92702600  0.55069478  1
