# generated using pymatgen
data_Pr2Mn3(SbS3)4
_symmetry_space_group_name_H-M   'P 1'
_cell_length_a   20.02960800
_cell_length_b   3.90410600
_cell_length_c   14.95364829
_cell_angle_alpha   90.00000000
_cell_angle_beta   126.33350609
_cell_angle_gamma   90.00000000
_symmetry_Int_Tables_number   1
_chemical_formula_structural   Pr2Mn3(SbS3)4
_chemical_formula_sum   'Pr4 Mn6 Sb8 S24'
_cell_volume   942.00006694
_cell_formula_units_Z   2
loop_
 _symmetry_equiv_pos_site_id
 _symmetry_equiv_pos_as_xyz
  1  'x, y, z'
loop_
 _atom_site_type_symbol
 _atom_site_label
 _atom_site_symmetry_multiplicity
 _atom_site_fract_x
 _atom_site_fract_y
 _atom_site_fract_z
 _atom_site_occupancy
  Pr  Pr0  1  0.26931141  0.48211953  0.87838349  1
  Pr  Pr1  1  0.72768913  0.52755362  0.12924666  1
  Pr  Pr2  1  0.76088954  0.01291814  0.87065184  1
  Pr  Pr3  1  0.23381758  0.94123667  0.12836589  1
  Mn  Mn4  1  0.29718092  0.39567344  0.60620176  1
  Mn  Mn5  1  0.69589905  0.49193504  0.37094211  1
  Mn  Mn6  1  0.00792216  0.97153917  0.00374013  1
  Mn  Mn7  1  0.80124243  0.00765795  0.62398028  1
  Mn  Mn8  1  0.20433706  0.07463500  0.38328216  1
  Mn  Mn9  1  0.48415730  0.48310329  0.98238333  1
  Sb  Sb10  1  0.88947525  0.94630473  0.45300591  1
  Sb  Sb11  1  0.11086082  0.98719651  0.54820305  1
  Sb  Sb12  1  0.04026632  0.50691937  0.82838187  1
  Sb  Sb13  1  0.96971203  0.47292026  0.19420053  1
  Sb  Sb14  1  0.40120866  0.55845825  0.45098277  1
  Sb  Sb15  1  0.60466189  0.49127708  0.53278303  1
  Sb  Sb16  1  0.52453216  0.95937262  0.79573120  1
  Sb  Sb17  1  0.47186996  0.05027209  0.18034022  1
  S  S18  1  0.93634953  0.99532965  0.79696918  1
  S  S19  1  0.05137512  0.00402542  0.18625648  1
  S  S20  1  0.41593811  0.99898123  0.97608912  1
  S  S21  1  0.58754676  0.00101869  0.01350839  1
  S  S22  1  0.17187906  0.99985220  0.90803906  1
  S  S23  1  0.82587774  0.96386582  0.09402644  1
  S  S24  1  0.09476063  0.48017019  0.65542343  1
  S  S25  1  0.91848766  0.43206784  0.36635366  1
  S  S26  1  0.73428466  0.98715635  0.30009514  1
  S  S27  1  0.26210147  0.93905562  0.68252698  1
  S  S28  1  0.17114143  0.51533897  0.44530514  1
  S  S29  1  0.81453749  0.48107098  0.54255871  1
  S  S30  1  0.43136584  0.46446628  0.79153548  1
  S  S31  1  0.55781791  0.49182729  0.17852022  1
  S  S32  1  0.91294876  0.53073684  0.98797969  1
  S  S33  1  0.08048506  0.44021197  0.02359075  1
  S  S34  1  0.66449464  0.50435661  0.88684638  1
  S  S35  1  0.33525848  0.44889353  0.11491666  1
  S  S36  1  0.59838986  0.00542993  0.64751962  1
  S  S37  1  0.40255001  0.02472079  0.34144210  1
  S  S38  1  0.24333173  0.51064476  0.31761481  1
  S  S39  1  0.76019401  0.46357642  0.68855251  1
  S  S40  1  0.67158486  0.00617460  0.44838505  1
  S  S41  1  0.33100829  0.92539959  0.55085601  1
