# generated using pymatgen
data_Pr2Mn3(SbS3)4
_symmetry_space_group_name_H-M   'P 1'
_cell_length_a   20.02960800
_cell_length_b   3.90410600
_cell_length_c   14.95364829
_cell_angle_alpha   90.00000000
_cell_angle_beta   126.33350609
_cell_angle_gamma   90.00000000
_symmetry_Int_Tables_number   1
_chemical_formula_structural   Pr2Mn3(SbS3)4
_chemical_formula_sum   'Pr4 Mn6 Sb8 S24'
_cell_volume   942.00006694
_cell_formula_units_Z   2
loop_
 _symmetry_equiv_pos_site_id
 _symmetry_equiv_pos_as_xyz
  1  'x, y, z'
loop_
 _atom_site_type_symbol
 _atom_site_label
 _atom_site_symmetry_multiplicity
 _atom_site_fract_x
 _atom_site_fract_y
 _atom_site_fract_z
 _atom_site_occupancy
  Pr  Pr0  1  0.26925950  0.48203644  0.87829517  1
  Pr  Pr1  1  0.72784602  0.52796775  0.12938672  1
  Pr  Pr2  1  0.76089037  0.01279292  0.87062285  1
  Pr  Pr3  1  0.23383865  0.94095334  0.12839800  1
  Mn  Mn4  1  0.29703175  0.39507113  0.60622274  1
  Mn  Mn5  1  0.69593233  0.49154510  0.37085177  1
  Mn  Mn6  1  0.00773317  0.97241605  0.00351648  1
  Mn  Mn7  1  0.80103030  0.00742217  0.62391545  1
  Mn  Mn8  1  0.20435312  0.07471857  0.38321650  1
  Mn  Mn9  1  0.48434362  0.48296839  0.98247755  1
  Sb  Sb10  1  0.88951031  0.94628264  0.45287322  1
  Sb  Sb11  1  0.11076918  0.98728610  0.54829830  1
  Sb  Sb12  1  0.04026986  0.50706945  0.82843497  1
  Sb  Sb13  1  0.96965037  0.47293278  0.19426837  1
  Sb  Sb14  1  0.40118066  0.55878408  0.45083049  1
  Sb  Sb15  1  0.60470598  0.49177481  0.53262928  1
  Sb  Sb16  1  0.52454348  0.95941206  0.79571484  1
  Sb  Sb17  1  0.47212973  0.05012451  0.18055924  1
  S  S18  1  0.93633205  0.99554326  0.79730660  1
  S  S19  1  0.05153031  0.00268833  0.18649031  1
  S  S20  1  0.41594906  0.99810085  0.97624923  1
  S  S21  1  0.58774141  0.00221794  0.01384085  1
  S  S22  1  0.17200496  0.99855836  0.90818599  1
  S  S23  1  0.82580257  0.96501568  0.09384557  1
  S  S24  1  0.09478919  0.48038049  0.65525676  1
  S  S25  1  0.91817039  0.43151591  0.36626111  1
  S  S26  1  0.73429953  0.98712433  0.30035679  1
  S  S27  1  0.26219746  0.93896392  0.68256379  1
  S  S28  1  0.17111217  0.51411695  0.44554014  1
  S  S29  1  0.81460765  0.48130517  0.54243992  1
  S  S30  1  0.43147626  0.46365377  0.79152550  1
  S  S31  1  0.55758587  0.49060347  0.17843923  1
  S  S32  1  0.91276843  0.53177830  0.98762310  1
  S  S33  1  0.08044020  0.44109782  0.02365506  1
  S  S34  1  0.66467320  0.50440090  0.88693595  1
  S  S35  1  0.33525170  0.44829699  0.11483214  1
  S  S36  1  0.59821796  0.00540978  0.64736690  1
  S  S37  1  0.40261910  0.02458287  0.34176264  1
  S  S38  1  0.24330402  0.51081132  0.31784326  1
  S  S39  1  0.76044087  0.46368809  0.68884865  1
  S  S40  1  0.67158288  0.00591969  0.44866695  1
  S  S41  1  0.33117257  0.92358675  0.55116535  1
