# generated using pymatgen
data_Pr2Mn3(SbS3)4
_symmetry_space_group_name_H-M   'P 1'
_cell_length_a   20.02960800
_cell_length_b   3.90410600
_cell_length_c   14.95364829
_cell_angle_alpha   90.00000000
_cell_angle_beta   126.33350609
_cell_angle_gamma   90.00000000
_symmetry_Int_Tables_number   1
_chemical_formula_structural   Pr2Mn3(SbS3)4
_chemical_formula_sum   'Pr4 Mn6 Sb8 S24'
_cell_volume   942.00006694
_cell_formula_units_Z   2
loop_
 _symmetry_equiv_pos_site_id
 _symmetry_equiv_pos_as_xyz
  1  'x, y, z'
loop_
 _atom_site_type_symbol
 _atom_site_label
 _atom_site_symmetry_multiplicity
 _atom_site_fract_x
 _atom_site_fract_y
 _atom_site_fract_z
 _atom_site_occupancy
  Pr  Pr0  1  0.26919565  0.48215613  0.87819781  1
  Pr  Pr1  1  0.72801430  0.52810539  0.12955968  1
  Pr  Pr2  1  0.76093787  0.01281997  0.87062082  1
  Pr  Pr3  1  0.23379139  0.94070703  0.12842149  1
  Mn  Mn4  1  0.29685581  0.39446687  0.60625796  1
  Mn  Mn5  1  0.69599074  0.49121830  0.37079334  1
  Mn  Mn6  1  0.00754723  0.97324881  0.00331541  1
  Mn  Mn7  1  0.80088380  0.00720431  0.62394557  1
  Mn  Mn8  1  0.20441846  0.07498161  0.38320646  1
  Mn  Mn9  1  0.48460050  0.48297804  0.98257714  1
  Sb  Sb10  1  0.88955978  0.94633792  0.45283039  1
  Sb  Sb11  1  0.11067665  0.98733427  0.54839032  1
  Sb  Sb12  1  0.04033014  0.50689653  0.82852309  1
  Sb  Sb13  1  0.96960815  0.47308263  0.19435171  1
  Sb  Sb14  1  0.40115260  0.55894094  0.45071956  1
  Sb  Sb15  1  0.60474938  0.49230814  0.53248409  1
  Sb  Sb16  1  0.52455729  0.95950426  0.79571206  1
  Sb  Sb17  1  0.47228410  0.05007773  0.18061896  1
  S  S18  1  0.93630819  0.99565952  0.79764692  1
  S  S19  1  0.05168922  0.00120168  0.18674304  1
  S  S20  1  0.41588728  0.99704652  0.97654178  1
  S  S21  1  0.58793360  0.00320781  0.01407790  1
  S  S22  1  0.17213586  0.99744962  0.90822931  1
  S  S23  1  0.82569974  0.96573521  0.09361816  1
  S  S24  1  0.09475305  0.48130325  0.65507913  1
  S  S25  1  0.91784553  0.43150909  0.36608748  1
  S  S26  1  0.73432507  0.98728515  0.30069636  1
  S  S27  1  0.26234751  0.93848603  0.68264029  1
  S  S28  1  0.17103658  0.51293610  0.44569609  1
  S  S29  1  0.81471090  0.48156435  0.54244693  1
  S  S30  1  0.43156540  0.46270354  0.79159200  1
  S  S31  1  0.55742490  0.48920081  0.17839236  1
  S  S32  1  0.91257106  0.53252726  0.98720313  1
  S  S33  1  0.08027920  0.44180517  0.02380651  1
  S  S34  1  0.66484558  0.50421166  0.88687151  1
  S  S35  1  0.33521495  0.44676567  0.11483227  1
  S  S36  1  0.59803214  0.00597785  0.64709758  1
  S  S37  1  0.40269269  0.02412835  0.34200239  1
  S  S38  1  0.24336564  0.51061932  0.31811075  1
  S  S39  1  0.76066138  0.46383911  0.68915964  1
  S  S40  1  0.67172354  0.00576798  0.44915506  1
  S  S41  1  0.33132315  0.92191401  0.55157545  1
