# generated using pymatgen
data_Pr2Mn3(SbS3)4
_symmetry_space_group_name_H-M   'P 1'
_cell_length_a   20.02960800
_cell_length_b   3.90410600
_cell_length_c   14.95364829
_cell_angle_alpha   90.00000000
_cell_angle_beta   126.33350609
_cell_angle_gamma   90.00000000
_symmetry_Int_Tables_number   1
_chemical_formula_structural   Pr2Mn3(SbS3)4
_chemical_formula_sum   'Pr4 Mn6 Sb8 S24'
_cell_volume   942.00006694
_cell_formula_units_Z   2
loop_
 _symmetry_equiv_pos_site_id
 _symmetry_equiv_pos_as_xyz
  1  'x, y, z'
loop_
 _atom_site_type_symbol
 _atom_site_label
 _atom_site_symmetry_multiplicity
 _atom_site_fract_x
 _atom_site_fract_y
 _atom_site_fract_z
 _atom_site_occupancy
  Pr  Pr0  1  0.26915241  0.48203706  0.87814542  1
  Pr  Pr1  1  0.72807599  0.52820405  0.12969318  1
  Pr  Pr2  1  0.76109039  0.01323607  0.87071302  1
  Pr  Pr3  1  0.23370063  0.94059782  0.12844031  1
  Mn  Mn4  1  0.29669507  0.39345230  0.60629671  1
  Mn  Mn5  1  0.69597310  0.49106508  0.37069913  1
  Mn  Mn6  1  0.00748120  0.97407644  0.00328054  1
  Mn  Mn7  1  0.80074989  0.00682839  0.62399008  1
  Mn  Mn8  1  0.20445382  0.07547521  0.38311835  1
  Mn  Mn9  1  0.48480955  0.48303171  0.98263889  1
  Sb  Sb10  1  0.88958842  0.94654276  0.45275800  1
  Sb  Sb11  1  0.11056176  0.98731994  0.54846938  1
  Sb  Sb12  1  0.04037586  0.50699258  0.82860139  1
  Sb  Sb13  1  0.96955945  0.47345831  0.19443507  1
  Sb  Sb14  1  0.40104895  0.55915940  0.45052593  1
  Sb  Sb15  1  0.60476821  0.49290078  0.53229381  1
  Sb  Sb16  1  0.52460950  0.95973534  0.79573993  1
  Sb  Sb17  1  0.47233523  0.05006469  0.18060947  1
  S  S18  1  0.93643593  0.99584472  0.79807527  1
  S  S19  1  0.05181654  0.00012165  0.18704997  1
  S  S20  1  0.41584421  0.99613765  0.97696035  1
  S  S21  1  0.58801897  0.00400077  0.01412437  1
  S  S22  1  0.17213468  0.99662936  0.90813055  1
  S  S23  1  0.82557827  0.96622129  0.09336401  1
  S  S24  1  0.09493279  0.48250687  0.65504198  1
  S  S25  1  0.91760880  0.43173266  0.36607940  1
  S  S26  1  0.73443136  0.98721135  0.30114773  1
  S  S27  1  0.26243928  0.93818258  0.68257131  1
  S  S28  1  0.17090918  0.51201589  0.44575862  1
  S  S29  1  0.81479782  0.48149979  0.54247429  1
  S  S30  1  0.43174664  0.46177953  0.79171716  1
  S  S31  1  0.55747794  0.48777836  0.17852899  1
  S  S32  1  0.91231134  0.53291474  0.98675898  1
  S  S33  1  0.08020010  0.44246706  0.02396685  1
  S  S34  1  0.66509706  0.50415424  0.88701613  1
  S  S35  1  0.33530156  0.44569198  0.11498275  1
  S  S36  1  0.59786688  0.00664687  0.64684148  1
  S  S37  1  0.40270085  0.02407904  0.34225903  1
  S  S38  1  0.24332146  0.51007690  0.31824005  1
  S  S39  1  0.76077898  0.46450868  0.68935187  1
  S  S40  1  0.67183357  0.00606926  0.44965628  1
  S  S41  1  0.33147480  0.92037242  0.55190919  1
