# generated using pymatgen
data_Pr2Mn3(SbS3)4
_symmetry_space_group_name_H-M   'P 1'
_cell_length_a   20.02960800
_cell_length_b   3.90410600
_cell_length_c   14.95364829
_cell_angle_alpha   90.00000000
_cell_angle_beta   126.33350609
_cell_angle_gamma   90.00000000
_symmetry_Int_Tables_number   1
_chemical_formula_structural   Pr2Mn3(SbS3)4
_chemical_formula_sum   'Pr4 Mn6 Sb8 S24'
_cell_volume   942.00006694
_cell_formula_units_Z   2
loop_
 _symmetry_equiv_pos_site_id
 _symmetry_equiv_pos_as_xyz
  1  'x, y, z'
loop_
 _atom_site_type_symbol
 _atom_site_label
 _atom_site_symmetry_multiplicity
 _atom_site_fract_x
 _atom_site_fract_y
 _atom_site_fract_z
 _atom_site_occupancy
  Pr  Pr0  1  0.26480485  0.48229997  0.86969838  1
  Pr  Pr1  1  0.73695459  0.50693084  0.13489965  1
  Pr  Pr2  1  0.76180574  0.00844728  0.86147000  1
  Pr  Pr3  1  0.23762428  0.99825889  0.14049459  1
  Mn  Mn4  1  0.29757101  0.50096938  0.61579322  1
  Mn  Mn5  1  0.69629717  0.50751737  0.37986761  1
  Mn  Mn6  1  0.00190759  0.99596493  0.99820690  1
  Mn  Mn7  1  0.80349354  0.98881800  0.61571769  1
  Mn  Mn8  1  0.19835143  0.97621756  0.38020372  1
  Mn  Mn9  1  0.50187028  0.47893095  0.99432590  1
  Sb  Sb10  1  0.89326720  0.00525330  0.45442748  1
  Sb  Sb11  1  0.10891835  0.97769459  0.55090361  1
  Sb  Sb12  1  0.03921795  0.49002573  0.81586547  1
  Sb  Sb13  1  0.96187680  0.52167676  0.18737611  1
  Sb  Sb14  1  0.39657541  0.49498074  0.45736505  1
  Sb  Sb15  1  0.60717259  0.49857970  0.54930676  1
  Sb  Sb16  1  0.53702687  0.00587332  0.81619147  1
  Sb  Sb17  1  0.46219072  0.00188140  0.18068680  1
  S  S18  1  0.93581195  0.97745284  0.79722360  1
  S  S19  1  0.06284390  0.99832615  0.19259380  1
  S  S20  1  0.40913150  0.00062950  0.97816119  1
  S  S21  1  0.59192327  0.99051014  0.01699229  1
  S  S22  1  0.17140924  0.99179271  0.89808613  1
  S  S23  1  0.82832518  0.01768456  0.10365573  1
  S  S24  1  0.08488562  0.47445940  0.64249010  1
  S  S25  1  0.91460417  0.48383831  0.36088316  1
  S  S26  1  0.74234837  0.94398026  0.29417933  1
  S  S27  1  0.25794905  0.00127768  0.70341386  1
  S  S28  1  0.16339208  0.49090036  0.44540761  1
  S  S29  1  0.83047795  0.48333179  0.54999230  1
  S  S30  1  0.43577399  0.51082082  0.80258890  1
  S  S31  1  0.56066893  0.51920987  0.19067966  1
  S  S32  1  0.90210057  0.48791324  0.97624130  1
  S  S33  1  0.08762979  0.48893164  0.01728784  1
  S  S34  1  0.66389330  0.50676228  0.89390742  1
  S  S35  1  0.33017333  0.52227161  0.09990141  1
  S  S36  1  0.59111535  0.01100041  0.64909444  1
  S  S37  1  0.41337984  0.96612191  0.35725745  1
  S  S38  1  0.24326585  0.48647177  0.30126765  1
  S  S39  1  0.76032260  0.49867790  0.69670404  1
  S  S40  1  0.67072892  0.01660768  0.46290887  1
  S  S41  1  0.33040700  0.98467347  0.54197439  1
