# generated using pymatgen
data_Pr2Mn3(SbS3)4
_symmetry_space_group_name_H-M   'P 1'
_cell_length_a   20.02960800
_cell_length_b   3.90410600
_cell_length_c   14.95364829
_cell_angle_alpha   90.00000000
_cell_angle_beta   126.33350609
_cell_angle_gamma   90.00000000
_symmetry_Int_Tables_number   1
_chemical_formula_structural   Pr2Mn3(SbS3)4
_chemical_formula_sum   'Pr4 Mn6 Sb8 S24'
_cell_volume   942.00006694
_cell_formula_units_Z   2
loop_
 _symmetry_equiv_pos_site_id
 _symmetry_equiv_pos_as_xyz
  1  'x, y, z'
loop_
 _atom_site_type_symbol
 _atom_site_label
 _atom_site_symmetry_multiplicity
 _atom_site_fract_x
 _atom_site_fract_y
 _atom_site_fract_z
 _atom_site_occupancy
  Pr  Pr0  1  0.26910446  0.48191943  0.87810443  1
  Pr  Pr1  1  0.72812673  0.52817659  0.12986194  1
  Pr  Pr2  1  0.76124866  0.01365276  0.87085828  1
  Pr  Pr3  1  0.23361230  0.94042196  0.12846770  1
  Mn  Mn4  1  0.29655302  0.39278087  0.60621675  1
  Mn  Mn5  1  0.69602957  0.49133158  0.37066806  1
  Mn  Mn6  1  0.00744992  0.97471644  0.00323226  1
  Mn  Mn7  1  0.80066323  0.00656342  0.62403681  1
  Mn  Mn8  1  0.20452179  0.07560229  0.38309909  1
  Mn  Mn9  1  0.48503137  0.48276489  0.98273640  1
  Sb  Sb10  1  0.88966213  0.94679740  0.45278106  1
  Sb  Sb11  1  0.11041714  0.98727500  0.54853720  1
  Sb  Sb12  1  0.04040980  0.50691057  0.82863773  1
  Sb  Sb13  1  0.96946257  0.47383340  0.19447250  1
  Sb  Sb14  1  0.40091731  0.55962189  0.45033950  1
  Sb  Sb15  1  0.60473686  0.49328350  0.53207445  1
  Sb  Sb16  1  0.52465643  0.96005013  0.79574245  1
  Sb  Sb17  1  0.47233386  0.04982200  0.18055681  1
  S  S18  1  0.93654270  0.99583652  0.79846008  1
  S  S19  1  0.05196850  0.99892040  0.18731047  1
  S  S20  1  0.41585029  0.99558909  0.97721813  1
  S  S21  1  0.58808240  0.00513244  0.01416549  1
  S  S22  1  0.17212218  0.99580721  0.90793430  1
  S  S23  1  0.82553882  0.96754388  0.09318952  1
  S  S24  1  0.09504180  0.48325122  0.65499258  1
  S  S25  1  0.91734230  0.43211590  0.36606759  1
  S  S26  1  0.73447652  0.98781261  0.30159576  1
  S  S27  1  0.26249083  0.93768289  0.68248741  1
  S  S28  1  0.17087788  0.51162228  0.44590370  1
  S  S29  1  0.81492608  0.48100812  0.54245349  1
  S  S30  1  0.43193686  0.46019834  0.79181879  1
  S  S31  1  0.55759815  0.48699655  0.17867700  1
  S  S32  1  0.91219222  0.53287881  0.98645219  1
  S  S33  1  0.08008135  0.44333974  0.02397012  1
  S  S34  1  0.66525343  0.50379074  0.88716069  1
  S  S35  1  0.33530496  0.44457699  0.11508381  1
  S  S36  1  0.59772489  0.00746348  0.64652974  1
  S  S37  1  0.40264048  0.02430471  0.34243514  1
  S  S38  1  0.24337694  0.50987081  0.31850561  1
  S  S39  1  0.76099528  0.46501765  0.68959024  1
  S  S40  1  0.67190012  0.00623086  0.44995037  1
  S  S41  1  0.33162135  0.91857622  0.55223957  1
