# generated using pymatgen
data_Pr2Mn3(SbS3)4
_symmetry_space_group_name_H-M   'P 1'
_cell_length_a   20.02960800
_cell_length_b   3.90410600
_cell_length_c   14.95364829
_cell_angle_alpha   90.00000000
_cell_angle_beta   126.33350609
_cell_angle_gamma   90.00000000
_symmetry_Int_Tables_number   1
_chemical_formula_structural   Pr2Mn3(SbS3)4
_chemical_formula_sum   'Pr4 Mn6 Sb8 S24'
_cell_volume   942.00006694
_cell_formula_units_Z   2
loop_
 _symmetry_equiv_pos_site_id
 _symmetry_equiv_pos_as_xyz
  1  'x, y, z'
loop_
 _atom_site_type_symbol
 _atom_site_label
 _atom_site_symmetry_multiplicity
 _atom_site_fract_x
 _atom_site_fract_y
 _atom_site_fract_z
 _atom_site_occupancy
  Pr  Pr0  1  0.26907776  0.48203086  0.87805674  1
  Pr  Pr1  1  0.72821371  0.52829953  0.13003534  1
  Pr  Pr2  1  0.76142304  0.01376774  0.87099601  1
  Pr  Pr3  1  0.23356859  0.94052385  0.12852614  1
  Mn  Mn4  1  0.29637200  0.39218325  0.60604315  1
  Mn  Mn5  1  0.69603586  0.49185278  0.37053769  1
  Mn  Mn6  1  0.00738490  0.97508825  0.00311178  1
  Mn  Mn7  1  0.80062637  0.00619318  0.62415366  1
  Mn  Mn8  1  0.20464619  0.07521261  0.38318895  1
  Mn  Mn9  1  0.48512133  0.48236897  0.98272191  1
  Sb  Sb10  1  0.88977134  0.94690088  0.45280802  1
  Sb  Sb11  1  0.11030707  0.98706218  0.54861062  1
  Sb  Sb12  1  0.04041469  0.50677111  0.82867870  1
  Sb  Sb13  1  0.96945363  0.47426892  0.19454004  1
  Sb  Sb14  1  0.40080556  0.55992283  0.45019013  1
  Sb  Sb15  1  0.60466959  0.49354709  0.53187632  1
  Sb  Sb16  1  0.52473214  0.96020803  0.79581222  1
  Sb  Sb17  1  0.47234067  0.04954497  0.18055569  1
  S  S18  1  0.93660943  0.99649486  0.79881134  1
  S  S19  1  0.05209835  0.99762812  0.18757875  1
  S  S20  1  0.41589439  0.99512033  0.97742050  1
  S  S21  1  0.58805815  0.00618284  0.01420431  1
  S  S22  1  0.17213975  0.99452221  0.90782952  1
  S  S23  1  0.82553485  0.96879855  0.09300653  1
  S  S24  1  0.09513136  0.48412972  0.65493434  1
  S  S25  1  0.91710000  0.43227930  0.36610311  1
  S  S26  1  0.73460376  0.98847812  0.30197265  1
  S  S27  1  0.26256190  0.93785367  0.68243210  1
  S  S28  1  0.17089071  0.51122647  0.44618835  1
  S  S29  1  0.81504846  0.48092119  0.54236470  1
  S  S30  1  0.43202709  0.45897506  0.79181026  1
  S  S31  1  0.55777915  0.48665067  0.17888441  1
  S  S32  1  0.91215496  0.53280589  0.98623419  1
  S  S33  1  0.07997770  0.44406392  0.02384599  1
  S  S34  1  0.66535767  0.50343519  0.88736300  1
  S  S35  1  0.33540678  0.44347508  0.11521372  1
  S  S36  1  0.59752422  0.00843862  0.64619823  1
  S  S37  1  0.40246418  0.02408714  0.34252069  1
  S  S38  1  0.24325462  0.50977876  0.31865699  1
  S  S39  1  0.76109372  0.46502411  0.68973495  1
  S  S40  1  0.67203343  0.00614465  0.45028675  1
  S  S41  1  0.33184593  0.91687131  0.55257333  1
