# generated using pymatgen
data_Pr2Mn3(SbS3)4
_symmetry_space_group_name_H-M   'P 1'
_cell_length_a   20.02960800
_cell_length_b   3.90410600
_cell_length_c   14.95364829
_cell_angle_alpha   90.00000000
_cell_angle_beta   126.33350609
_cell_angle_gamma   90.00000000
_symmetry_Int_Tables_number   1
_chemical_formula_structural   Pr2Mn3(SbS3)4
_chemical_formula_sum   'Pr4 Mn6 Sb8 S24'
_cell_volume   942.00006694
_cell_formula_units_Z   2
loop_
 _symmetry_equiv_pos_site_id
 _symmetry_equiv_pos_as_xyz
  1  'x, y, z'
loop_
 _atom_site_type_symbol
 _atom_site_label
 _atom_site_symmetry_multiplicity
 _atom_site_fract_x
 _atom_site_fract_y
 _atom_site_fract_z
 _atom_site_occupancy
  Pr  Pr0  1  0.26910220  0.48212449  0.87805925  1
  Pr  Pr1  1  0.72825768  0.52840394  0.13017099  1
  Pr  Pr2  1  0.76159466  0.01389193  0.87118546  1
  Pr  Pr3  1  0.23360221  0.94031401  0.12867906  1
  Mn  Mn4  1  0.29631337  0.39151662  0.60590410  1
  Mn  Mn5  1  0.69599044  0.49209294  0.37037596  1
  Mn  Mn6  1  0.00723508  0.97554436  0.00307489  1
  Mn  Mn7  1  0.80060488  0.00581201  0.62424848  1
  Mn  Mn8  1  0.20476972  0.07500181  0.38324392  1
  Mn  Mn9  1  0.48519485  0.48209691  0.98272385  1
  Sb  Sb10  1  0.88982809  0.94734295  0.45279278  1
  Sb  Sb11  1  0.11023364  0.98682249  0.54864751  1
  Sb  Sb12  1  0.04046406  0.50669887  0.82877404  1
  Sb  Sb13  1  0.96947457  0.47462740  0.19458248  1
  Sb  Sb14  1  0.40075884  0.55988613  0.45005392  1
  Sb  Sb15  1  0.60456323  0.49366854  0.53160211  1
  Sb  Sb16  1  0.52476575  0.96033621  0.79586295  1
  Sb  Sb17  1  0.47235996  0.04926112  0.18058730  1
  S  S18  1  0.93657894  0.99715527  0.79917800  1
  S  S19  1  0.05219037  0.99653217  0.18770706  1
  S  S20  1  0.41596485  0.99373696  0.97761898  1
  S  S21  1  0.58794039  0.00753571  0.01417197  1
  S  S22  1  0.17221530  0.99351471  0.90776898  1
  S  S23  1  0.82552273  0.97062703  0.09282661  1
  S  S24  1  0.09520427  0.48523577  0.65479356  1
  S  S25  1  0.91681043  0.43269828  0.36609859  1
  S  S26  1  0.73470115  0.98911971  0.30226750  1
  S  S27  1  0.26253254  0.93824567  0.68228251  1
  S  S28  1  0.17090098  0.51107083  0.44657346  1
  S  S29  1  0.81523276  0.48035417  0.54231036  1
  S  S30  1  0.43215580  0.45806499  0.79175844  1
  S  S31  1  0.55796233  0.48612229  0.17910330  1
  S  S32  1  0.91206880  0.53308012  0.98603756  1
  S  S33  1  0.07992461  0.44457741  0.02387475  1
  S  S34  1  0.66546604  0.50319204  0.88757631  1
  S  S35  1  0.33547110  0.44300986  0.11527137  1
  S  S36  1  0.59720380  0.00928294  0.64580255  1
  S  S37  1  0.40230587  0.02441692  0.34250893  1
  S  S38  1  0.24304904  0.50969662  0.31867282  1
  S  S39  1  0.76127906  0.46553791  0.69000318  1
  S  S40  1  0.67226117  0.00657688  0.45076175  1
  S  S41  1  0.33209493  0.91552959  0.55283851  1
