# generated using pymatgen
data_Pr2Mn3(SbS3)4
_symmetry_space_group_name_H-M   'P 1'
_cell_length_a   20.02960800
_cell_length_b   3.90410600
_cell_length_c   14.95364829
_cell_angle_alpha   90.00000000
_cell_angle_beta   126.33350609
_cell_angle_gamma   90.00000000
_symmetry_Int_Tables_number   1
_chemical_formula_structural   Pr2Mn3(SbS3)4
_chemical_formula_sum   'Pr4 Mn6 Sb8 S24'
_cell_volume   942.00006694
_cell_formula_units_Z   2
loop_
 _symmetry_equiv_pos_site_id
 _symmetry_equiv_pos_as_xyz
  1  'x, y, z'
loop_
 _atom_site_type_symbol
 _atom_site_label
 _atom_site_symmetry_multiplicity
 _atom_site_fract_x
 _atom_site_fract_y
 _atom_site_fract_z
 _atom_site_occupancy
  Pr  Pr0  1  0.26914983  0.48206141  0.87812555  1
  Pr  Pr1  1  0.72829430  0.52853447  0.13024320  1
  Pr  Pr2  1  0.76181938  0.01417520  0.87133857  1
  Pr  Pr3  1  0.23360386  0.94012167  0.12880038  1
  Mn  Mn4  1  0.29636029  0.39091650  0.60584320  1
  Mn  Mn5  1  0.69589209  0.49193886  0.37018615  1
  Mn  Mn6  1  0.00711748  0.97604433  0.00306314  1
  Mn  Mn7  1  0.80060199  0.00548563  0.62430733  1
  Mn  Mn8  1  0.20483659  0.07484283  0.38320394  1
  Mn  Mn9  1  0.48525237  0.48195154  0.98277856  1
  Sb  Sb10  1  0.88984511  0.94778483  0.45281068  1
  Sb  Sb11  1  0.11016722  0.98671712  0.54871015  1
  Sb  Sb12  1  0.04050408  0.50664059  0.82879349  1
  Sb  Sb13  1  0.96947397  0.47504033  0.19459218  1
  Sb  Sb14  1  0.40069084  0.55964719  0.44994545  1
  Sb  Sb15  1  0.60448055  0.49372449  0.53134625  1
  Sb  Sb16  1  0.52482679  0.96060127  0.79592260  1
  Sb  Sb17  1  0.47240848  0.04887075  0.18061466  1
  S  S18  1  0.93655694  0.99784842  0.79944363  1
  S  S19  1  0.05242796  0.99514755  0.18803661  1
  S  S20  1  0.41591608  0.99234782  0.97759452  1
  S  S21  1  0.58775666  0.00922726  0.01398371  1
  S  S22  1  0.17230722  0.99242188  0.90780466  1
  S  S23  1  0.82562051  0.97180340  0.09272528  1
  S  S24  1  0.09528235  0.48621408  0.65464440  1
  S  S25  1  0.91646342  0.43327131  0.36600559  1
  S  S26  1  0.73486846  0.98940134  0.30268363  1
  S  S27  1  0.26242191  0.93866960  0.68223635  1
  S  S28  1  0.17096650  0.51129935  0.44700875  1
  S  S29  1  0.81538969  0.48001910  0.54209112  1
  S  S30  1  0.43229768  0.45741774  0.79187772  1
  S  S31  1  0.55806667  0.48603388  0.17936117  1
  S  S32  1  0.91192613  0.53375938  0.98583800  1
  S  S33  1  0.07984934  0.44457533  0.02389241  1
  S  S34  1  0.66552722  0.50296861  0.88773912  1
  S  S35  1  0.33555863  0.44250567  0.11539495  1
  S  S36  1  0.59694396  0.00992598  0.64549676  1
  S  S37  1  0.40219343  0.02484923  0.34257927  1
  S  S38  1  0.24276184  0.50937011  0.31868320  1
  S  S39  1  0.76145475  0.46602491  0.69021356  1
  S  S40  1  0.67247225  0.00700777  0.45119525  1
  S  S41  1  0.33225347  0.91426977  0.55318159  1
