# generated using pymatgen
data_Pr2Mn3(SbS3)4
_symmetry_space_group_name_H-M   'P 1'
_cell_length_a   20.02960800
_cell_length_b   3.90410600
_cell_length_c   14.95364829
_cell_angle_alpha   90.00000000
_cell_angle_beta   126.33350609
_cell_angle_gamma   90.00000000
_symmetry_Int_Tables_number   1
_chemical_formula_structural   Pr2Mn3(SbS3)4
_chemical_formula_sum   'Pr4 Mn6 Sb8 S24'
_cell_volume   942.00006694
_cell_formula_units_Z   2
loop_
 _symmetry_equiv_pos_site_id
 _symmetry_equiv_pos_as_xyz
  1  'x, y, z'
loop_
 _atom_site_type_symbol
 _atom_site_label
 _atom_site_symmetry_multiplicity
 _atom_site_fract_x
 _atom_site_fract_y
 _atom_site_fract_z
 _atom_site_occupancy
  Pr  Pr0  1  0.26923380  0.48219977  0.87826131  1
  Pr  Pr1  1  0.72833742  0.52845907  0.13035089  1
  Pr  Pr2  1  0.76191593  0.01418492  0.87142271  1
  Pr  Pr3  1  0.23360948  0.94012511  0.12896508  1
  Mn  Mn4  1  0.29633547  0.39036927  0.60576823  1
  Mn  Mn5  1  0.69577342  0.49196205  0.36983798  1
  Mn  Mn6  1  0.00699112  0.97669313  0.00301744  1
  Mn  Mn7  1  0.80057274  0.00539096  0.62432688  1
  Mn  Mn8  1  0.20488675  0.07430087  0.38324489  1
  Mn  Mn9  1  0.48528211  0.48172059  0.98287769  1
  Sb  Sb10  1  0.88987045  0.94822883  0.45287510  1
  Sb  Sb11  1  0.11010326  0.98666323  0.54874717  1
  Sb  Sb12  1  0.04051689  0.50645816  0.82881998  1
  Sb  Sb13  1  0.96942518  0.47539492  0.19462224  1
  Sb  Sb14  1  0.40062053  0.55938449  0.44979778  1
  Sb  Sb15  1  0.60439850  0.49369284  0.53114507  1
  Sb  Sb16  1  0.52490154  0.96106235  0.79598016  1
  Sb  Sb17  1  0.47240128  0.04872395  0.18058279  1
  S  S18  1  0.93652901  0.99862165  0.79974323  1
  S  S19  1  0.05267416  0.99415848  0.18836131  1
  S  S20  1  0.41593387  0.99139115  0.97759991  1
  S  S21  1  0.58748836  0.01088459  0.01369607  1
  S  S22  1  0.17246074  0.99157904  0.90768875  1
  S  S23  1  0.82578202  0.97297231  0.09275642  1
  S  S24  1  0.09537918  0.48718029  0.65457183  1
  S  S25  1  0.91620094  0.43348670  0.36594589  1
  S  S26  1  0.73511420  0.98968706  0.30324377  1
  S  S27  1  0.26230288  0.93856845  0.68215704  1
  S  S28  1  0.17093263  0.51221489  0.44744355  1
  S  S29  1  0.81548689  0.48014264  0.54188598  1
  S  S30  1  0.43250060  0.45705023  0.79201549  1
  S  S31  1  0.55820752  0.48600585  0.17969422  1
  S  S32  1  0.91179070  0.53455928  0.98591878  1
  S  S33  1  0.07985762  0.44472805  0.02398043  1
  S  S34  1  0.66545999  0.50327591  0.88786550  1
  S  S35  1  0.33566421  0.44180197  0.11545142  1
  S  S36  1  0.59665764  0.01040166  0.64521769  1
  S  S37  1  0.40199178  0.02555941  0.34257715  1
  S  S38  1  0.24245943  0.50925191  0.31869132  1
  S  S39  1  0.76160256  0.46678966  0.69043426  1
  S  S40  1  0.67267565  0.00744851  0.45155428  1
  S  S41  1  0.33238845  0.91296933  0.55354013  1
