# generated using pymatgen
data_Pr2Mn3(SbS3)4
_symmetry_space_group_name_H-M   'P 1'
_cell_length_a   20.02960800
_cell_length_b   3.90410600
_cell_length_c   14.95364829
_cell_angle_alpha   90.00000000
_cell_angle_beta   126.33350609
_cell_angle_gamma   90.00000000
_symmetry_Int_Tables_number   1
_chemical_formula_structural   Pr2Mn3(SbS3)4
_chemical_formula_sum   'Pr4 Mn6 Sb8 S24'
_cell_volume   942.00006694
_cell_formula_units_Z   2
loop_
 _symmetry_equiv_pos_site_id
 _symmetry_equiv_pos_as_xyz
  1  'x, y, z'
loop_
 _atom_site_type_symbol
 _atom_site_label
 _atom_site_symmetry_multiplicity
 _atom_site_fract_x
 _atom_site_fract_y
 _atom_site_fract_z
 _atom_site_occupancy
  Pr  Pr0  1  0.26929520  0.48246004  0.87838527  1
  Pr  Pr1  1  0.72838067  0.52860854  0.13052613  1
  Pr  Pr2  1  0.76203412  0.01422240  0.87152755  1
  Pr  Pr3  1  0.23364778  0.93979689  0.12912609  1
  Mn  Mn4  1  0.29618851  0.39015300  0.60554663  1
  Mn  Mn5  1  0.69568911  0.49187871  0.36954913  1
  Mn  Mn6  1  0.00685216  0.97727157  0.00296982  1
  Mn  Mn7  1  0.80046201  0.00500596  0.62429371  1
  Mn  Mn8  1  0.20498152  0.07368955  0.38335625  1
  Mn  Mn9  1  0.48528768  0.48141903  0.98295644  1
  Sb  Sb10  1  0.88989463  0.94856802  0.45297365  1
  Sb  Sb11  1  0.11000553  0.98651787  0.54874297  1
  Sb  Sb12  1  0.04049268  0.50623040  0.82877170  1
  Sb  Sb13  1  0.96940089  0.47587971  0.19466799  1
  Sb  Sb14  1  0.40058275  0.55898135  0.44965837  1
  Sb  Sb15  1  0.60425376  0.49387648  0.53100661  1
  Sb  Sb16  1  0.52495387  0.96127925  0.79604789  1
  Sb  Sb17  1  0.47236419  0.04880082  0.18051154  1
  S  S18  1  0.93637961  0.99864790  0.79992713  1
  S  S19  1  0.05290435  0.99263157  0.18852367  1
  S  S20  1  0.41586844  0.99065802  0.97758402  1
  S  S21  1  0.58710460  0.01280001  0.01331030  1
  S  S22  1  0.17254926  0.99054303  0.90747691  1
  S  S23  1  0.82598104  0.97420265  0.09294011  1
  S  S24  1  0.09532274  0.48799179  0.65436370  1
  S  S25  1  0.91594359  0.43347548  0.36582451  1
  S  S26  1  0.73527498  0.98955264  0.30372901  1
  S  S27  1  0.26221978  0.93880221  0.68222205  1
  S  S28  1  0.17093346  0.51286376  0.44779262  1
  S  S29  1  0.81566704  0.48011260  0.54189683  1
  S  S30  1  0.43260164  0.45679999  0.79202897  1
  S  S31  1  0.55834669  0.48610523  0.17994550  1
  S  S32  1  0.91146658  0.53541299  0.98593687  1
  S  S33  1  0.08003376  0.44542105  0.02414637  1
  S  S34  1  0.66539645  0.50347605  0.88782929  1
  S  S35  1  0.33578697  0.44096538  0.11554641  1
  S  S36  1  0.59647082  0.01072737  0.64487814  1
  S  S37  1  0.40180897  0.02656335  0.34265867  1
  S  S38  1  0.24220391  0.50957124  0.31868268  1
  S  S39  1  0.76178776  0.46745439  0.69066629  1
  S  S40  1  0.67277887  0.00775018  0.45188267  1
  S  S41  1  0.33255860  0.91108402  0.55386099  1
