# generated using pymatgen
data_Pr2Mn3(SbS3)4
_symmetry_space_group_name_H-M   'P 1'
_cell_length_a   20.02960800
_cell_length_b   3.90410600
_cell_length_c   14.95364829
_cell_angle_alpha   90.00000000
_cell_angle_beta   126.33350609
_cell_angle_gamma   90.00000000
_symmetry_Int_Tables_number   1
_chemical_formula_structural   Pr2Mn3(SbS3)4
_chemical_formula_sum   'Pr4 Mn6 Sb8 S24'
_cell_volume   942.00006694
_cell_formula_units_Z   2
loop_
 _symmetry_equiv_pos_site_id
 _symmetry_equiv_pos_as_xyz
  1  'x, y, z'
loop_
 _atom_site_type_symbol
 _atom_site_label
 _atom_site_symmetry_multiplicity
 _atom_site_fract_x
 _atom_site_fract_y
 _atom_site_fract_z
 _atom_site_occupancy
  Pr  Pr0  1  0.26940395  0.48272426  0.87856989  1
  Pr  Pr1  1  0.72854035  0.52852102  0.13081027  1
  Pr  Pr2  1  0.76217307  0.01424424  0.87166000  1
  Pr  Pr3  1  0.23364263  0.93928620  0.12915773  1
  Mn  Mn4  1  0.29603179  0.38996395  0.60529247  1
  Mn  Mn5  1  0.69569236  0.49212668  0.36941133  1
  Mn  Mn6  1  0.00679578  0.97779980  0.00302577  1
  Mn  Mn7  1  0.80036428  0.00486458  0.62431445  1
  Mn  Mn8  1  0.20505468  0.07324935  0.38340328  1
  Mn  Mn9  1  0.48533410  0.48153971  0.98308519  1
  Sb  Sb10  1  0.88999255  0.94887794  0.45317809  1
  Sb  Sb11  1  0.10992253  0.98656889  0.54868679  1
  Sb  Sb12  1  0.04048115  0.50589041  0.82875627  1
  Sb  Sb13  1  0.96940596  0.47636552  0.19469036  1
  Sb  Sb14  1  0.40055213  0.55872979  0.44949986  1
  Sb  Sb15  1  0.60421212  0.49412550  0.53094787  1
  Sb  Sb16  1  0.52494966  0.96157697  0.79603694  1
  Sb  Sb17  1  0.47234180  0.04899866  0.18049174  1
  S  S18  1  0.93634464  0.99869685  0.80022328  1
  S  S19  1  0.05319277  0.99080190  0.18873722  1
  S  S20  1  0.41578887  0.98932087  0.97754115  1
  S  S21  1  0.58685721  0.01405040  0.01307885  1
  S  S22  1  0.17256175  0.98988777  0.90721097  1
  S  S23  1  0.82609779  0.97573893  0.09302412  1
  S  S24  1  0.09522690  0.48872410  0.65411453  1
  S  S25  1  0.91566954  0.43350892  0.36565525  1
  S  S26  1  0.73532157  0.98933888  0.30413766  1
  S  S27  1  0.26201642  0.93906102  0.68214187  1
  S  S28  1  0.17094405  0.51388593  0.44819011  1
  S  S29  1  0.81578656  0.47976689  0.54190510  1
  S  S30  1  0.43272034  0.45658379  0.79211241  1
  S  S31  1  0.55845856  0.48606031  0.18026204  1
  S  S32  1  0.91123217  0.53635098  0.98595998  1
  S  S33  1  0.08009487  0.44589228  0.02410318  1
  S  S34  1  0.66536272  0.50340410  0.88779605  1
  S  S35  1  0.33594393  0.43991629  0.11567797  1
  S  S36  1  0.59621562  0.01128393  0.64455010  1
  S  S37  1  0.40159868  0.02795955  0.34274992  1
  S  S38  1  0.24206689  0.50983044  0.31881081  1
  S  S39  1  0.76191033  0.46825455  0.69087422  1
  S  S40  1  0.67283967  0.00799597  0.45204489  1
  S  S41  1  0.33278793  0.90959344  0.55422108  1
