# generated using pymatgen
data_Pr2Mn3(SbS3)4
_symmetry_space_group_name_H-M   'P 1'
_cell_length_a   20.02960800
_cell_length_b   3.90410600
_cell_length_c   14.95364829
_cell_angle_alpha   90.00000000
_cell_angle_beta   126.33350609
_cell_angle_gamma   90.00000000
_symmetry_Int_Tables_number   1
_chemical_formula_structural   Pr2Mn3(SbS3)4
_chemical_formula_sum   'Pr4 Mn6 Sb8 S24'
_cell_volume   942.00006694
_cell_formula_units_Z   2
loop_
 _symmetry_equiv_pos_site_id
 _symmetry_equiv_pos_as_xyz
  1  'x, y, z'
loop_
 _atom_site_type_symbol
 _atom_site_label
 _atom_site_symmetry_multiplicity
 _atom_site_fract_x
 _atom_site_fract_y
 _atom_site_fract_z
 _atom_site_occupancy
  Pr  Pr0  1  0.26954492  0.48277187  0.87877278  1
  Pr  Pr1  1  0.72870946  0.52834671  0.13106521  1
  Pr  Pr2  1  0.76232026  0.01421653  0.87179522  1
  Pr  Pr3  1  0.23365479  0.93891014  0.12919644  1
  Mn  Mn4  1  0.29590022  0.38959832  0.60493069  1
  Mn  Mn5  1  0.69574722  0.49229159  0.36929619  1
  Mn  Mn6  1  0.00673478  0.97869202  0.00304417  1
  Mn  Mn7  1  0.80032000  0.00435838  0.62449531  1
  Mn  Mn8  1  0.20504954  0.07262414  0.38335075  1
  Mn  Mn9  1  0.48539309  0.48133152  0.98316860  1
  Sb  Sb10  1  0.89011618  0.94903414  0.45343026  1
  Sb  Sb11  1  0.10987004  0.98672657  0.54864890  1
  Sb  Sb12  1  0.04044254  0.50578593  0.82872418  1
  Sb  Sb13  1  0.96938650  0.47652391  0.19473415  1
  Sb  Sb14  1  0.40049344  0.55886497  0.44930747  1
  Sb  Sb15  1  0.60419813  0.49438318  0.53099327  1
  Sb  Sb16  1  0.52496977  0.96174212  0.79602722  1
  Sb  Sb17  1  0.47229744  0.04926536  0.18043315  1
  S  S18  1  0.93640593  0.99913533  0.80063160  1
  S  S19  1  0.05339749  0.98880836  0.18876875  1
  S  S20  1  0.41570006  0.98833999  0.97753760  1
  S  S21  1  0.58667607  0.01514633  0.01295245  1
  S  S22  1  0.17256747  0.98964824  0.90699531  1
  S  S23  1  0.82627696  0.97736459  0.09300203  1
  S  S24  1  0.09514666  0.48944849  0.65398406  1
  S  S25  1  0.91543756  0.43360529  0.36539398  1
  S  S26  1  0.73543347  0.98918552  0.30452702  1
  S  S27  1  0.26172608  0.93907601  0.68195504  1
  S  S28  1  0.17076964  0.51481527  0.44846957  1
  S  S29  1  0.81569481  0.47932910  0.54175460  1
  S  S30  1  0.43298547  0.45612267  0.79228095  1
  S  S31  1  0.55848784  0.48614263  0.18051134  1
  S  S32  1  0.91099149  0.53712036  0.98598375  1
  S  S33  1  0.08015279  0.44636545  0.02412271  1
  S  S34  1  0.66527376  0.50370200  0.88770351  1
  S  S35  1  0.33613408  0.43877119  0.11589522  1
  S  S36  1  0.59595211  0.01190256  0.64422271  1
  S  S37  1  0.40149350  0.02873860  0.34289518  1
  S  S38  1  0.24208596  0.51003641  0.31916219  1
  S  S39  1  0.76202957  0.46932360  0.69097235  1
  S  S40  1  0.67289506  0.00843754  0.45206552  1
  S  S41  1  0.33308474  0.90819331  0.55444887  1
