# generated using pymatgen
data_Pr2Mn3(SbS3)4
_symmetry_space_group_name_H-M   'P 1'
_cell_length_a   20.02960800
_cell_length_b   3.90410600
_cell_length_c   14.95364829
_cell_angle_alpha   90.00000000
_cell_angle_beta   126.33350609
_cell_angle_gamma   90.00000000
_symmetry_Int_Tables_number   1
_chemical_formula_structural   Pr2Mn3(SbS3)4
_chemical_formula_sum   'Pr4 Mn6 Sb8 S24'
_cell_volume   942.00006694
_cell_formula_units_Z   2
loop_
 _symmetry_equiv_pos_site_id
 _symmetry_equiv_pos_as_xyz
  1  'x, y, z'
loop_
 _atom_site_type_symbol
 _atom_site_label
 _atom_site_symmetry_multiplicity
 _atom_site_fract_x
 _atom_site_fract_y
 _atom_site_fract_z
 _atom_site_occupancy
  Pr  Pr0  1  0.26966536  0.48285848  0.87899788  1
  Pr  Pr1  1  0.72882597  0.52820187  0.13123403  1
  Pr  Pr2  1  0.76245012  0.01433236  0.87190929  1
  Pr  Pr3  1  0.23366585  0.93860746  0.12923134  1
  Mn  Mn4  1  0.29578043  0.38959957  0.60473688  1
  Mn  Mn5  1  0.69579450  0.49243783  0.36918452  1
  Mn  Mn6  1  0.00670715  0.97923047  0.00323072  1
  Mn  Mn7  1  0.80032313  0.00352971  0.62474933  1
  Mn  Mn8  1  0.20504873  0.07227708  0.38336953  1
  Mn  Mn9  1  0.48548930  0.48093438  0.98335447  1
  Sb  Sb10  1  0.89019167  0.94922958  0.45370718  1
  Sb  Sb11  1  0.10987549  0.98702243  0.54865997  1
  Sb  Sb12  1  0.04040622  0.50578776  0.82867942  1
  Sb  Sb13  1  0.96939207  0.47662658  0.19472699  1
  Sb  Sb14  1  0.40043481  0.55901898  0.44915933  1
  Sb  Sb15  1  0.60422624  0.49462283  0.53110410  1
  Sb  Sb16  1  0.52496188  0.96155685  0.79609593  1
  Sb  Sb17  1  0.47223568  0.04952114  0.18033357  1
  S  S18  1  0.93662778  0.99955355  0.80114685  1
  S  S19  1  0.05353077  0.98748615  0.18870842  1
  S  S20  1  0.41561182  0.98740613  0.97757060  1
  S  S21  1  0.58653827  0.01632044  0.01288341  1
  S  S22  1  0.17261245  0.98961038  0.90670876  1
  S  S23  1  0.82648023  0.97854808  0.09290836  1
  S  S24  1  0.09506841  0.48961619  0.65384395  1
  S  S25  1  0.91534242  0.43328109  0.36537000  1
  S  S26  1  0.73543972  0.98932533  0.30479823  1
  S  S27  1  0.26148970  0.93862732  0.68196675  1
  S  S28  1  0.17055207  0.51534997  0.44859921  1
  S  S29  1  0.81557992  0.47834910  0.54162644  1
  S  S30  1  0.43314822  0.45586449  0.79231898  1
  S  S31  1  0.55862241  0.48622840  0.18083276  1
  S  S32  1  0.91075111  0.53782343  0.98607324  1
  S  S33  1  0.08007053  0.44685877  0.02413820  1
  S  S34  1  0.66523911  0.50373916  0.88767821  1
  S  S35  1  0.33635822  0.43790640  0.11616509  1
  S  S36  1  0.59565780  0.01294201  0.64389666  1
  S  S37  1  0.40138569  0.02969564  0.34292321  1
  S  S38  1  0.24205972  0.51049144  0.31945039  1
  S  S39  1  0.76207009  0.46967971  0.69114340  1
  S  S40  1  0.67296567  0.00899492  0.45213527  1
  S  S41  1  0.33345291  0.90698055  0.55462616  1
