# generated using pymatgen
data_Pr2Mn3(SbS3)4
_symmetry_space_group_name_H-M   'P 1'
_cell_length_a   20.02960800
_cell_length_b   3.90410600
_cell_length_c   14.95364829
_cell_angle_alpha   90.00000000
_cell_angle_beta   126.33350609
_cell_angle_gamma   90.00000000
_symmetry_Int_Tables_number   1
_chemical_formula_structural   Pr2Mn3(SbS3)4
_chemical_formula_sum   'Pr4 Mn6 Sb8 S24'
_cell_volume   942.00006694
_cell_formula_units_Z   2
loop_
 _symmetry_equiv_pos_site_id
 _symmetry_equiv_pos_as_xyz
  1  'x, y, z'
loop_
 _atom_site_type_symbol
 _atom_site_label
 _atom_site_symmetry_multiplicity
 _atom_site_fract_x
 _atom_site_fract_y
 _atom_site_fract_z
 _atom_site_occupancy
  Pr  Pr0  1  0.26978664  0.48293969  0.87917017  1
  Pr  Pr1  1  0.72893816  0.52811311  0.13136206  1
  Pr  Pr2  1  0.76254055  0.01439738  0.87201107  1
  Pr  Pr3  1  0.23369021  0.93838040  0.12923807  1
  Mn  Mn4  1  0.29577580  0.38932258  0.60463481  1
  Mn  Mn5  1  0.69581730  0.49242171  0.36911241  1
  Mn  Mn6  1  0.00671383  0.97987943  0.00336884  1
  Mn  Mn7  1  0.80045513  0.00329194  0.62507751  1
  Mn  Mn8  1  0.20510930  0.07198138  0.38352032  1
  Mn  Mn9  1  0.48558627  0.48041108  0.98355586  1
  Sb  Sb10  1  0.89025490  0.94943088  0.45397703  1
  Sb  Sb11  1  0.10989207  0.98730830  0.54867274  1
  Sb  Sb12  1  0.04038647  0.50588456  0.82866912  1
  Sb  Sb13  1  0.96935675  0.47671934  0.19467700  1
  Sb  Sb14  1  0.40044871  0.55907763  0.44900977  1
  Sb  Sb15  1  0.60423995  0.49492740  0.53124769  1
  Sb  Sb16  1  0.52494545  0.96148348  0.79615795  1
  Sb  Sb17  1  0.47218924  0.04978577  0.18021145  1
  S  S18  1  0.93687706  0.99995626  0.80161969  1
  S  S19  1  0.05364310  0.98611372  0.18877421  1
  S  S20  1  0.41550184  0.98606912  0.97765061  1
  S  S21  1  0.58643450  0.01794042  0.01283953  1
  S  S22  1  0.17254677  0.98976694  0.90643468  1
  S  S23  1  0.82677543  0.97972251  0.09309004  1
  S  S24  1  0.09493055  0.49010759  0.65363073  1
  S  S25  1  0.91525965  0.43284089  0.36535123  1
  S  S26  1  0.73553823  0.98960379  0.30512153  1
  S  S27  1  0.26134933  0.93838904  0.68203479  1
  S  S28  1  0.17019077  0.51614773  0.44856818  1
  S  S29  1  0.81550569  0.47741172  0.54146438  1
  S  S30  1  0.43321385  0.45574096  0.79235608  1
  S  S31  1  0.55871603  0.48625743  0.18102137  1
  S  S32  1  0.91060538  0.53831365  0.98619071  1
  S  S33  1  0.08000788  0.44711816  0.02426612  1
  S  S34  1  0.66529915  0.50418219  0.88765910  1
  S  S35  1  0.33667555  0.43705974  0.11648731  1
  S  S36  1  0.59539274  0.01391257  0.64355686  1
  S  S37  1  0.40124227  0.03056486  0.34296496  1
  S  S38  1  0.24198416  0.51054745  0.31967690  1
  S  S39  1  0.76206030  0.46978104  0.69128435  1
  S  S40  1  0.67293323  0.00941223  0.45198972  1
  S  S41  1  0.33377841  0.90575770  0.55472184  1
