# generated using pymatgen
data_Pr2Mn3(SbS3)4
_symmetry_space_group_name_H-M   'P 1'
_cell_length_a   20.02960800
_cell_length_b   3.90410600
_cell_length_c   14.95364829
_cell_angle_alpha   90.00000000
_cell_angle_beta   126.33350609
_cell_angle_gamma   90.00000000
_symmetry_Int_Tables_number   1
_chemical_formula_structural   Pr2Mn3(SbS3)4
_chemical_formula_sum   'Pr4 Mn6 Sb8 S24'
_cell_volume   942.00006694
_cell_formula_units_Z   2
loop_
 _symmetry_equiv_pos_site_id
 _symmetry_equiv_pos_as_xyz
  1  'x, y, z'
loop_
 _atom_site_type_symbol
 _atom_site_label
 _atom_site_symmetry_multiplicity
 _atom_site_fract_x
 _atom_site_fract_y
 _atom_site_fract_z
 _atom_site_occupancy
  Pr  Pr0  1  0.26480122  0.48213159  0.86984481  1
  Pr  Pr1  1  0.73691647  0.50733528  0.13490074  1
  Pr  Pr2  1  0.76182870  0.00856538  0.86147419  1
  Pr  Pr3  1  0.23755677  0.99832951  0.14046773  1
  Mn  Mn4  1  0.29739701  0.50037739  0.61539073  1
  Mn  Mn5  1  0.69627136  0.50790268  0.37980379  1
  Mn  Mn6  1  0.00189583  0.99610023  0.99831098  1
  Mn  Mn7  1  0.80351773  0.98846598  0.61585860  1
  Mn  Mn8  1  0.19828932  0.97553060  0.38029823  1
  Mn  Mn9  1  0.50193456  0.47853795  0.99421789  1
  Sb  Sb10  1  0.89328609  0.00468758  0.45462419  1
  Sb  Sb11  1  0.10905867  0.97724761  0.55090533  1
  Sb  Sb12  1  0.03929891  0.49062427  0.81586944  1
  Sb  Sb13  1  0.96186917  0.52235114  0.18738622  1
  Sb  Sb14  1  0.39673901  0.49544003  0.45743176  1
  Sb  Sb15  1  0.60719264  0.49847614  0.54937092  1
  Sb  Sb16  1  0.53708282  0.00628905  0.81615904  1
  Sb  Sb17  1  0.46227837  0.00174405  0.18079071  1
  S  S18  1  0.93589192  0.97732726  0.79733793  1
  S  S19  1  0.06316358  0.99764942  0.19274730  1
  S  S20  1  0.40923817  0.00113310  0.97815806  1
  S  S21  1  0.59205373  0.99052549  0.01737334  1
  S  S22  1  0.17156376  0.99254096  0.89784262  1
  S  S23  1  0.82827979  0.01805466  0.10326984  1
  S  S24  1  0.08500487  0.47280975  0.64255948  1
  S  S25  1  0.91463510  0.48444972  0.36116099  1
  S  S26  1  0.74239841  0.94392247  0.29445514  1
  S  S27  1  0.25803278  0.00219007  0.70340926  1
  S  S28  1  0.16343694  0.49041376  0.44532159  1
  S  S29  1  0.83044840  0.48314401  0.55001899  1
  S  S30  1  0.43556457  0.51142228  0.80248637  1
  S  S31  1  0.56076475  0.51939036  0.19089510  1
  S  S32  1  0.90211767  0.48900171  0.97637416  1
  S  S33  1  0.08745847  0.48932541  0.01733291  1
  S  S34  1  0.66401877  0.50684821  0.89385646  1
  S  S35  1  0.33032696  0.52292623  0.10028698  1
  S  S36  1  0.59095507  0.01067545  0.64907676  1
  S  S37  1  0.41308735  0.96667541  0.35687780  1
  S  S38  1  0.24320869  0.48755464  0.30148872  1
  S  S39  1  0.76044318  0.49835059  0.69656925  1
  S  S40  1  0.67118466  0.01719291  0.46327390  1
  S  S41  1  0.33042186  0.98543672  0.54229089  1
