# generated using pymatgen
data_Pr2Mn3(SbS3)4
_symmetry_space_group_name_H-M   'P 1'
_cell_length_a   20.02960800
_cell_length_b   3.90410600
_cell_length_c   14.95364829
_cell_angle_alpha   90.00000000
_cell_angle_beta   126.33350609
_cell_angle_gamma   90.00000000
_symmetry_Int_Tables_number   1
_chemical_formula_structural   Pr2Mn3(SbS3)4
_chemical_formula_sum   'Pr4 Mn6 Sb8 S24'
_cell_volume   942.00006694
_cell_formula_units_Z   2
loop_
 _symmetry_equiv_pos_site_id
 _symmetry_equiv_pos_as_xyz
  1  'x, y, z'
loop_
 _atom_site_type_symbol
 _atom_site_label
 _atom_site_symmetry_multiplicity
 _atom_site_fract_x
 _atom_site_fract_y
 _atom_site_fract_z
 _atom_site_occupancy
  Pr  Pr0  1  0.26992643  0.48321175  0.87935620  1
  Pr  Pr1  1  0.72905802  0.52803789  0.13148849  1
  Pr  Pr2  1  0.76266157  0.01454823  0.87212299  1
  Pr  Pr3  1  0.23369388  0.93802702  0.12928604  1
  Mn  Mn4  1  0.29580509  0.38925273  0.60447839  1
  Mn  Mn5  1  0.69591997  0.49185680  0.36908777  1
  Mn  Mn6  1  0.00673737  0.98032849  0.00354554  1
  Mn  Mn7  1  0.80053842  0.00320284  0.62527073  1
  Mn  Mn8  1  0.20523575  0.07168320  0.38364526  1
  Mn  Mn9  1  0.48564615  0.47985139  0.98376909  1
  Sb  Sb10  1  0.89030464  0.94980588  0.45420478  1
  Sb  Sb11  1  0.10989329  0.98742714  0.54865790  1
  Sb  Sb12  1  0.04040433  0.50609167  0.82871437  1
  Sb  Sb13  1  0.96932636  0.47668877  0.19462907  1
  Sb  Sb14  1  0.40045440  0.55875497  0.44892464  1
  Sb  Sb15  1  0.60436394  0.49524619  0.53147154  1
  Sb  Sb16  1  0.52490052  0.96136023  0.79615367  1
  Sb  Sb17  1  0.47215494  0.05010638  0.18005363  1
  S  S18  1  0.93701956  0.00054432  0.80202364  1
  S  S19  1  0.05377838  0.98551042  0.18894660  1
  S  S20  1  0.41552662  0.98492058  0.97782754  1
  S  S21  1  0.58623230  0.01895506  0.01259846  1
  S  S22  1  0.17249068  0.98984191  0.90625571  1
  S  S23  1  0.82721279  0.98075447  0.09346803  1
  S  S24  1  0.09483682  0.49083175  0.65336723  1
  S  S25  1  0.91509366  0.43241415  0.36529895  1
  S  S26  1  0.73541464  0.99015746  0.30513925  1
  S  S27  1  0.26106764  0.93832665  0.68197518  1
  S  S28  1  0.16983937  0.51694325  0.44852586  1
  S  S29  1  0.81543954  0.47709472  0.54134121  1
  S  S30  1  0.43329889  0.45525518  0.79246302  1
  S  S31  1  0.55880949  0.48605112  0.18127095  1
  S  S32  1  0.91052985  0.53943710  0.98637830  1
  S  S33  1  0.07997667  0.44769853  0.02442288  1
  S  S34  1  0.66546401  0.50491267  0.88773113  1
  S  S35  1  0.33709880  0.43634854  0.11693057  1
  S  S36  1  0.59523762  0.01496305  0.64337401  1
  S  S37  1  0.40109127  0.03130824  0.34301250  1
  S  S38  1  0.24193893  0.51071827  0.32005616  1
  S  S39  1  0.76184705  0.46966686  0.69113048  1
  S  S40  1  0.67291221  0.00963235  0.45178240  1
  S  S41  1  0.33400660  0.90495847  0.55464027  1
