# generated using pymatgen
data_Pr2Mn3(SbS3)4
_symmetry_space_group_name_H-M   'P 1'
_cell_length_a   20.02960800
_cell_length_b   3.90410600
_cell_length_c   14.95364829
_cell_angle_alpha   90.00000000
_cell_angle_beta   126.33350609
_cell_angle_gamma   90.00000000
_symmetry_Int_Tables_number   1
_chemical_formula_structural   Pr2Mn3(SbS3)4
_chemical_formula_sum   'Pr4 Mn6 Sb8 S24'
_cell_volume   942.00006694
_cell_formula_units_Z   2
loop_
 _symmetry_equiv_pos_site_id
 _symmetry_equiv_pos_as_xyz
  1  'x, y, z'
loop_
 _atom_site_type_symbol
 _atom_site_label
 _atom_site_symmetry_multiplicity
 _atom_site_fract_x
 _atom_site_fract_y
 _atom_site_fract_z
 _atom_site_occupancy
  Pr  Pr0  1  0.27006043  0.48351926  0.87959409  1
  Pr  Pr1  1  0.72922471  0.52785069  0.13164987  1
  Pr  Pr2  1  0.76270455  0.01465147  0.87216288  1
  Pr  Pr3  1  0.23369407  0.93776481  0.12936250  1
  Mn  Mn4  1  0.29584013  0.38908132  0.60445590  1
  Mn  Mn5  1  0.69600573  0.49174702  0.36914044  1
  Mn  Mn6  1  0.00668433  0.98064600  0.00364480  1
  Mn  Mn7  1  0.80060320  0.00327798  0.62545269  1
  Mn  Mn8  1  0.20543397  0.07129409  0.38385165  1
  Mn  Mn9  1  0.48577496  0.47992239  0.98396642  1
  Sb  Sb10  1  0.89038036  0.94997932  0.45449376  1
  Sb  Sb11  1  0.10992453  0.98754188  0.54864709  1
  Sb  Sb12  1  0.04043273  0.50623360  0.82871808  1
  Sb  Sb13  1  0.96933052  0.47656431  0.19459099  1
  Sb  Sb14  1  0.40048844  0.55864093  0.44888621  1
  Sb  Sb15  1  0.60447170  0.49535270  0.53176784  1
  Sb  Sb16  1  0.52488015  0.96116162  0.79615824  1
  Sb  Sb17  1  0.47215538  0.05022699  0.17996232  1
  S  S18  1  0.93714098  0.00111168  0.80227896  1
  S  S19  1  0.05405840  0.98468541  0.18921131  1
  S  S20  1  0.41556107  0.98444150  0.97786701  1
  S  S21  1  0.58594926  0.01999240  0.01229750  1
  S  S22  1  0.17243277  0.99012314  0.90611322  1
  S  S23  1  0.82772007  0.98175478  0.09387173  1
  S  S24  1  0.09476347  0.49162718  0.65310713  1
  S  S25  1  0.91490740  0.43235496  0.36538701  1
  S  S26  1  0.73527365  0.99030999  0.30524938  1
  S  S27  1  0.26083267  0.93873143  0.68202126  1
  S  S28  1  0.16933710  0.51743439  0.44826688  1
  S  S29  1  0.81523671  0.47692132  0.54110946  1
  S  S30  1  0.43346479  0.45487034  0.79281718  1
  S  S31  1  0.55883699  0.48619422  0.18144151  1
  S  S32  1  0.91049238  0.54058762  0.98670832  1
  S  S33  1  0.07991267  0.44818153  0.02461259  1
  S  S34  1  0.66559624  0.50552803  0.88775485  1
  S  S35  1  0.33741407  0.43600487  0.11719260  1
  S  S36  1  0.59520210  0.01573314  0.64325798  1
  S  S37  1  0.40106469  0.03147662  0.34325539  1
  S  S38  1  0.24188351  0.51060435  0.32029673  1
  S  S39  1  0.76165123  0.46977101  0.69104373  1
  S  S40  1  0.67293734  0.00999121  0.45165383  1
  S  S41  1  0.33417918  0.90419174  0.55450672  1
