# generated using pymatgen
data_Pr2Mn3(SbS3)4
_symmetry_space_group_name_H-M   'P 1'
_cell_length_a   20.02960800
_cell_length_b   3.90410600
_cell_length_c   14.95364829
_cell_angle_alpha   90.00000000
_cell_angle_beta   126.33350609
_cell_angle_gamma   90.00000000
_symmetry_Int_Tables_number   1
_chemical_formula_structural   Pr2Mn3(SbS3)4
_chemical_formula_sum   'Pr4 Mn6 Sb8 S24'
_cell_volume   942.00006694
_cell_formula_units_Z   2
loop_
 _symmetry_equiv_pos_site_id
 _symmetry_equiv_pos_as_xyz
  1  'x, y, z'
loop_
 _atom_site_type_symbol
 _atom_site_label
 _atom_site_symmetry_multiplicity
 _atom_site_fract_x
 _atom_site_fract_y
 _atom_site_fract_z
 _atom_site_occupancy
  Pr  Pr0  1  0.27020297  0.48381274  0.87984401  1
  Pr  Pr1  1  0.72940621  0.52785754  0.13179266  1
  Pr  Pr2  1  0.76274919  0.01469768  0.87221059  1
  Pr  Pr3  1  0.23373081  0.93753604  0.12939773  1
  Mn  Mn4  1  0.29583932  0.38890581  0.60439301  1
  Mn  Mn5  1  0.69611892  0.49177956  0.36917206  1
  Mn  Mn6  1  0.00664396  0.98103501  0.00376193  1
  Mn  Mn7  1  0.80063179  0.00341670  0.62565689  1
  Mn  Mn8  1  0.20567539  0.07102205  0.38399296  1
  Mn  Mn9  1  0.48590743  0.47977266  0.98421977  1
  Sb  Sb10  1  0.89045312  0.95004297  0.45474505  1
  Sb  Sb11  1  0.10998314  0.98765929  0.54868595  1
  Sb  Sb12  1  0.04050853  0.50627713  0.82874890  1
  Sb  Sb13  1  0.96928401  0.47628402  0.19451179  1
  Sb  Sb14  1  0.40049274  0.55839056  0.44885094  1
  Sb  Sb15  1  0.60458157  0.49544658  0.53206560  1
  Sb  Sb16  1  0.52483769  0.96097416  0.79614858  1
  Sb  Sb17  1  0.47214377  0.05027946  0.17989043  1
  S  S18  1  0.93717386  0.00222542  0.80240168  1
  S  S19  1  0.05422512  0.98369688  0.18945230  1
  S  S20  1  0.41565273  0.98417778  0.97800217  1
  S  S21  1  0.58578911  0.02114039  0.01210265  1
  S  S22  1  0.17240355  0.98971191  0.90617998  1
  S  S23  1  0.82815083  0.98317552  0.09418041  1
  S  S24  1  0.09469154  0.49215300  0.65288326  1
  S  S25  1  0.91462317  0.43248586  0.36531873  1
  S  S26  1  0.73515550  0.99054075  0.30533303  1
  S  S27  1  0.26056631  0.93923181  0.68203219  1
  S  S28  1  0.16881290  0.51823571  0.44798448  1
  S  S29  1  0.81497743  0.47685246  0.54094813  1
  S  S30  1  0.43358041  0.45527951  0.79297254  1
  S  S31  1  0.55890875  0.48640214  0.18157641  1
  S  S32  1  0.91042384  0.54070794  0.98707253  1
  S  S33  1  0.07990884  0.44889542  0.02470628  1
  S  S34  1  0.66559843  0.50617890  0.88774161  1
  S  S35  1  0.33764432  0.43576507  0.11733303  1
  S  S36  1  0.59523066  0.01608454  0.64316892  1
  S  S37  1  0.40100943  0.03207516  0.34345196  1
  S  S38  1  0.24172358  0.51041708  0.32035387  1
  S  S39  1  0.76156772  0.47008116  0.69095509  1
  S  S40  1  0.67291428  0.01048470  0.45152928  1
  S  S41  1  0.33432243  0.90348904  0.55439080  1
