# generated using pymatgen
data_Pr2Mn3(SbS3)4
_symmetry_space_group_name_H-M   'P 1'
_cell_length_a   20.02960800
_cell_length_b   3.90410600
_cell_length_c   14.95364829
_cell_angle_alpha   90.00000000
_cell_angle_beta   126.33350609
_cell_angle_gamma   90.00000000
_symmetry_Int_Tables_number   1
_chemical_formula_structural   Pr2Mn3(SbS3)4
_chemical_formula_sum   'Pr4 Mn6 Sb8 S24'
_cell_volume   942.00006694
_cell_formula_units_Z   2
loop_
 _symmetry_equiv_pos_site_id
 _symmetry_equiv_pos_as_xyz
  1  'x, y, z'
loop_
 _atom_site_type_symbol
 _atom_site_label
 _atom_site_symmetry_multiplicity
 _atom_site_fract_x
 _atom_site_fract_y
 _atom_site_fract_z
 _atom_site_occupancy
  Pr  Pr0  1  0.27033788  0.48426545  0.88015393  1
  Pr  Pr1  1  0.72960851  0.52772609  0.13195244  1
  Pr  Pr2  1  0.76284054  0.01466717  0.87235213  1
  Pr  Pr3  1  0.23381101  0.93735096  0.12945341  1
  Mn  Mn4  1  0.29585686  0.38877489  0.60434880  1
  Mn  Mn5  1  0.69634116  0.49176594  0.36924311  1
  Mn  Mn6  1  0.00658166  0.98164398  0.00395316  1
  Mn  Mn7  1  0.80056624  0.00356588  0.62579107  1
  Mn  Mn8  1  0.20593896  0.07096664  0.38418390  1
  Mn  Mn9  1  0.48603558  0.47954584  0.98445910  1
  Sb  Sb10  1  0.89051564  0.95007957  0.45495486  1
  Sb  Sb11  1  0.11006996  0.98795179  0.54869986  1
  Sb  Sb12  1  0.04052836  0.50650533  0.82874141  1
  Sb  Sb13  1  0.96925038  0.47604421  0.19438139  1
  Sb  Sb14  1  0.40049069  0.55813757  0.44876524  1
  Sb  Sb15  1  0.60469649  0.49550396  0.53232946  1
  Sb  Sb16  1  0.52478294  0.96096887  0.79611563  1
  Sb  Sb17  1  0.47214799  0.05027648  0.17993127  1
  S  S18  1  0.93716217  0.00308141  0.80240114  1
  S  S19  1  0.05441658  0.98349121  0.18972463  1
  S  S20  1  0.41562495  0.98370641  0.97793083  1
  S  S21  1  0.58548661  0.02194741  0.01184243  1
  S  S22  1  0.17236875  0.98925516  0.90624843  1
  S  S23  1  0.82854459  0.98448541  0.09459616  1
  S  S24  1  0.09459457  0.49266226  0.65270952  1
  S  S25  1  0.91439434  0.43263961  0.36531660  1
  S  S26  1  0.73513391  0.99076306  0.30540671  1
  S  S27  1  0.26027022  0.93964149  0.68209204  1
  S  S28  1  0.16834289  0.51909186  0.44774915  1
  S  S29  1  0.81475585  0.47702203  0.54077708  1
  S  S30  1  0.43365918  0.45557859  0.79320010  1
  S  S31  1  0.55903946  0.48645402  0.18179687  1
  S  S32  1  0.91030186  0.54077857  0.98713699  1
  S  S33  1  0.07990464  0.44911928  0.02488947  1
  S  S34  1  0.66550447  0.50620584  0.88779328  1
  S  S35  1  0.33782589  0.43537078  0.11736795  1
  S  S36  1  0.59514669  0.01689654  0.64305089  1
  S  S37  1  0.40092270  0.03275332  0.34351494  1
  S  S38  1  0.24158256  0.51077902  0.32033950  1
  S  S39  1  0.76152312  0.47044542  0.69093032  1
  S  S40  1  0.67294477  0.01094295  0.45143616  1
  S  S41  1  0.33442274  0.90241727  0.55423986  1
