# generated using pymatgen
data_Pr2Mn3(SbS3)4
_symmetry_space_group_name_H-M   'P 1'
_cell_length_a   20.02960800
_cell_length_b   3.90410600
_cell_length_c   14.95364829
_cell_angle_alpha   90.00000000
_cell_angle_beta   126.33350609
_cell_angle_gamma   90.00000000
_symmetry_Int_Tables_number   1
_chemical_formula_structural   Pr2Mn3(SbS3)4
_chemical_formula_sum   'Pr4 Mn6 Sb8 S24'
_cell_volume   942.00006694
_cell_formula_units_Z   2
loop_
 _symmetry_equiv_pos_site_id
 _symmetry_equiv_pos_as_xyz
  1  'x, y, z'
loop_
 _atom_site_type_symbol
 _atom_site_label
 _atom_site_symmetry_multiplicity
 _atom_site_fract_x
 _atom_site_fract_y
 _atom_site_fract_z
 _atom_site_occupancy
  Pr  Pr0  1  0.27047344  0.48454938  0.88052611  1
  Pr  Pr1  1  0.72977371  0.52761620  0.13205839  1
  Pr  Pr2  1  0.76292460  0.01481310  0.87242813  1
  Pr  Pr3  1  0.23387907  0.93701314  0.12954197  1
  Mn  Mn4  1  0.29586671  0.38866167  0.60420684  1
  Mn  Mn5  1  0.69645638  0.49170076  0.36920985  1
  Mn  Mn6  1  0.00656979  0.98214868  0.00418139  1
  Mn  Mn7  1  0.80051915  0.00375621  0.62582878  1
  Mn  Mn8  1  0.20619681  0.07054244  0.38443101  1
  Mn  Mn9  1  0.48608259  0.47954785  0.98449891  1
  Sb  Sb10  1  0.89058335  0.95041151  0.45518696  1
  Sb  Sb11  1  0.11020648  0.98837586  0.54877702  1
  Sb  Sb12  1  0.04048808  0.50675675  0.82863812  1
  Sb  Sb13  1  0.96924238  0.47641705  0.19422642  1
  Sb  Sb14  1  0.40047910  0.55787902  0.44857279  1
  Sb  Sb15  1  0.60474405  0.49536749  0.53251452  1
  Sb  Sb16  1  0.52476791  0.96121843  0.79620220  1
  Sb  Sb17  1  0.47212801  0.05016927  0.17992221  1
  S  S18  1  0.93714016  0.00401483  0.80233546  1
  S  S19  1  0.05453382  0.98277095  0.18979306  1
  S  S20  1  0.41547623  0.98338739  0.97782684  1
  S  S21  1  0.58521652  0.02244942  0.01169404  1
  S  S22  1  0.17225453  0.98930087  0.90618425  1
  S  S23  1  0.82894340  0.98573859  0.09502771  1
  S  S24  1  0.09448611  0.49306175  0.65256126  1
  S  S25  1  0.91420069  0.43283466  0.36533294  1
  S  S26  1  0.73511185  0.99077193  0.30549638  1
  S  S27  1  0.25987402  0.93964546  0.68201782  1
  S  S28  1  0.16790688  0.52003001  0.44752799  1
  S  S29  1  0.81451150  0.47712004  0.54054954  1
  S  S30  1  0.43385542  0.45571068  0.79353379  1
  S  S31  1  0.55918014  0.48696185  0.18190427  1
  S  S32  1  0.91023120  0.54097526  0.98698265  1
  S  S33  1  0.07983476  0.44922831  0.02493800  1
  S  S34  1  0.66544131  0.50642400  0.88811926  1
  S  S35  1  0.33789955  0.43571839  0.11727076  1
  S  S36  1  0.59519484  0.01754576  0.64310160  1
  S  S37  1  0.40097010  0.03359417  0.34366578  1
  S  S38  1  0.24126957  0.51122028  0.32020872  1
  S  S39  1  0.76159880  0.47038975  0.69104713  1
  S  S40  1  0.67290283  0.01074745  0.45132099  1
  S  S41  1  0.33458640  0.90107255  0.55420119  1
