# generated using pymatgen
data_Pr2Mn3(SbS3)4
_symmetry_space_group_name_H-M   'P 1'
_cell_length_a   20.02960800
_cell_length_b   3.90410600
_cell_length_c   14.95364829
_cell_angle_alpha   90.00000000
_cell_angle_beta   126.33350609
_cell_angle_gamma   90.00000000
_symmetry_Int_Tables_number   1
_chemical_formula_structural   Pr2Mn3(SbS3)4
_chemical_formula_sum   'Pr4 Mn6 Sb8 S24'
_cell_volume   942.00006694
_cell_formula_units_Z   2
loop_
 _symmetry_equiv_pos_site_id
 _symmetry_equiv_pos_as_xyz
  1  'x, y, z'
loop_
 _atom_site_type_symbol
 _atom_site_label
 _atom_site_symmetry_multiplicity
 _atom_site_fract_x
 _atom_site_fract_y
 _atom_site_fract_z
 _atom_site_occupancy
  Pr  Pr0  1  0.27056165  0.48496093  0.88087494  1
  Pr  Pr1  1  0.72998971  0.52745771  0.13217203  1
  Pr  Pr2  1  0.76304193  0.01517027  0.87253607  1
  Pr  Pr3  1  0.23394114  0.93673514  0.12953150  1
  Mn  Mn4  1  0.29590809  0.38795522  0.60413081  1
  Mn  Mn5  1  0.69648345  0.49133899  0.36913835  1
  Mn  Mn6  1  0.00643033  0.98247384  0.00423202  1
  Mn  Mn7  1  0.80049326  0.00383583  0.62580049  1
  Mn  Mn8  1  0.20648003  0.06975653  0.38489853  1
  Mn  Mn9  1  0.48621048  0.47964570  0.98471096  1
  Sb  Sb10  1  0.89059090  0.95089737  0.45537575  1
  Sb  Sb11  1  0.11028064  0.98871648  0.54886014  1
  Sb  Sb12  1  0.04041391  0.50714201  0.82847016  1
  Sb  Sb13  1  0.96918232  0.47628140  0.19399113  1
  Sb  Sb14  1  0.40046049  0.55761579  0.44842696  1
  Sb  Sb15  1  0.60477353  0.49531982  0.53270141  1
  Sb  Sb16  1  0.52472572  0.96139206  0.79623422  1
  Sb  Sb17  1  0.47212554  0.04980441  0.17991598  1
  S  S18  1  0.93709336  0.00495605  0.80233023  1
  S  S19  1  0.05465095  0.98203884  0.18985183  1
  S  S20  1  0.41523957  0.98296378  0.97756746  1
  S  S21  1  0.58512949  0.02251369  0.01173652  1
  S  S22  1  0.17220147  0.98935987  0.90617671  1
  S  S23  1  0.82935056  0.98711279  0.09550393  1
  S  S24  1  0.09453960  0.49381574  0.65275141  1
  S  S25  1  0.91399963  0.43319160  0.36528573  1
  S  S26  1  0.73510708  0.99132417  0.30562290  1
  S  S27  1  0.25955204  0.93934757  0.68196351  1
  S  S28  1  0.16745067  0.52079957  0.44751257  1
  S  S29  1  0.81428203  0.47756608  0.54032255  1
  S  S30  1  0.43402889  0.45589084  0.79383098  1
  S  S31  1  0.55935067  0.48778819  0.18202901  1
  S  S32  1  0.91010387  0.54076940  0.98677419  1
  S  S33  1  0.07962197  0.44946294  0.02489706  1
  S  S34  1  0.66552762  0.50716871  0.88857843  1
  S  S35  1  0.33793558  0.43567489  0.11711796  1
  S  S36  1  0.59522245  0.01832121  0.64313029  1
  S  S37  1  0.40105855  0.03477010  0.34381316  1
  S  S38  1  0.24097985  0.51221227  0.31999602  1
  S  S39  1  0.76176361  0.47045951  0.69121873  1
  S  S40  1  0.67298999  0.01075977  0.45146792  1
  S  S41  1  0.33479868  0.89982940  0.55431520  1
