# generated using pymatgen
data_Pr2Mn3(SbS3)4
_symmetry_space_group_name_H-M   'P 1'
_cell_length_a   20.02960800
_cell_length_b   3.90410600
_cell_length_c   14.95364829
_cell_angle_alpha   90.00000000
_cell_angle_beta   126.33350609
_cell_angle_gamma   90.00000000
_symmetry_Int_Tables_number   1
_chemical_formula_structural   Pr2Mn3(SbS3)4
_chemical_formula_sum   'Pr4 Mn6 Sb8 S24'
_cell_volume   942.00006694
_cell_formula_units_Z   2
loop_
 _symmetry_equiv_pos_site_id
 _symmetry_equiv_pos_as_xyz
  1  'x, y, z'
loop_
 _atom_site_type_symbol
 _atom_site_label
 _atom_site_symmetry_multiplicity
 _atom_site_fract_x
 _atom_site_fract_y
 _atom_site_fract_z
 _atom_site_occupancy
  Pr  Pr0  1  0.27061264  0.48542684  0.88112030  1
  Pr  Pr1  1  0.73014503  0.52712549  0.13229993  1
  Pr  Pr2  1  0.76311467  0.01546182  0.87257170  1
  Pr  Pr3  1  0.23399151  0.93668216  0.12949595  1
  Mn  Mn4  1  0.29603547  0.38751556  0.60409947  1
  Mn  Mn5  1  0.69653364  0.49096074  0.36896154  1
  Mn  Mn6  1  0.00633484  0.98263874  0.00435950  1
  Mn  Mn7  1  0.80045044  0.00380751  0.62580227  1
  Mn  Mn8  1  0.20670252  0.06926432  0.38522081  1
  Mn  Mn9  1  0.48629102  0.47971420  0.98490709  1
  Sb  Sb10  1  0.89062542  0.95124411  0.45558121  1
  Sb  Sb11  1  0.11043882  0.98914173  0.54899499  1
  Sb  Sb12  1  0.04034844  0.50760460  0.82832235  1
  Sb  Sb13  1  0.96911573  0.47629712  0.19380672  1
  Sb  Sb14  1  0.40052320  0.55738590  0.44829054  1
  Sb  Sb15  1  0.60482856  0.49524357  0.53292980  1
  Sb  Sb16  1  0.52468732  0.96153096  0.79619631  1
  Sb  Sb17  1  0.47212491  0.04944556  0.17995832  1
  S  S18  1  0.93706771  0.00510218  0.80240936  1
  S  S19  1  0.05477657  0.98086853  0.19004745  1
  S  S20  1  0.41494241  0.98242385  0.97725709  1
  S  S21  1  0.58500616  0.02258421  0.01175158  1
  S  S22  1  0.17212126  0.98980638  0.90603227  1
  S  S23  1  0.82983220  0.98847925  0.09606769  1
  S  S24  1  0.09461161  0.49444640  0.65286000  1
  S  S25  1  0.91382523  0.43334330  0.36521843  1
  S  S26  1  0.73511082  0.99152560  0.30578247  1
  S  S27  1  0.25928725  0.93915800  0.68190140  1
  S  S28  1  0.16700386  0.52112785  0.44747188  1
  S  S29  1  0.81403276  0.47829784  0.54021414  1
  S  S30  1  0.43407825  0.45588280  0.79403802  1
  S  S31  1  0.55962985  0.48887204  0.18228700  1
  S  S32  1  0.91004164  0.54110983  0.98667864  1
  S  S33  1  0.07944252  0.44973426  0.02484736  1
  S  S34  1  0.66553514  0.50819602  0.88889058  1
  S  S35  1  0.33797268  0.43523654  0.11712899  1
  S  S36  1  0.59505095  0.01890186  0.64282667  1
  S  S37  1  0.40110779  0.03627346  0.34385779  1
  S  S38  1  0.24074955  0.51306117  0.31972882  1
  S  S39  1  0.76194539  0.47048693  0.69122845  1
  S  S40  1  0.67301802  0.01055444  0.45158024  1
  S  S41  1  0.33480678  0.89864225  0.55420514  1
