# generated using pymatgen
data_Pr2Mn3(SbS3)4
_symmetry_space_group_name_H-M   'P 1'
_cell_length_a   20.02960800
_cell_length_b   3.90410600
_cell_length_c   14.95364829
_cell_angle_alpha   90.00000000
_cell_angle_beta   126.33350609
_cell_angle_gamma   90.00000000
_symmetry_Int_Tables_number   1
_chemical_formula_structural   Pr2Mn3(SbS3)4
_chemical_formula_sum   'Pr4 Mn6 Sb8 S24'
_cell_volume   942.00006694
_cell_formula_units_Z   2
loop_
 _symmetry_equiv_pos_site_id
 _symmetry_equiv_pos_as_xyz
  1  'x, y, z'
loop_
 _atom_site_type_symbol
 _atom_site_label
 _atom_site_symmetry_multiplicity
 _atom_site_fract_x
 _atom_site_fract_y
 _atom_site_fract_z
 _atom_site_occupancy
  Pr  Pr0  1  0.27060616  0.48566215  0.88137758  1
  Pr  Pr1  1  0.73029834  0.52667989  0.13240754  1
  Pr  Pr2  1  0.76313926  0.01585535  0.87256769  1
  Pr  Pr3  1  0.23397403  0.93671684  0.12944834  1
  Mn  Mn4  1  0.29610295  0.38714967  0.60409075  1
  Mn  Mn5  1  0.69662037  0.49054770  0.36888087  1
  Mn  Mn6  1  0.00622938  0.98286292  0.00445890  1
  Mn  Mn7  1  0.80048119  0.00413138  0.62586420  1
  Mn  Mn8  1  0.20688164  0.06859662  0.38549480  1
  Mn  Mn9  1  0.48637770  0.47991540  0.98507130  1
  Sb  Sb10  1  0.89061137  0.95124482  0.45581140  1
  Sb  Sb11  1  0.11054310  0.98944780  0.54909384  1
  Sb  Sb12  1  0.04029415  0.50801370  0.82811203  1
  Sb  Sb13  1  0.96901266  0.47639233  0.19360989  1
  Sb  Sb14  1  0.40056797  0.55733935  0.44810098  1
  Sb  Sb15  1  0.60489870  0.49532339  0.53313779  1
  Sb  Sb16  1  0.52465577  0.96182602  0.79621697  1
  Sb  Sb17  1  0.47216683  0.04894988  0.18003034  1
  S  S18  1  0.93713043  0.00532299  0.80247050  1
  S  S19  1  0.05482982  0.97952376  0.19017130  1
  S  S20  1  0.41482930  0.98176452  0.97728109  1
  S  S21  1  0.58497548  0.02318119  0.01166005  1
  S  S22  1  0.17206216  0.99068926  0.90583219  1
  S  S23  1  0.83024874  0.99023832  0.09668395  1
  S  S24  1  0.09464402  0.49511410  0.65296389  1
  S  S25  1  0.91366675  0.43342543  0.36517923  1
  S  S26  1  0.73504903  0.99148851  0.30592905  1
  S  S27  1  0.25909155  0.93896028  0.68191110  1
  S  S28  1  0.16658940  0.52109213  0.44736326  1
  S  S29  1  0.81381714  0.47892343  0.54005759  1
  S  S30  1  0.43403877  0.45549535  0.79418686  1
  S  S31  1  0.55992154  0.49033775  0.18257254  1
  S  S32  1  0.91005582  0.54096901  0.98660076  1
  S  S33  1  0.07922863  0.45036758  0.02481398  1
  S  S34  1  0.66541903  0.50868533  0.88903885  1
  S  S35  1  0.33795081  0.43493804  0.11715048  1
  S  S36  1  0.59475936  0.01952126  0.64253612  1
  S  S37  1  0.40105377  0.03770408  0.34379156  1
  S  S38  1  0.24055112  0.51388778  0.31957978  1
  S  S39  1  0.76218754  0.47056557  0.69121633  1
  S  S40  1  0.67294123  0.01007840  0.45157825  1
  S  S41  1  0.33482410  0.89786316  0.55399876  1
