# generated using pymatgen
data_Pr2Mn3(SbS3)4
_symmetry_space_group_name_H-M   'P 1'
_cell_length_a   20.02960800
_cell_length_b   3.90410600
_cell_length_c   14.95364829
_cell_angle_alpha   90.00000000
_cell_angle_beta   126.33350609
_cell_angle_gamma   90.00000000
_symmetry_Int_Tables_number   1
_chemical_formula_structural   Pr2Mn3(SbS3)4
_chemical_formula_sum   'Pr4 Mn6 Sb8 S24'
_cell_volume   942.00006694
_cell_formula_units_Z   2
loop_
 _symmetry_equiv_pos_site_id
 _symmetry_equiv_pos_as_xyz
  1  'x, y, z'
loop_
 _atom_site_type_symbol
 _atom_site_label
 _atom_site_symmetry_multiplicity
 _atom_site_fract_x
 _atom_site_fract_y
 _atom_site_fract_z
 _atom_site_occupancy
  Pr  Pr0  1  0.27061134  0.48590492  0.88151499  1
  Pr  Pr1  1  0.73047339  0.52595068  0.13248672  1
  Pr  Pr2  1  0.76319895  0.01616210  0.87254895  1
  Pr  Pr3  1  0.23398256  0.93674533  0.12939578  1
  Mn  Mn4  1  0.29618009  0.38671423  0.60411048  1
  Mn  Mn5  1  0.69666210  0.48993743  0.36884611  1
  Mn  Mn6  1  0.00619641  0.98281956  0.00470989  1
  Mn  Mn7  1  0.80052069  0.00440170  0.62605890  1
  Mn  Mn8  1  0.20705491  0.06822554  0.38578432  1
  Mn  Mn9  1  0.48645039  0.47971693  0.98524009  1
  Sb  Sb10  1  0.89062752  0.95143476  0.45602642  1
  Sb  Sb11  1  0.11060714  0.99005077  0.54917867  1
  Sb  Sb12  1  0.04026365  0.50848410  0.82797719  1
  Sb  Sb13  1  0.96894497  0.47634615  0.19358128  1
  Sb  Sb14  1  0.40065081  0.55754938  0.44801637  1
  Sb  Sb15  1  0.60492863  0.49540567  0.53329190  1
  Sb  Sb16  1  0.52464307  0.96174341  0.79621744  1
  Sb  Sb17  1  0.47218915  0.04835086  0.18007377  1
  S  S18  1  0.93721006  0.00561373  0.80253673  1
  S  S19  1  0.05490257  0.97824334  0.19020096  1
  S  S20  1  0.41482390  0.98119233  0.97745707  1
  S  S21  1  0.58505880  0.02344219  0.01174027  1
  S  S22  1  0.17216537  0.99145920  0.90572983  1
  S  S23  1  0.83071077  0.99234505  0.09742847  1
  S  S24  1  0.09466147  0.49570067  0.65301761  1
  S  S25  1  0.91351473  0.43385701  0.36500699  1
  S  S26  1  0.73488980  0.99108128  0.30607935  1
  S  S27  1  0.25901364  0.93881253  0.68197433  1
  S  S28  1  0.16631074  0.52072301  0.44728735  1
  S  S29  1  0.81359609  0.48026902  0.53977463  1
  S  S30  1  0.43413077  0.45505385  0.79445289  1
  S  S31  1  0.56017431  0.49153033  0.18281605  1
  S  S32  1  0.91010368  0.54030009  0.98651109  1
  S  S33  1  0.07911847  0.45115329  0.02471960  1
  S  S34  1  0.66521301  0.50909499  0.88914426  1
  S  S35  1  0.33799417  0.43479741  0.11730083  1
  S  S36  1  0.59446958  0.02021455  0.64230449  1
  S  S37  1  0.40102168  0.03957615  0.34358110  1
  S  S38  1  0.24038653  0.51504112  0.31946631  1
  S  S39  1  0.76238545  0.47052643  0.69117025  1
  S  S40  1  0.67290519  0.00940459  0.45159308  1
  S  S41  1  0.33472821  0.89765665  0.55364003  1
