# generated using pymatgen
data_Pr2Mn3(SbS3)4
_symmetry_space_group_name_H-M   'P 1'
_cell_length_a   20.02960800
_cell_length_b   3.90410600
_cell_length_c   14.95364829
_cell_angle_alpha   90.00000000
_cell_angle_beta   126.33350609
_cell_angle_gamma   90.00000000
_symmetry_Int_Tables_number   1
_chemical_formula_structural   Pr2Mn3(SbS3)4
_chemical_formula_sum   'Pr4 Mn6 Sb8 S24'
_cell_volume   942.00006694
_cell_formula_units_Z   2
loop_
 _symmetry_equiv_pos_site_id
 _symmetry_equiv_pos_as_xyz
  1  'x, y, z'
loop_
 _atom_site_type_symbol
 _atom_site_label
 _atom_site_symmetry_multiplicity
 _atom_site_fract_x
 _atom_site_fract_y
 _atom_site_fract_z
 _atom_site_occupancy
  Pr  Pr0  1  0.27055865  0.48629086  0.88153618  1
  Pr  Pr1  1  0.73060580  0.52512978  0.13261140  1
  Pr  Pr2  1  0.76329697  0.01613598  0.87258378  1
  Pr  Pr3  1  0.23406043  0.93651084  0.12935127  1
  Mn  Mn4  1  0.29624314  0.38660127  0.60398703  1
  Mn  Mn5  1  0.69666839  0.48952602  0.36874681  1
  Mn  Mn6  1  0.00614171  0.98244219  0.00502050  1
  Mn  Mn7  1  0.80052151  0.00465857  0.62614882  1
  Mn  Mn8  1  0.20712531  0.06797651  0.38598049  1
  Mn  Mn9  1  0.48647353  0.48005419  0.98532317  1
  Sb  Sb10  1  0.89072889  0.95153646  0.45629890  1
  Sb  Sb11  1  0.11056221  0.99069590  0.54916560  1
  Sb  Sb12  1  0.04029024  0.50925854  0.82797187  1
  Sb  Sb13  1  0.96886526  0.47614149  0.19360829  1
  Sb  Sb14  1  0.40070696  0.55770485  0.44797410  1
  Sb  Sb15  1  0.60493518  0.49550632  0.53337741  1
  Sb  Sb16  1  0.52463952  0.96175196  0.79620442  1
  Sb  Sb17  1  0.47222462  0.04766672  0.18014784  1
  S  S18  1  0.93727713  0.00569105  0.80271489  1
  S  S19  1  0.05513300  0.97708593  0.19038047  1
  S  S20  1  0.41486775  0.98063790  0.97773937  1
  S  S21  1  0.58511691  0.02425653  0.01183079  1
  S  S22  1  0.17229324  0.99231066  0.90555925  1
  S  S23  1  0.83126891  0.99460093  0.09835007  1
  S  S24  1  0.09481911  0.49628143  0.65322301  1
  S  S25  1  0.91336406  0.43443663  0.36498100  1
  S  S26  1  0.73467339  0.99097945  0.30611997  1
  S  S27  1  0.25903735  0.93883612  0.68216716  1
  S  S28  1  0.16602434  0.51991501  0.44720217  1
  S  S29  1  0.81348068  0.48157368  0.53964798  1
  S  S30  1  0.43415687  0.45500696  0.79465768  1
  S  S31  1  0.56027878  0.49224382  0.18296867  1
  S  S32  1  0.91019675  0.53899668  0.98645645  1
  S  S33  1  0.07899625  0.45147212  0.02466861  1
  S  S34  1  0.66498821  0.50969370  0.88942635  1
  S  S35  1  0.33800218  0.43472598  0.11754112  1
  S  S36  1  0.59426472  0.02033346  0.64201493  1
  S  S37  1  0.40107308  0.04121423  0.34354022  1
  S  S38  1  0.24021560  0.51660165  0.31949302  1
  S  S39  1  0.76254452  0.47070623  0.69120823  1
  S  S40  1  0.67284053  0.00845453  0.45157880  1
  S  S41  1  0.33455764  0.89705289  0.55314524  1
