# generated using pymatgen
data_Pr2Mn3(SbS3)4
_symmetry_space_group_name_H-M   'P 1'
_cell_length_a   20.02960800
_cell_length_b   3.90410600
_cell_length_c   14.95364829
_cell_angle_alpha   90.00000000
_cell_angle_beta   126.33350609
_cell_angle_gamma   90.00000000
_symmetry_Int_Tables_number   1
_chemical_formula_structural   Pr2Mn3(SbS3)4
_chemical_formula_sum   'Pr4 Mn6 Sb8 S24'
_cell_volume   942.00006694
_cell_formula_units_Z   2
loop_
 _symmetry_equiv_pos_site_id
 _symmetry_equiv_pos_as_xyz
  1  'x, y, z'
loop_
 _atom_site_type_symbol
 _atom_site_label
 _atom_site_symmetry_multiplicity
 _atom_site_fract_x
 _atom_site_fract_y
 _atom_site_fract_z
 _atom_site_occupancy
  Pr  Pr0  1  0.26475520  0.48171502  0.86991742  1
  Pr  Pr1  1  0.73687776  0.50768135  0.13487539  1
  Pr  Pr2  1  0.76183500  0.00885395  0.86138959  1
  Pr  Pr3  1  0.23748289  0.99848550  0.14045223  1
  Mn  Mn4  1  0.29717787  0.49998933  0.61488937  1
  Mn  Mn5  1  0.69624806  0.50868705  0.37988462  1
  Mn  Mn6  1  0.00187388  0.99689198  0.99851446  1
  Mn  Mn7  1  0.80346535  0.98813068  0.61592093  1
  Mn  Mn8  1  0.19821936  0.97489660  0.38028213  1
  Mn  Mn9  1  0.50205764  0.47835690  0.99415468  1
  Sb  Sb10  1  0.89331034  0.00416550  0.45479905  1
  Sb  Sb11  1  0.10923408  0.97654538  0.55101416  1
  Sb  Sb12  1  0.03938900  0.49109064  0.81594370  1
  Sb  Sb13  1  0.96192110  0.52295004  0.18739266  1
  Sb  Sb14  1  0.39690432  0.49578835  0.45745201  1
  Sb  Sb15  1  0.60719898  0.49807728  0.54942870  1
  Sb  Sb16  1  0.53720132  0.00660870  0.81611345  1
  Sb  Sb17  1  0.46236796  0.00184822  0.18095250  1
  S  S18  1  0.93591854  0.97738565  0.79736590  1
  S  S19  1  0.06348837  0.99724956  0.19286426  1
  S  S20  1  0.40929573  0.00145260  0.97816977  1
  S  S21  1  0.59217944  0.99073999  0.01780353  1
  S  S22  1  0.17171795  0.99309294  0.89753281  1
  S  S23  1  0.82818676  0.01827962  0.10288016  1
  S  S24  1  0.08523336  0.47065823  0.64286159  1
  S  S25  1  0.91471720  0.48499560  0.36133575  1
  S  S26  1  0.74242424  0.94344007  0.29465836  1
  S  S27  1  0.25803240  0.00309288  0.70331692  1
  S  S28  1  0.16355266  0.48964464  0.44522491  1
  S  S29  1  0.83039208  0.48319218  0.55012739  1
  S  S30  1  0.43536243  0.51220476  0.80232062  1
  S  S31  1  0.56098328  0.51965430  0.19123283  1
  S  S32  1  0.90216022  0.48995801  0.97649972  1
  S  S33  1  0.08740249  0.48887314  0.01752971  1
  S  S34  1  0.66409110  0.50723442  0.89377499  1
  S  S35  1  0.33051861  0.52456567  0.10074374  1
  S  S36  1  0.59068951  0.01054034  0.64882948  1
  S  S37  1  0.41279529  0.96671135  0.35652539  1
  S  S38  1  0.24318771  0.48797650  0.30156442  1
  S  S39  1  0.76054470  0.49778752  0.69637922  1
  S  S40  1  0.67163794  0.01728949  0.46368850  1
  S  S41  1  0.33044517  0.98585426  0.54255935  1
