# generated using pymatgen
data_Pr2Mn3(SbS3)4
_symmetry_space_group_name_H-M   'P 1'
_cell_length_a   20.02960800
_cell_length_b   3.90410600
_cell_length_c   14.95364829
_cell_angle_alpha   90.00000000
_cell_angle_beta   126.33350609
_cell_angle_gamma   90.00000000
_symmetry_Int_Tables_number   1
_chemical_formula_structural   Pr2Mn3(SbS3)4
_chemical_formula_sum   'Pr4 Mn6 Sb8 S24'
_cell_volume   942.00006694
_cell_formula_units_Z   2
loop_
 _symmetry_equiv_pos_site_id
 _symmetry_equiv_pos_as_xyz
  1  'x, y, z'
loop_
 _atom_site_type_symbol
 _atom_site_label
 _atom_site_symmetry_multiplicity
 _atom_site_fract_x
 _atom_site_fract_y
 _atom_site_fract_z
 _atom_site_occupancy
  Pr  Pr0  1  0.27049410  0.48684468  0.88156626  1
  Pr  Pr1  1  0.73065545  0.52442633  0.13272190  1
  Pr  Pr2  1  0.76339439  0.01613245  0.87264162  1
  Pr  Pr3  1  0.23414697  0.93618113  0.12932498  1
  Mn  Mn4  1  0.29618855  0.38668534  0.60376355  1
  Mn  Mn5  1  0.69675826  0.48918948  0.36874815  1
  Mn  Mn6  1  0.00610996  0.98215145  0.00534787  1
  Mn  Mn7  1  0.80049133  0.00492239  0.62624675  1
  Mn  Mn8  1  0.20724976  0.06763580  0.38621377  1
  Mn  Mn9  1  0.48648292  0.48062320  0.98539805  1
  Sb  Sb10  1  0.89077385  0.95148625  0.45654284  1
  Sb  Sb11  1  0.11054027  0.99123352  0.54920832  1
  Sb  Sb12  1  0.04027618  0.51039520  0.82789462  1
  Sb  Sb13  1  0.96877085  0.47605204  0.19372753  1
  Sb  Sb14  1  0.40080003  0.55780809  0.44792293  1
  Sb  Sb15  1  0.60491714  0.49548164  0.53339765  1
  Sb  Sb16  1  0.52465814  0.96189490  0.79618706  1
  Sb  Sb17  1  0.47224650  0.04710107  0.18024430  1
  S  S18  1  0.93741665  0.00552673  0.80278822  1
  S  S19  1  0.05534147  0.97610027  0.19052218  1
  S  S20  1  0.41483195  0.98001579  0.97799203  1
  S  S21  1  0.58514025  0.02493098  0.01179540  1
  S  S22  1  0.17246103  0.99273136  0.90544084  1
  S  S23  1  0.83189277  0.99641423  0.09922115  1
  S  S24  1  0.09486577  0.49660021  0.65326953  1
  S  S25  1  0.91322507  0.43454307  0.36489753  1
  S  S26  1  0.73444811  0.99153752  0.30620869  1
  S  S27  1  0.25903168  0.93930966  0.68228861  1
  S  S28  1  0.16583434  0.51909614  0.44695319  1
  S  S29  1  0.81333264  0.48260006  0.53953098  1
  S  S30  1  0.43415301  0.45504934  0.79474255  1
  S  S31  1  0.56042037  0.49359087  0.18306764  1
  S  S32  1  0.91040898  0.53755552  0.98651006  1
  S  S33  1  0.07880097  0.45193363  0.02447082  1
  S  S34  1  0.66476907  0.51083224  0.88970707  1
  S  S35  1  0.33807019  0.43491878  0.11789516  1
  S  S36  1  0.59415192  0.02019481  0.64185571  1
  S  S37  1  0.40109276  0.04270519  0.34344058  1
  S  S38  1  0.24011405  0.51841286  0.31950366  1
  S  S39  1  0.76273441  0.47083049  0.69125532  1
  S  S40  1  0.67286973  0.00699249  0.45167586  1
  S  S41  1  0.33450310  0.89676926  0.55272910  1
