# generated using pymatgen
data_Pr2Mn3(SbS3)4
_symmetry_space_group_name_H-M   'P 1'
_cell_length_a   20.02960800
_cell_length_b   3.90410600
_cell_length_c   14.95364829
_cell_angle_alpha   90.00000000
_cell_angle_beta   126.33350609
_cell_angle_gamma   90.00000000
_symmetry_Int_Tables_number   1
_chemical_formula_structural   Pr2Mn3(SbS3)4
_chemical_formula_sum   'Pr4 Mn6 Sb8 S24'
_cell_volume   942.00006694
_cell_formula_units_Z   2
loop_
 _symmetry_equiv_pos_site_id
 _symmetry_equiv_pos_as_xyz
  1  'x, y, z'
loop_
 _atom_site_type_symbol
 _atom_site_label
 _atom_site_symmetry_multiplicity
 _atom_site_fract_x
 _atom_site_fract_y
 _atom_site_fract_z
 _atom_site_occupancy
  Pr  Pr0  1  0.27047463  0.48730045  0.88164010  1
  Pr  Pr1  1  0.73065710  0.52386722  0.13273953  1
  Pr  Pr2  1  0.76354166  0.01623339  0.87271192  1
  Pr  Pr3  1  0.23427309  0.93592983  0.12934416  1
  Mn  Mn4  1  0.29623416  0.38659219  0.60361398  1
  Mn  Mn5  1  0.69680317  0.48896055  0.36875146  1
  Mn  Mn6  1  0.00607822  0.98224482  0.00564961  1
  Mn  Mn7  1  0.80046362  0.00522535  0.62639421  1
  Mn  Mn8  1  0.20737632  0.06750322  0.38639943  1
  Mn  Mn9  1  0.48650732  0.48131989  0.98547737  1
  Sb  Sb10  1  0.89081736  0.95107758  0.45676780  1
  Sb  Sb11  1  0.11051671  0.99172356  0.54924357  1
  Sb  Sb12  1  0.04027230  0.51103390  0.82786534  1
  Sb  Sb13  1  0.96867787  0.47610262  0.19379228  1
  Sb  Sb14  1  0.40088304  0.55773804  0.44792166  1
  Sb  Sb15  1  0.60492215  0.49549314  0.53340490  1
  Sb  Sb16  1  0.52468999  0.96204459  0.79615676  1
  Sb  Sb17  1  0.47229193  0.04654447  0.18036363  1
  S  S18  1  0.93746795  0.00579805  0.80275071  1
  S  S19  1  0.05549319  0.97515063  0.19053352  1
  S  S20  1  0.41477816  0.97944875  0.97814672  1
  S  S21  1  0.58500940  0.02557160  0.01162967  1
  S  S22  1  0.17255155  0.99328898  0.90529857  1
  S  S23  1  0.83238305  0.99813645  0.09981794  1
  S  S24  1  0.09495879  0.49664697  0.65332724  1
  S  S25  1  0.91309663  0.43425754  0.36488299  1
  S  S26  1  0.73428578  0.99201370  0.30624832  1
  S  S27  1  0.25902415  0.93912751  0.68231035  1
  S  S28  1  0.16562018  0.51858750  0.44665126  1
  S  S29  1  0.81318316  0.48359922  0.53939742  1
  S  S30  1  0.43414354  0.45534247  0.79489235  1
  S  S31  1  0.56058830  0.49506497  0.18308525  1
  S  S32  1  0.91065126  0.53681044  0.98659297  1
  S  S33  1  0.07872065  0.45242312  0.02441725  1
  S  S34  1  0.66447822  0.51165446  0.88986766  1
  S  S35  1  0.33808470  0.43532670  0.11824678  1
  S  S36  1  0.59402543  0.01994629  0.64165435  1
  S  S37  1  0.40114519  0.04383194  0.34335039  1
  S  S38  1  0.24007482  0.52019173  0.31962067  1
  S  S39  1  0.76284982  0.47172657  0.69126734  1
  S  S40  1  0.67292228  0.00528573  0.45179767  1
  S  S41  1  0.33445637  0.89662915  0.55230912  1
