# generated using pymatgen
data_Pr2Mn3(SbS3)4
_symmetry_space_group_name_H-M   'P 1'
_cell_length_a   20.02960800
_cell_length_b   3.90410600
_cell_length_c   14.95364829
_cell_angle_alpha   90.00000000
_cell_angle_beta   126.33350609
_cell_angle_gamma   90.00000000
_symmetry_Int_Tables_number   1
_chemical_formula_structural   Pr2Mn3(SbS3)4
_chemical_formula_sum   'Pr4 Mn6 Sb8 S24'
_cell_volume   942.00006694
_cell_formula_units_Z   2
loop_
 _symmetry_equiv_pos_site_id
 _symmetry_equiv_pos_as_xyz
  1  'x, y, z'
loop_
 _atom_site_type_symbol
 _atom_site_label
 _atom_site_symmetry_multiplicity
 _atom_site_fract_x
 _atom_site_fract_y
 _atom_site_fract_z
 _atom_site_occupancy
  Pr  Pr0  1  0.27046099  0.48781413  0.88171762  1
  Pr  Pr1  1  0.73066289  0.52335321  0.13274725  1
  Pr  Pr2  1  0.76367256  0.01618651  0.87282661  1
  Pr  Pr3  1  0.23436779  0.93563615  0.12931685  1
  Mn  Mn4  1  0.29624352  0.38685817  0.60346854  1
  Mn  Mn5  1  0.69676468  0.48853767  0.36863566  1
  Mn  Mn6  1  0.00606070  0.98264670  0.00587384  1
  Mn  Mn7  1  0.80055088  0.00514156  0.62651261  1
  Mn  Mn8  1  0.20753731  0.06735593  0.38666483  1
  Mn  Mn9  1  0.48656072  0.48191247  0.98558108  1
  Sb  Sb10  1  0.89092513  0.95082288  0.45703996  1
  Sb  Sb11  1  0.11047404  0.99211293  0.54925622  1
  Sb  Sb12  1  0.04029772  0.51138230  0.82784484  1
  Sb  Sb13  1  0.96858415  0.47617833  0.19383369  1
  Sb  Sb14  1  0.40092552  0.55771132  0.44791468  1
  Sb  Sb15  1  0.60496682  0.49562830  0.53337724  1
  Sb  Sb16  1  0.52477669  0.96217370  0.79616426  1
  Sb  Sb17  1  0.47235326  0.04615134  0.18042334  1
  S  S18  1  0.93760039  0.00616767  0.80272770  1
  S  S19  1  0.05563830  0.97467421  0.19051492  1
  S  S20  1  0.41476930  0.97888123  0.97821803  1
  S  S21  1  0.58478717  0.02580173  0.01146542  1
  S  S22  1  0.17264040  0.99389360  0.90517694  1
  S  S23  1  0.83269071  0.99963358  0.10024098  1
  S  S24  1  0.09508925  0.49704738  0.65332574  1
  S  S25  1  0.91286425  0.43400852  0.36471884  1
  S  S26  1  0.73408401  0.99225948  0.30615642  1
  S  S27  1  0.25906455  0.93900297  0.68240635  1
  S  S28  1  0.16543734  0.51854073  0.44639104  1
  S  S29  1  0.81318128  0.48390554  0.53936461  1
  S  S30  1  0.43419725  0.45580725  0.79508523  1
  S  S31  1  0.56075691  0.49662541  0.18304061  1
  S  S32  1  0.91088523  0.53618966  0.98661735  1
  S  S33  1  0.07861039  0.45247525  0.02433784  1
  S  S34  1  0.66423378  0.51284624  0.88984750  1
  S  S35  1  0.33799216  0.43544295  0.11848449  1
  S  S36  1  0.59394549  0.01997505  0.64153621  1
  S  S37  1  0.40122184  0.04415345  0.34318578  1
  S  S38  1  0.24009314  0.52175989  0.31965943  1
  S  S39  1  0.76294517  0.47223262  0.69124965  1
  S  S40  1  0.67294039  0.00390391  0.45202773  1
  S  S41  1  0.33444625  0.89671905  0.55203154  1
