# generated using pymatgen
data_Pr2Mn3(SbS3)4
_symmetry_space_group_name_H-M   'P 1'
_cell_length_a   20.02960800
_cell_length_b   3.90410600
_cell_length_c   14.95364829
_cell_angle_alpha   90.00000000
_cell_angle_beta   126.33350609
_cell_angle_gamma   90.00000000
_symmetry_Int_Tables_number   1
_chemical_formula_structural   Pr2Mn3(SbS3)4
_chemical_formula_sum   'Pr4 Mn6 Sb8 S24'
_cell_volume   942.00006694
_cell_formula_units_Z   2
loop_
 _symmetry_equiv_pos_site_id
 _symmetry_equiv_pos_as_xyz
  1  'x, y, z'
loop_
 _atom_site_type_symbol
 _atom_site_label
 _atom_site_symmetry_multiplicity
 _atom_site_fract_x
 _atom_site_fract_y
 _atom_site_fract_z
 _atom_site_occupancy
  Pr  Pr0  1  0.27043935  0.48828002  0.88171899  1
  Pr  Pr1  1  0.73062326  0.52277144  0.13269045  1
  Pr  Pr2  1  0.76376201  0.01604777  0.87293125  1
  Pr  Pr3  1  0.23445902  0.93533710  0.12933103  1
  Mn  Mn4  1  0.29626479  0.38750225  0.60345346  1
  Mn  Mn5  1  0.69674509  0.48829713  0.36860094  1
  Mn  Mn6  1  0.00603154  0.98287912  0.00620706  1
  Mn  Mn7  1  0.80058286  0.00504700  0.62650958  1
  Mn  Mn8  1  0.20768038  0.06722129  0.38692168  1
  Mn  Mn9  1  0.48658435  0.48245696  0.98575168  1
  Sb  Sb10  1  0.89103539  0.95045372  0.45730134  1
  Sb  Sb11  1  0.11047835  0.99268202  0.54927189  1
  Sb  Sb12  1  0.04036428  0.51148036  0.82778378  1
  Sb  Sb13  1  0.96852622  0.47630278  0.19392459  1
  Sb  Sb14  1  0.40096188  0.55787559  0.44790029  1
  Sb  Sb15  1  0.60502869  0.49609780  0.53335378  1
  Sb  Sb16  1  0.52477421  0.96209117  0.79607439  1
  Sb  Sb17  1  0.47245070  0.04573968  0.18046236  1
  S  S18  1  0.93776350  0.00615023  0.80261139  1
  S  S19  1  0.05578943  0.97381199  0.19040238  1
  S  S20  1  0.41481120  0.97776227  0.97841606  1
  S  S21  1  0.58439741  0.02592653  0.01123483  1
  S  S22  1  0.17275249  0.99399400  0.90508292  1
  S  S23  1  0.83302474  0.00126214  0.10053474  1
  S  S24  1  0.09526636  0.49747573  0.65347147  1
  S  S25  1  0.91277393  0.43389082  0.36478259  1
  S  S26  1  0.73382074  0.99257264  0.30597625  1
  S  S27  1  0.25902823  0.93850524  0.68238821  1
  S  S28  1  0.16519988  0.51901700  0.44609427  1
  S  S29  1  0.81314509  0.48396588  0.53930365  1
  S  S30  1  0.43423985  0.45588759  0.79520807  1
  S  S31  1  0.56087147  0.49791323  0.18282350  1
  S  S32  1  0.91096448  0.53530791  0.98658218  1
  S  S33  1  0.07857008  0.45235610  0.02427556  1
  S  S34  1  0.66377289  0.51476858  0.88965980  1
  S  S35  1  0.33779742  0.43548693  0.11851571  1
  S  S36  1  0.59389749  0.01995852  0.64133767  1
  S  S37  1  0.40130154  0.04410534  0.34296208  1
  S  S38  1  0.24007507  0.52318201  0.31968536  1
  S  S39  1  0.76291069  0.47280788  0.69120047  1
  S  S40  1  0.67297921  0.00280675  0.45223962  1
  S  S41  1  0.33445396  0.89720419  0.55184000  1
