# generated using pymatgen
data_Pr2Mn3(SbS3)4
_symmetry_space_group_name_H-M   'P 1'
_cell_length_a   20.02960800
_cell_length_b   3.90410600
_cell_length_c   14.95364829
_cell_angle_alpha   90.00000000
_cell_angle_beta   126.33350609
_cell_angle_gamma   90.00000000
_symmetry_Int_Tables_number   1
_chemical_formula_structural   Pr2Mn3(SbS3)4
_chemical_formula_sum   'Pr4 Mn6 Sb8 S24'
_cell_volume   942.00006694
_cell_formula_units_Z   2
loop_
 _symmetry_equiv_pos_site_id
 _symmetry_equiv_pos_as_xyz
  1  'x, y, z'
loop_
 _atom_site_type_symbol
 _atom_site_label
 _atom_site_symmetry_multiplicity
 _atom_site_fract_x
 _atom_site_fract_y
 _atom_site_fract_z
 _atom_site_occupancy
  Pr  Pr0  1  0.27048752  0.48854381  0.88177350  1
  Pr  Pr1  1  0.73060202  0.52221261  0.13266870  1
  Pr  Pr2  1  0.76387782  0.01615835  0.87307916  1
  Pr  Pr3  1  0.23450013  0.93517068  0.12928655  1
  Mn  Mn4  1  0.29636028  0.38795551  0.60345482  1
  Mn  Mn5  1  0.69670291  0.48808028  0.36855889  1
  Mn  Mn6  1  0.00606259  0.98306100  0.00661256  1
  Mn  Mn7  1  0.80058224  0.00498190  0.62653090  1
  Mn  Mn8  1  0.20774660  0.06703625  0.38724344  1
  Mn  Mn9  1  0.48664700  0.48305732  0.98598752  1
  Sb  Sb10  1  0.89114400  0.95021656  0.45755630  1
  Sb  Sb11  1  0.11037852  0.99316569  0.54918040  1
  Sb  Sb12  1  0.04040630  0.51157449  0.82775655  1
  Sb  Sb13  1  0.96840509  0.47632694  0.19410860  1
  Sb  Sb14  1  0.40097387  0.55811119  0.44787343  1
  Sb  Sb15  1  0.60510470  0.49635240  0.53338633  1
  Sb  Sb16  1  0.52475379  0.96213051  0.79593983  1
  Sb  Sb17  1  0.47255232  0.04551598  0.18059216  1
  S  S18  1  0.93791780  0.00566991  0.80242826  1
  S  S19  1  0.05608744  0.97310293  0.19039079  1
  S  S20  1  0.41488711  0.97702419  0.97878340  1
  S  S21  1  0.58401144  0.02580267  0.01101535  1
  S  S22  1  0.17290370  0.99404097  0.90508770  1
  S  S23  1  0.83333885  0.00260318  0.10084258  1
  S  S24  1  0.09544733  0.49797777  0.65353192  1
  S  S25  1  0.91255600  0.43388565  0.36482856  1
  S  S26  1  0.73355671  0.99221291  0.30573587  1
  S  S27  1  0.25888769  0.93848704  0.68223842  1
  S  S28  1  0.16495563  0.51945545  0.44574977  1
  S  S29  1  0.81316411  0.48348856  0.53946878  1
  S  S30  1  0.43429706  0.45598108  0.79535702  1
  S  S31  1  0.56081639  0.49880624  0.18261100  1
  S  S32  1  0.91095565  0.53459904  0.98646674  1
  S  S33  1  0.07850260  0.45258917  0.02432397  1
  S  S34  1  0.66337891  0.51577836  0.88955389  1
  S  S35  1  0.33760307  0.43558782  0.11854476  1
  S  S36  1  0.59388019  0.02000302  0.64118123  1
  S  S37  1  0.40137951  0.04387188  0.34285138  1
  S  S38  1  0.24011173  0.52430237  0.31956820  1
  S  S39  1  0.76287629  0.47386950  0.69106657  1
  S  S40  1  0.67302517  0.00211618  0.45240306  1
  S  S41  1  0.33452871  0.89745935  0.55175831  1
