# generated using pymatgen
data_Pr2Mn3(SbS3)4
_symmetry_space_group_name_H-M   'P 1'
_cell_length_a   20.02960800
_cell_length_b   3.90410600
_cell_length_c   14.95364829
_cell_angle_alpha   90.00000000
_cell_angle_beta   126.33350609
_cell_angle_gamma   90.00000000
_symmetry_Int_Tables_number   1
_chemical_formula_structural   Pr2Mn3(SbS3)4
_chemical_formula_sum   'Pr4 Mn6 Sb8 S24'
_cell_volume   942.00006694
_cell_formula_units_Z   2
loop_
 _symmetry_equiv_pos_site_id
 _symmetry_equiv_pos_as_xyz
  1  'x, y, z'
loop_
 _atom_site_type_symbol
 _atom_site_label
 _atom_site_symmetry_multiplicity
 _atom_site_fract_x
 _atom_site_fract_y
 _atom_site_fract_z
 _atom_site_occupancy
  Pr  Pr0  1  0.27056263  0.48867250  0.88185798  1
  Pr  Pr1  1  0.73051532  0.52162078  0.13255990  1
  Pr  Pr2  1  0.76402118  0.01612165  0.87322704  1
  Pr  Pr3  1  0.23451121  0.93497389  0.12922993  1
  Mn  Mn4  1  0.29646740  0.38848354  0.60341911  1
  Mn  Mn5  1  0.69664161  0.48814166  0.36851503  1
  Mn  Mn6  1  0.00606076  0.98298706  0.00696378  1
  Mn  Mn7  1  0.80062236  0.00487797  0.62673633  1
  Mn  Mn8  1  0.20786849  0.06659140  0.38772911  1
  Mn  Mn9  1  0.48674477  0.48352863  0.98634031  1
  Sb  Sb10  1  0.89126473  0.94994370  0.45780013  1
  Sb  Sb11  1  0.11024070  0.99375849  0.54899176  1
  Sb  Sb12  1  0.04042401  0.51160764  0.82775868  1
  Sb  Sb13  1  0.96824649  0.47614710  0.19421027  1
  Sb  Sb14  1  0.40095174  0.55830031  0.44788639  1
  Sb  Sb15  1  0.60520682  0.49679504  0.53346329  1
  Sb  Sb16  1  0.52477007  0.96190501  0.79576075  1
  Sb  Sb17  1  0.47266448  0.04541968  0.18066192  1
  S  S18  1  0.93806480  0.00523636  0.80222784  1
  S  S19  1  0.05619374  0.97277198  0.19021209  1
  S  S20  1  0.41489119  0.97620896  0.97906507  1
  S  S21  1  0.58360813  0.02554793  0.01057646  1
  S  S22  1  0.17299604  0.99456224  0.90518938  1
  S  S23  1  0.83371510  0.00338436  0.10110639  1
  S  S24  1  0.09566290  0.49809029  0.65363990  1
  S  S25  1  0.91247682  0.43399234  0.36488098  1
  S  S26  1  0.73338977  0.99193067  0.30553941  1
  S  S27  1  0.25874339  0.93883996  0.68207597  1
  S  S28  1  0.16476706  0.51971406  0.44551181  1
  S  S29  1  0.81316001  0.48292750  0.53951198  1
  S  S30  1  0.43429040  0.45590390  0.79549980  1
  S  S31  1  0.56080620  0.49955753  0.18247857  1
  S  S32  1  0.91087010  0.53432095  0.98623905  1
  S  S33  1  0.07854282  0.45302910  0.02438777  1
  S  S34  1  0.66294541  0.51645839  0.88933739  1
  S  S35  1  0.33730339  0.43538602  0.11848463  1
  S  S36  1  0.59390412  0.02024722  0.64111385  1
  S  S37  1  0.40149768  0.04377176  0.34279398  1
  S  S38  1  0.24015542  0.52559198  0.31950799  1
  S  S39  1  0.76285380  0.47526624  0.69087671  1
  S  S40  1  0.67298055  0.00175727  0.45248183  1
  S  S41  1  0.33468211  0.89775948  0.55189687  1
