# generated using pymatgen
data_Pr2Mn3(SbS3)4
_symmetry_space_group_name_H-M   'P 1'
_cell_length_a   20.02960800
_cell_length_b   3.90410600
_cell_length_c   14.95364829
_cell_angle_alpha   90.00000000
_cell_angle_beta   126.33350609
_cell_angle_gamma   90.00000000
_symmetry_Int_Tables_number   1
_chemical_formula_structural   Pr2Mn3(SbS3)4
_chemical_formula_sum   'Pr4 Mn6 Sb8 S24'
_cell_volume   942.00006694
_cell_formula_units_Z   2
loop_
 _symmetry_equiv_pos_site_id
 _symmetry_equiv_pos_as_xyz
  1  'x, y, z'
loop_
 _atom_site_type_symbol
 _atom_site_label
 _atom_site_symmetry_multiplicity
 _atom_site_fract_x
 _atom_site_fract_y
 _atom_site_fract_z
 _atom_site_occupancy
  Pr  Pr0  1  0.27064592  0.48883946  0.88195916  1
  Pr  Pr1  1  0.73049045  0.52119890  0.13257070  1
  Pr  Pr2  1  0.76408715  0.01607608  0.87330735  1
  Pr  Pr3  1  0.23449614  0.93478345  0.12920358  1
  Mn  Mn4  1  0.29663649  0.38887777  0.60354782  1
  Mn  Mn5  1  0.69658090  0.48832969  0.36857760  1
  Mn  Mn6  1  0.00615113  0.98312448  0.00734553  1
  Mn  Mn7  1  0.80066985  0.00454628  0.62699336  1
  Mn  Mn8  1  0.20806240  0.06599453  0.38822524  1
  Mn  Mn9  1  0.48680419  0.48336738  0.98652924  1
  Sb  Sb10  1  0.89135537  0.94997835  0.45800749  1
  Sb  Sb11  1  0.11019690  0.99403099  0.54884668  1
  Sb  Sb12  1  0.04042528  0.51162552  0.82775148  1
  Sb  Sb13  1  0.96808051  0.47608846  0.19430992  1
  Sb  Sb14  1  0.40097938  0.55857733  0.44794073  1
  Sb  Sb15  1  0.60526321  0.49742294  0.53360161  1
  Sb  Sb16  1  0.52478941  0.96170013  0.79561529  1
  Sb  Sb17  1  0.47279668  0.04550805  0.18078575  1
  S  S18  1  0.93814000  0.00484061  0.80194015  1
  S  S19  1  0.05631594  0.97262397  0.19005170  1
  S  S20  1  0.41492704  0.97601884  0.97928685  1
  S  S21  1  0.58332264  0.02491513  0.01029106  1
  S  S22  1  0.17299113  0.99486594  0.90525879  1
  S  S23  1  0.83390743  0.00364234  0.10123919  1
  S  S24  1  0.09591946  0.49834050  0.65385049  1
  S  S25  1  0.91237460  0.43443225  0.36488811  1
  S  S26  1  0.73320087  0.99128885  0.30526706  1
  S  S27  1  0.25855146  0.93930919  0.68191342  1
  S  S28  1  0.16472450  0.52021557  0.44531042  1
  S  S29  1  0.81315178  0.48249820  0.53960149  1
  S  S30  1  0.43429600  0.45563162  0.79551848  1
  S  S31  1  0.56067973  0.50029697  0.18230317  1
  S  S32  1  0.91077788  0.53455902  0.98596606  1
  S  S33  1  0.07852879  0.45324937  0.02439700  1
  S  S34  1  0.66254806  0.51670598  0.88905945  1
  S  S35  1  0.33706956  0.43547105  0.11840884  1
  S  S36  1  0.59399442  0.02044044  0.64117171  1
  S  S37  1  0.40158654  0.04372872  0.34278621  1
  S  S38  1  0.24025448  0.52626102  0.31952890  1
  S  S39  1  0.76270906  0.47621586  0.69070486  1
  S  S40  1  0.67284281  0.00155963  0.45260330  1
  S  S41  1  0.33476514  0.89817933  0.55175811  1
