# generated using pymatgen
data_Pr2Mn3(SbS3)4
_symmetry_space_group_name_H-M   'P 1'
_cell_length_a   20.02960800
_cell_length_b   3.90410600
_cell_length_c   14.95364829
_cell_angle_alpha   90.00000000
_cell_angle_beta   126.33350609
_cell_angle_gamma   90.00000000
_symmetry_Int_Tables_number   1
_chemical_formula_structural   Pr2Mn3(SbS3)4
_chemical_formula_sum   'Pr4 Mn6 Sb8 S24'
_cell_volume   942.00006694
_cell_formula_units_Z   2
loop_
 _symmetry_equiv_pos_site_id
 _symmetry_equiv_pos_as_xyz
  1  'x, y, z'
loop_
 _atom_site_type_symbol
 _atom_site_label
 _atom_site_symmetry_multiplicity
 _atom_site_fract_x
 _atom_site_fract_y
 _atom_site_fract_z
 _atom_site_occupancy
  Pr  Pr0  1  0.27074353  0.48910969  0.88207919  1
  Pr  Pr1  1  0.73046074  0.52064732  0.13256519  1
  Pr  Pr2  1  0.76410607  0.01626277  0.87338214  1
  Pr  Pr3  1  0.23446436  0.93465563  0.12918291  1
  Mn  Mn4  1  0.29678337  0.38903969  0.60352874  1
  Mn  Mn5  1  0.69658982  0.48818638  0.36866537  1
  Mn  Mn6  1  0.00620905  0.98350935  0.00767332  1
  Mn  Mn7  1  0.80078882  0.00388582  0.62736755  1
  Mn  Mn8  1  0.20821524  0.06559391  0.38876477  1
  Mn  Mn9  1  0.48683613  0.48357298  0.98677907  1
  Sb  Sb10  1  0.89149967  0.94977640  0.45827995  1
  Sb  Sb11  1  0.11012074  0.99463377  0.54866699  1
  Sb  Sb12  1  0.04043757  0.51168274  0.82768962  1
  Sb  Sb13  1  0.96794268  0.47607028  0.19441804  1
  Sb  Sb14  1  0.40101778  0.55917674  0.44791722  1
  Sb  Sb15  1  0.60526761  0.49810862  0.53362309  1
  Sb  Sb16  1  0.52480605  0.96147474  0.79546610  1
  Sb  Sb17  1  0.47293867  0.04541219  0.18092069  1
  S  S18  1  0.93820549  0.00450252  0.80164232  1
  S  S19  1  0.05633811  0.97270227  0.18971123  1
  S  S20  1  0.41488246  0.97623456  0.97944800  1
  S  S21  1  0.58294113  0.02394249  0.00990096  1
  S  S22  1  0.17305815  0.99470223  0.90557687  1
  S  S23  1  0.83395473  0.00401031  0.10134967  1
  S  S24  1  0.09619234  0.49880750  0.65399899  1
  S  S25  1  0.91216520  0.43476528  0.36480945  1
  S  S26  1  0.73294859  0.99053256  0.30484582  1
  S  S27  1  0.25832958  0.93905695  0.68173802  1
  S  S28  1  0.16460155  0.52081212  0.44497637  1
  S  S29  1  0.81309133  0.48158428  0.53966951  1
  S  S30  1  0.43433496  0.45566085  0.79553743  1
  S  S31  1  0.56064696  0.50155396  0.18227072  1
  S  S32  1  0.91073128  0.53428366  0.98567473  1
  S  S33  1  0.07847682  0.45349621  0.02428969  1
  S  S34  1  0.66223057  0.51664404  0.88900091  1
  S  S35  1  0.33678556  0.43547647  0.11825382  1
  S  S36  1  0.59412207  0.02069799  0.64123659  1
  S  S37  1  0.40171836  0.04388010  0.34274384  1
  S  S38  1  0.24038248  0.52685378  0.31959698  1
  S  S39  1  0.76251718  0.47751458  0.69040617  1
  S  S40  1  0.67277400  0.00105117  0.45269977  1
  S  S41  1  0.33497212  0.89844281  0.55170879  1
