# generated using pymatgen
data_Pr2Mn3(SbS3)4
_symmetry_space_group_name_H-M   'P 1'
_cell_length_a   20.02960800
_cell_length_b   3.90410600
_cell_length_c   14.95364829
_cell_angle_alpha   90.00000000
_cell_angle_beta   126.33350609
_cell_angle_gamma   90.00000000
_symmetry_Int_Tables_number   1
_chemical_formula_structural   Pr2Mn3(SbS3)4
_chemical_formula_sum   'Pr4 Mn6 Sb8 S24'
_cell_volume   942.00006694
_cell_formula_units_Z   2
loop_
 _symmetry_equiv_pos_site_id
 _symmetry_equiv_pos_as_xyz
  1  'x, y, z'
loop_
 _atom_site_type_symbol
 _atom_site_label
 _atom_site_symmetry_multiplicity
 _atom_site_fract_x
 _atom_site_fract_y
 _atom_site_fract_z
 _atom_site_occupancy
  Pr  Pr0  1  0.27077765  0.48937765  0.88209388  1
  Pr  Pr1  1  0.73041017  0.52019600  0.13249584  1
  Pr  Pr2  1  0.76419196  0.01653606  0.87346397  1
  Pr  Pr3  1  0.23440722  0.93433941  0.12916237  1
  Mn  Mn4  1  0.29685759  0.38910029  0.60339464  1
  Mn  Mn5  1  0.69661820  0.48776418  0.36870554  1
  Mn  Mn6  1  0.00621787  0.98413015  0.00795335  1
  Mn  Mn7  1  0.80085241  0.00296068  0.62760015  1
  Mn  Mn8  1  0.20825462  0.06566630  0.38924186  1
  Mn  Mn9  1  0.48677661  0.48345057  0.98692193  1
  Sb  Sb10  1  0.89156392  0.94944988  0.45852978  1
  Sb  Sb11  1  0.11003861  0.99528191  0.54841151  1
  Sb  Sb12  1  0.04045555  0.51177237  0.82766409  1
  Sb  Sb13  1  0.96776825  0.47600813  0.19447406  1
  Sb  Sb14  1  0.40103144  0.55950297  0.44785339  1
  Sb  Sb15  1  0.60522882  0.49849224  0.53372282  1
  Sb  Sb16  1  0.52488513  0.96118870  0.79543369  1
  Sb  Sb17  1  0.47303416  0.04514993  0.18106611  1
  S  S18  1  0.93822490  0.00376616  0.80134726  1
  S  S19  1  0.05645016  0.97304998  0.18962385  1
  S  S20  1  0.41472506  0.97625765  0.97945832  1
  S  S21  1  0.58254425  0.02290825  0.00962132  1
  S  S22  1  0.17313924  0.99507534  0.90585344  1
  S  S23  1  0.83398618  0.00396955  0.10149860  1
  S  S24  1  0.09643816  0.49911283  0.65392241  1
  S  S25  1  0.91187128  0.43520455  0.36453922  1
  S  S26  1  0.73279230  0.99000023  0.30445360  1
  S  S27  1  0.25815822  0.93866879  0.68161317  1
  S  S28  1  0.16450433  0.52137955  0.44469484  1
  S  S29  1  0.81296957  0.48054197  0.53973190  1
  S  S30  1  0.43436961  0.45580463  0.79552749  1
  S  S31  1  0.56058169  0.50259349  0.18226564  1
  S  S32  1  0.91086063  0.53438863  0.98554268  1
  S  S33  1  0.07849992  0.45354745  0.02430500  1
  S  S34  1  0.66192281  0.51655660  0.88894254  1
  S  S35  1  0.33643972  0.43548486  0.11797067  1
  S  S36  1  0.59418616  0.02024027  0.64111076  1
  S  S37  1  0.40154732  0.04432346  0.34241038  1
  S  S38  1  0.24040319  0.52735764  0.31952537  1
  S  S39  1  0.76230669  0.47844461  0.69015217  1
  S  S40  1  0.67262150  0.00020849  0.45260148  1
  S  S41  1  0.33506842  0.89855661  0.55154262  1
