# generated using pymatgen
data_Pr2Mn3(SbS3)4
_symmetry_space_group_name_H-M   'P 1'
_cell_length_a   20.02960800
_cell_length_b   3.90410600
_cell_length_c   14.95364829
_cell_angle_alpha   90.00000000
_cell_angle_beta   126.33350609
_cell_angle_gamma   90.00000000
_symmetry_Int_Tables_number   1
_chemical_formula_structural   Pr2Mn3(SbS3)4
_chemical_formula_sum   'Pr4 Mn6 Sb8 S24'
_cell_volume   942.00006694
_cell_formula_units_Z   2
loop_
 _symmetry_equiv_pos_site_id
 _symmetry_equiv_pos_as_xyz
  1  'x, y, z'
loop_
 _atom_site_type_symbol
 _atom_site_label
 _atom_site_symmetry_multiplicity
 _atom_site_fract_x
 _atom_site_fract_y
 _atom_site_fract_z
 _atom_site_occupancy
  Pr  Pr0  1  0.27077511  0.48982313  0.88213059  1
  Pr  Pr1  1  0.73040418  0.51968876  0.13245352  1
  Pr  Pr2  1  0.76430834  0.01703798  0.87352016  1
  Pr  Pr3  1  0.23435475  0.93388653  0.12912818  1
  Mn  Mn4  1  0.29678649  0.38868478  0.60326359  1
  Mn  Mn5  1  0.69670745  0.48763540  0.36874376  1
  Mn  Mn6  1  0.00633655  0.98428188  0.00834330  1
  Mn  Mn7  1  0.80086648  0.00214519  0.62782881  1
  Mn  Mn8  1  0.20832183  0.06627663  0.38973575  1
  Mn  Mn9  1  0.48671068  0.48345190  0.98695389  1
  Sb  Sb10  1  0.89165844  0.94883744  0.45881630  1
  Sb  Sb11  1  0.10999044  0.99584960  0.54823295  1
  Sb  Sb12  1  0.04049863  0.51182408  0.82770461  1
  Sb  Sb13  1  0.96755407  0.47597131  0.19452054  1
  Sb  Sb14  1  0.40107767  0.55998466  0.44786274  1
  Sb  Sb15  1  0.60517764  0.49881374  0.53379116  1
  Sb  Sb16  1  0.52491741  0.96089821  0.79536067  1
  Sb  Sb17  1  0.47312102  0.04478896  0.18117760  1
  S  S18  1  0.93819090  0.00358339  0.80110799  1
  S  S19  1  0.05651443  0.97334454  0.18944910  1
  S  S20  1  0.41459985  0.97557715  0.97939144  1
  S  S21  1  0.58221932  0.02189956  0.00934494  1
  S  S22  1  0.17326209  0.99522075  0.90618755  1
  S  S23  1  0.83397920  0.00388028  0.10152582  1
  S  S24  1  0.09671008  0.49958698  0.65391999  1
  S  S25  1  0.91149981  0.43571027  0.36420652  1
  S  S26  1  0.73262302  0.98944627  0.30410731  1
  S  S27  1  0.25800477  0.93839404  0.68149815  1
  S  S28  1  0.16431776  0.52238663  0.44433125  1
  S  S29  1  0.81303278  0.48038981  0.53991692  1
  S  S30  1  0.43426799  0.45650166  0.79539873  1
  S  S31  1  0.56056313  0.50382893  0.18233364  1
  S  S32  1  0.91097943  0.53483239  0.98535777  1
  S  S33  1  0.07859712  0.45356807  0.02426399  1
  S  S34  1  0.66159086  0.51604131  0.88880411  1
  S  S35  1  0.33617975  0.43525749  0.11772309  1
  S  S36  1  0.59441412  0.01958516  0.64099568  1
  S  S37  1  0.40118667  0.04497481  0.34184546  1
  S  S38  1  0.24055469  0.52770100  0.31957958  1
  S  S39  1  0.76213944  0.47922390  0.68978467  1
  S  S40  1  0.67242325  0.99934922  0.45250367  1
  S  S41  1  0.33503042  0.89936566  0.55125299  1
