# generated using pymatgen
data_Pr2Mn3(SbS3)4
_symmetry_space_group_name_H-M   'P 1'
_cell_length_a   20.02960800
_cell_length_b   3.90410600
_cell_length_c   14.95364829
_cell_angle_alpha   90.00000000
_cell_angle_beta   126.33350609
_cell_angle_gamma   90.00000000
_symmetry_Int_Tables_number   1
_chemical_formula_structural   Pr2Mn3(SbS3)4
_chemical_formula_sum   'Pr4 Mn6 Sb8 S24'
_cell_volume   942.00006694
_cell_formula_units_Z   2
loop_
 _symmetry_equiv_pos_site_id
 _symmetry_equiv_pos_as_xyz
  1  'x, y, z'
loop_
 _atom_site_type_symbol
 _atom_site_label
 _atom_site_symmetry_multiplicity
 _atom_site_fract_x
 _atom_site_fract_y
 _atom_site_fract_z
 _atom_site_occupancy
  Pr  Pr0  1  0.26479992  0.48169732  0.87003575  1
  Pr  Pr1  1  0.73686177  0.50786827  0.13499936  1
  Pr  Pr2  1  0.76180796  0.00917321  0.86133084  1
  Pr  Pr3  1  0.23736461  0.99853735  0.14038136  1
  Mn  Mn4  1  0.29694370  0.49930822  0.61434357  1
  Mn  Mn5  1  0.69614126  0.50981471  0.37991200  1
  Mn  Mn6  1  0.00192906  0.99733204  0.99879442  1
  Mn  Mn7  1  0.80341189  0.98808969  0.61592081  1
  Mn  Mn8  1  0.19810896  0.97445927  0.38025443  1
  Mn  Mn9  1  0.50216635  0.47822250  0.99411709  1
  Sb  Sb10  1  0.89333118  0.00388797  0.45498181  1
  Sb  Sb11  1  0.10943373  0.97613337  0.55112709  1
  Sb  Sb12  1  0.03945449  0.49153733  0.81609614  1
  Sb  Sb13  1  0.96197992  0.52364257  0.18748580  1
  Sb  Sb14  1  0.39702546  0.49593141  0.45744772  1
  Sb  Sb15  1  0.60721209  0.49756988  0.54944723  1
  Sb  Sb16  1  0.53728757  0.00694763  0.81610830  1
  Sb  Sb17  1  0.46246096  0.00186634  0.18107048  1
  S  S18  1  0.93584614  0.97789824  0.79739316  1
  S  S19  1  0.06370897  0.99656120  0.19293762  1
  S  S20  1  0.40936562  0.00194357  0.97819033  1
  S  S21  1  0.59232548  0.99110160  0.01818194  1
  S  S22  1  0.17187612  0.99354047  0.89737238  1
  S  S23  1  0.82804223  0.01879566  0.10257403  1
  S  S24  1  0.08537899  0.46896527  0.64322644  1
  S  S25  1  0.91474764  0.48580356  0.36153763  1
  S  S26  1  0.74244028  0.94288058  0.29497828  1
  S  S27  1  0.25806392  0.00384504  0.70324133  1
  S  S28  1  0.16374660  0.48912803  0.44515904  1
  S  S29  1  0.83041461  0.48339840  0.55020028  1
  S  S30  1  0.43505374  0.51307220  0.80214257  1
  S  S31  1  0.56114636  0.51975971  0.19154940  1
  S  S32  1  0.90214813  0.49080914  0.97644902  1
  S  S33  1  0.08734767  0.48878776  0.01776690  1
  S  S34  1  0.66414529  0.50717104  0.89371594  1
  S  S35  1  0.33062957  0.52575787  0.10105478  1
  S  S36  1  0.59047544  0.01040575  0.64859292  1
  S  S37  1  0.41259047  0.96669699  0.35608471  1
  S  S38  1  0.24321819  0.48843934  0.30174455  1
  S  S39  1  0.76060308  0.49704118  0.69634326  1
  S  S40  1  0.67197924  0.01674645  0.46391919  1
  S  S41  1  0.33066684  0.98606064  0.54300301  1
