# generated using pymatgen
data_Pr2Mn3(SbS3)4
_symmetry_space_group_name_H-M   'P 1'
_cell_length_a   20.02960800
_cell_length_b   3.90410600
_cell_length_c   14.95364829
_cell_angle_alpha   90.00000000
_cell_angle_beta   126.33350609
_cell_angle_gamma   90.00000000
_symmetry_Int_Tables_number   1
_chemical_formula_structural   Pr2Mn3(SbS3)4
_chemical_formula_sum   'Pr4 Mn6 Sb8 S24'
_cell_volume   942.00006694
_cell_formula_units_Z   2
loop_
 _symmetry_equiv_pos_site_id
 _symmetry_equiv_pos_as_xyz
  1  'x, y, z'
loop_
 _atom_site_type_symbol
 _atom_site_label
 _atom_site_symmetry_multiplicity
 _atom_site_fract_x
 _atom_site_fract_y
 _atom_site_fract_z
 _atom_site_occupancy
  Pr  Pr0  1  0.27079558  0.49023006  0.88220869  1
  Pr  Pr1  1  0.73044343  0.51927823  0.13254897  1
  Pr  Pr2  1  0.76444000  0.01748758  0.87358120  1
  Pr  Pr3  1  0.23429310  0.93346355  0.12904549  1
  Mn  Mn4  1  0.29672093  0.38877063  0.60308556  1
  Mn  Mn5  1  0.69678578  0.48749062  0.36873950  1
  Mn  Mn6  1  0.00645413  0.98409286  0.00870914  1
  Mn  Mn7  1  0.80090232  0.00129876  0.62802197  1
  Mn  Mn8  1  0.20838023  0.06710507  0.39007474  1
  Mn  Mn9  1  0.48662436  0.48332384  0.98685249  1
  Sb  Sb10  1  0.89166478  0.94830425  0.45901219  1
  Sb  Sb11  1  0.10989745  0.99633440  0.54807935  1
  Sb  Sb12  1  0.04051458  0.51196690  0.82775686  1
  Sb  Sb13  1  0.96738061  0.47584888  0.19459697  1
  Sb  Sb14  1  0.40113300  0.56059988  0.44784862  1
  Sb  Sb15  1  0.60511240  0.49927812  0.53383572  1
  Sb  Sb16  1  0.52495000  0.96047642  0.79528492  1
  Sb  Sb17  1  0.47322710  0.04422646  0.18127259  1
  S  S18  1  0.93815135  0.00340368  0.80087718  1
  S  S19  1  0.05661923  0.97362896  0.18918968  1
  S  S20  1  0.41461702  0.97448817  0.97951437  1
  S  S21  1  0.58191681  0.02091815  0.00907964  1
  S  S22  1  0.17326339  0.99550629  0.90646303  1
  S  S23  1  0.83397727  0.00362492  0.10145167  1
  S  S24  1  0.09700389  0.50002612  0.65398956  1
  S  S25  1  0.91118964  0.43625754  0.36400207  1
  S  S26  1  0.73242876  0.98876843  0.30370850  1
  S  S27  1  0.25785324  0.93785087  0.68120827  1
  S  S28  1  0.16403616  0.52333155  0.44382862  1
  S  S29  1  0.81304523  0.48006051  0.54010763  1
  S  S30  1  0.43419614  0.45731574  0.79534999  1
  S  S31  1  0.56050762  0.50522740  0.18249650  1
  S  S32  1  0.91115571  0.53516347  0.98514073  1
  S  S33  1  0.07874739  0.45333778  0.02434842  1
  S  S34  1  0.66122860  0.51568999  0.88866136  1
  S  S35  1  0.33594482  0.43497500  0.11743088  1
  S  S36  1  0.59463310  0.01882603  0.64089299  1
  S  S37  1  0.40084566  0.04588860  0.34134191  1
  S  S38  1  0.24069759  0.52777888  0.31963550  1
  S  S39  1  0.76205996  0.47999616  0.68955584  1
  S  S40  1  0.67227068  0.99881071  0.45240223  1
  S  S41  1  0.33503705  0.90031115  0.55088595  1
