# generated using pymatgen
data_Pr2Mn3(SbS3)4
_symmetry_space_group_name_H-M   'P 1'
_cell_length_a   20.02960800
_cell_length_b   3.90410600
_cell_length_c   14.95364829
_cell_angle_alpha   90.00000000
_cell_angle_beta   126.33350609
_cell_angle_gamma   90.00000000
_symmetry_Int_Tables_number   1
_chemical_formula_structural   Pr2Mn3(SbS3)4
_chemical_formula_sum   'Pr4 Mn6 Sb8 S24'
_cell_volume   942.00006694
_cell_formula_units_Z   2
loop_
 _symmetry_equiv_pos_site_id
 _symmetry_equiv_pos_as_xyz
  1  'x, y, z'
loop_
 _atom_site_type_symbol
 _atom_site_label
 _atom_site_symmetry_multiplicity
 _atom_site_fract_x
 _atom_site_fract_y
 _atom_site_fract_z
 _atom_site_occupancy
  Pr  Pr0  1  0.27083062  0.49049050  0.88228715  1
  Pr  Pr1  1  0.73057053  0.51909743  0.13277866  1
  Pr  Pr2  1  0.76455839  0.01813379  0.87361812  1
  Pr  Pr3  1  0.23422318  0.93292153  0.12894877  1
  Mn  Mn4  1  0.29662289  0.38881477  0.60294330  1
  Mn  Mn5  1  0.69683582  0.48746639  0.36862330  1
  Mn  Mn6  1  0.00662572  0.98382976  0.00905916  1
  Mn  Mn7  1  0.80095290  0.00067668  0.62814213  1
  Mn  Mn8  1  0.20856274  0.06823833  0.39042126  1
  Mn  Mn9  1  0.48664619  0.48286048  0.98689267  1
  Sb  Sb10  1  0.89161875  0.94762511  0.45917992  1
  Sb  Sb11  1  0.10987259  0.99667260  0.54799564  1
  Sb  Sb12  1  0.04049211  0.51218565  0.82779817  1
  Sb  Sb13  1  0.96721790  0.47576051  0.19473018  1
  Sb  Sb14  1  0.40118583  0.56104554  0.44781122  1
  Sb  Sb15  1  0.60504975  0.49964351  0.53390465  1
  Sb  Sb16  1  0.52498576  0.96002345  0.79516970  1
  Sb  Sb17  1  0.47334039  0.04382487  0.18139563  1
  S  S18  1  0.93805009  0.00296536  0.80066155  1
  S  S19  1  0.05670519  0.97441968  0.18892491  1
  S  S20  1  0.41462606  0.97321802  0.97951234  1
  S  S21  1  0.58154766  0.02025111  0.00871914  1
  S  S22  1  0.17323965  0.99632736  0.90669218  1
  S  S23  1  0.83406192  0.00343631  0.10148391  1
  S  S24  1  0.09720548  0.50034648  0.65397676  1
  S  S25  1  0.91082103  0.43716653  0.36380483  1
  S  S26  1  0.73236812  0.98750088  0.30343910  1
  S  S27  1  0.25774557  0.93725059  0.68103978  1
  S  S28  1  0.16368865  0.52404142  0.44324560  1
  S  S29  1  0.81313981  0.47971826  0.54039233  1
  S  S30  1  0.43421283  0.45792827  0.79530168  1
  S  S31  1  0.56039238  0.50647010  0.18251717  1
  S  S32  1  0.91129511  0.53560466  0.98505852  1
  S  S33  1  0.07884108  0.45319352  0.02427801  1
  S  S34  1  0.66105735  0.51516414  0.88869741  1
  S  S35  1  0.33573836  0.43488217  0.11722282  1
  S  S36  1  0.59481188  0.01816692  0.64071192  1
  S  S37  1  0.40048584  0.04642473  0.34082551  1
  S  S38  1  0.24078808  0.52800208  0.31962952  1
  S  S39  1  0.76200857  0.48021823  0.68925105  1
  S  S40  1  0.67235122  0.99762340  0.45244332  1
  S  S41  1  0.33497430  0.90116461  0.55051191  1
