# generated using pymatgen
data_Pr2Mn3(SbS3)4
_symmetry_space_group_name_H-M   'P 1'
_cell_length_a   20.02960800
_cell_length_b   3.90410600
_cell_length_c   14.95364829
_cell_angle_alpha   90.00000000
_cell_angle_beta   126.33350609
_cell_angle_gamma   90.00000000
_symmetry_Int_Tables_number   1
_chemical_formula_structural   Pr2Mn3(SbS3)4
_chemical_formula_sum   'Pr4 Mn6 Sb8 S24'
_cell_volume   942.00006694
_cell_formula_units_Z   2
loop_
 _symmetry_equiv_pos_site_id
 _symmetry_equiv_pos_as_xyz
  1  'x, y, z'
loop_
 _atom_site_type_symbol
 _atom_site_label
 _atom_site_symmetry_multiplicity
 _atom_site_fract_x
 _atom_site_fract_y
 _atom_site_fract_z
 _atom_site_occupancy
  Pr  Pr0  1  0.27088601  0.49067413  0.88242270  1
  Pr  Pr1  1  0.73064130  0.51869890  0.13297966  1
  Pr  Pr2  1  0.76466949  0.01870771  0.87361723  1
  Pr  Pr3  1  0.23414323  0.93252883  0.12884323  1
  Mn  Mn4  1  0.29653434  0.38917257  0.60273581  1
  Mn  Mn5  1  0.69692784  0.48707202  0.36851428  1
  Mn  Mn6  1  0.00677323  0.98337418  0.00935356  1
  Mn  Mn7  1  0.80102112  0.00031886  0.62829803  1
  Mn  Mn8  1  0.20874193  0.06935410  0.39074102  1
  Mn  Mn9  1  0.48674264  0.48233001  0.98705013  1
  Sb  Sb10  1  0.89153166  0.94712517  0.45929067  1
  Sb  Sb11  1  0.10984524  0.99676872  0.54787418  1
  Sb  Sb12  1  0.04044776  0.51251007  0.82790540  1
  Sb  Sb13  1  0.96704641  0.47552985  0.19484105  1
  Sb  Sb14  1  0.40127930  0.56148451  0.44775254  1
  Sb  Sb15  1  0.60498709  0.49990921  0.53396771  1
  Sb  Sb16  1  0.52501872  0.95967952  0.79500779  1
  Sb  Sb17  1  0.47349818  0.04349293  0.18150843  1
  S  S18  1  0.93789845  0.00283789  0.80041501  1
  S  S19  1  0.05679626  0.97550937  0.18875008  1
  S  S20  1  0.41454002  0.97189303  0.97939139  1
  S  S21  1  0.58116311  0.01977727  0.00831428  1
  S  S22  1  0.17319016  0.99716725  0.90683008  1
  S  S23  1  0.83408356  0.00354717  0.10140976  1
  S  S24  1  0.09739357  0.50063651  0.65400467  1
  S  S25  1  0.91055423  0.43793464  0.36355812  1
  S  S26  1  0.73236393  0.98596424  0.30315780  1
  S  S27  1  0.25757584  0.93649166  0.68078695  1
  S  S28  1  0.16320775  0.52494761  0.44254998  1
  S  S29  1  0.81322565  0.47858837  0.54091629  1
  S  S30  1  0.43428767  0.45890236  0.79530424  1
  S  S31  1  0.56034196  0.50762785  0.18258685  1
  S  S32  1  0.91136247  0.53579569  0.98496848  1
  S  S33  1  0.07901178  0.45314649  0.02430977  1
  S  S34  1  0.66101098  0.51444427  0.88880685  1
  S  S35  1  0.33549013  0.43470630  0.11711217  1
  S  S36  1  0.59509326  0.01740989  0.64054293  1
  S  S37  1  0.40027608  0.04725908  0.34030680  1
  S  S38  1  0.24084093  0.52832561  0.31974087  1
  S  S39  1  0.76184751  0.48015801  0.68880694  1
  S  S40  1  0.67246204  0.99655379  0.45263422  1
  S  S41  1  0.33487927  0.90173858  0.55017238  1
