# generated using pymatgen
data_Pr2Mn3(SbS3)4
_symmetry_space_group_name_H-M   'P 1'
_cell_length_a   20.02960800
_cell_length_b   3.90410600
_cell_length_c   14.95364829
_cell_angle_alpha   90.00000000
_cell_angle_beta   126.33350609
_cell_angle_gamma   90.00000000
_symmetry_Int_Tables_number   1
_chemical_formula_structural   Pr2Mn3(SbS3)4
_chemical_formula_sum   'Pr4 Mn6 Sb8 S24'
_cell_volume   942.00006694
_cell_formula_units_Z   2
loop_
 _symmetry_equiv_pos_site_id
 _symmetry_equiv_pos_as_xyz
  1  'x, y, z'
loop_
 _atom_site_type_symbol
 _atom_site_label
 _atom_site_symmetry_multiplicity
 _atom_site_fract_x
 _atom_site_fract_y
 _atom_site_fract_z
 _atom_site_occupancy
  Pr  Pr0  1  0.27089300  0.49099812  0.88253078  1
  Pr  Pr1  1  0.73076975  0.51807631  0.13322125  1
  Pr  Pr2  1  0.76478783  0.01894825  0.87369463  1
  Pr  Pr3  1  0.23406949  0.93214517  0.12872146  1
  Mn  Mn4  1  0.29642073  0.38964326  0.60261388  1
  Mn  Mn5  1  0.69704904  0.48684367  0.36846420  1
  Mn  Mn6  1  0.00691911  0.98259084  0.00970546  1
  Mn  Mn7  1  0.80099949  0.99988235  0.62832968  1
  Mn  Mn8  1  0.20884527  0.07023541  0.39097138  1
  Mn  Mn9  1  0.48685597  0.48163287  0.98725978  1
  Sb  Sb10  1  0.89145039  0.94655417  0.45936750  1
  Sb  Sb11  1  0.10986406  0.99669704  0.54778396  1
  Sb  Sb12  1  0.04042682  0.51291788  0.82800000  1
  Sb  Sb13  1  0.96687679  0.47556585  0.19500573  1
  Sb  Sb14  1  0.40129968  0.56196491  0.44768603  1
  Sb  Sb15  1  0.60492995  0.50018231  0.53407061  1
  Sb  Sb16  1  0.52509040  0.95941984  0.79484175  1
  Sb  Sb17  1  0.47356625  0.04317322  0.18148916  1
  S  S18  1  0.93775938  0.00224421  0.80007070  1
  S  S19  1  0.05684538  0.97620246  0.18854811  1
  S  S20  1  0.41443729  0.97068848  0.97930168  1
  S  S21  1  0.58080795  0.01926027  0.00788466  1
  S  S22  1  0.17323595  0.99787430  0.90712833  1
  S  S23  1  0.83398674  0.00382780  0.10112711  1
  S  S24  1  0.09753481  0.50122882  0.65393999  1
  S  S25  1  0.91050316  0.43872627  0.36346626  1
  S  S26  1  0.73242213  0.98491824  0.30301668  1
  S  S27  1  0.25735242  0.93600566  0.68039980  1
  S  S28  1  0.16264972  0.52539738  0.44174007  1
  S  S29  1  0.81331553  0.47755307  0.54141234  1
  S  S30  1  0.43434341  0.46010979  0.79534894  1
  S  S31  1  0.56028158  0.50908189  0.18271519  1
  S  S32  1  0.91147234  0.53560812  0.98501635  1
  S  S33  1  0.07914960  0.45284173  0.02441209  1
  S  S34  1  0.66097382  0.51371416  0.88891932  1
  S  S35  1  0.33515569  0.43474042  0.11692109  1
  S  S36  1  0.59531024  0.01677908  0.64047253  1
  S  S37  1  0.40009472  0.04838560  0.33977087  1
  S  S38  1  0.24087831  0.52827454  0.31983720  1
  S  S39  1  0.76173968  0.48030590  0.68856233  1
  S  S40  1  0.67255180  0.99556760  0.45280047  1
  S  S41  1  0.33463884  0.90237425  0.54965810  1
