# generated using pymatgen
data_Pr2Mn3(SbS3)4
_symmetry_space_group_name_H-M   'P 1'
_cell_length_a   20.02960800
_cell_length_b   3.90410600
_cell_length_c   14.95364829
_cell_angle_alpha   90.00000000
_cell_angle_beta   126.33350609
_cell_angle_gamma   90.00000000
_symmetry_Int_Tables_number   1
_chemical_formula_structural   Pr2Mn3(SbS3)4
_chemical_formula_sum   'Pr4 Mn6 Sb8 S24'
_cell_volume   942.00006694
_cell_formula_units_Z   2
loop_
 _symmetry_equiv_pos_site_id
 _symmetry_equiv_pos_as_xyz
  1  'x, y, z'
loop_
 _atom_site_type_symbol
 _atom_site_label
 _atom_site_symmetry_multiplicity
 _atom_site_fract_x
 _atom_site_fract_y
 _atom_site_fract_z
 _atom_site_occupancy
  Pr  Pr0  1  0.27089576  0.49128634  0.88261638  1
  Pr  Pr1  1  0.73088287  0.51759798  0.13345104  1
  Pr  Pr2  1  0.76484852  0.01915769  0.87366191  1
  Pr  Pr3  1  0.23399119  0.93191418  0.12862280  1
  Mn  Mn4  1  0.29630403  0.38994454  0.60238559  1
  Mn  Mn5  1  0.69709052  0.48659790  0.36834384  1
  Mn  Mn6  1  0.00707612  0.98204040  0.01005214  1
  Mn  Mn7  1  0.80096657  0.99949011  0.62845759  1
  Mn  Mn8  1  0.20890929  0.07077567  0.39107633  1
  Mn  Mn9  1  0.48695310  0.48104129  0.98741032  1
  Sb  Sb10  1  0.89137653  0.94628905  0.45948913  1
  Sb  Sb11  1  0.10990631  0.99630670  0.54770875  1
  Sb  Sb12  1  0.04045700  0.51330249  0.82811664  1
  Sb  Sb13  1  0.96671740  0.47571121  0.19518670  1
  Sb  Sb14  1  0.40130809  0.56231727  0.44762707  1
  Sb  Sb15  1  0.60483727  0.50069289  0.53415283  1
  Sb  Sb16  1  0.52517165  0.95923109  0.79460446  1
  Sb  Sb17  1  0.47359800  0.04262377  0.18146885  1
  S  S18  1  0.93764189  0.00187364  0.79977777  1
  S  S19  1  0.05687669  0.97701406  0.18826606  1
  S  S20  1  0.41433287  0.96959808  0.97921635  1
  S  S21  1  0.58046457  0.01935217  0.00745810  1
  S  S22  1  0.17332858  0.99877507  0.90756220  1
  S  S23  1  0.83385774  0.00401466  0.10090644  1
  S  S24  1  0.09764514  0.50175960  0.65378995  1
  S  S25  1  0.91048450  0.43941466  0.36334909  1
  S  S26  1  0.73252504  0.98375597  0.30298627  1
  S  S27  1  0.25719312  0.93548993  0.68002225  1
  S  S28  1  0.16197872  0.52590341  0.44089502  1
  S  S29  1  0.81342124  0.47661829  0.54198985  1
  S  S30  1  0.43449977  0.46120442  0.79540198  1
  S  S31  1  0.56025072  0.51041920  0.18285256  1
  S  S32  1  0.91149642  0.53570307  0.98500428  1
  S  S33  1  0.07923896  0.45234017  0.02430824  1
  S  S34  1  0.66099352  0.51254011  0.88902176  1
  S  S35  1  0.33492480  0.43473336  0.11671526  1
  S  S36  1  0.59547824  0.01623163  0.64041305  1
  S  S37  1  0.39987521  0.04958510  0.33906777  1
  S  S38  1  0.24089675  0.52829901  0.31994173  1
  S  S39  1  0.76163866  0.48013330  0.68828089  1
  S  S40  1  0.67273536  0.99455090  0.45306210  1
  S  S41  1  0.33446155  0.90293994  0.54927663  1
