# generated using pymatgen
data_Pr2Mn3(SbS3)4
_symmetry_space_group_name_H-M   'P 1'
_cell_length_a   20.02960800
_cell_length_b   3.90410600
_cell_length_c   14.95364829
_cell_angle_alpha   90.00000000
_cell_angle_beta   126.33350609
_cell_angle_gamma   90.00000000
_symmetry_Int_Tables_number   1
_chemical_formula_structural   Pr2Mn3(SbS3)4
_chemical_formula_sum   'Pr4 Mn6 Sb8 S24'
_cell_volume   942.00006694
_cell_formula_units_Z   2
loop_
 _symmetry_equiv_pos_site_id
 _symmetry_equiv_pos_as_xyz
  1  'x, y, z'
loop_
 _atom_site_type_symbol
 _atom_site_label
 _atom_site_symmetry_multiplicity
 _atom_site_fract_x
 _atom_site_fract_y
 _atom_site_fract_z
 _atom_site_occupancy
  Pr  Pr0  1  0.27086235  0.49138863  0.88264688  1
  Pr  Pr1  1  0.73095893  0.51731252  0.13371776  1
  Pr  Pr2  1  0.76491740  0.01922284  0.87368543  1
  Pr  Pr3  1  0.23392739  0.93148547  0.12856688  1
  Mn  Mn4  1  0.29624386  0.39053699  0.60219021  1
  Mn  Mn5  1  0.69701465  0.48596991  0.36810651  1
  Mn  Mn6  1  0.00724200  0.98137587  0.01034376  1
  Mn  Mn7  1  0.80094904  0.99911457  0.62848008  1
  Mn  Mn8  1  0.20896811  0.07129281  0.39115276  1
  Mn  Mn9  1  0.48704154  0.48043627  0.98748317  1
  Sb  Sb10  1  0.89127207  0.94606123  0.45950963  1
  Sb  Sb11  1  0.10993989  0.99606016  0.54765425  1
  Sb  Sb12  1  0.04045908  0.51381598  0.82818120  1
  Sb  Sb13  1  0.96652727  0.47558282  0.19525067  1
  Sb  Sb14  1  0.40140095  0.56273475  0.44760452  1
  Sb  Sb15  1  0.60480078  0.50106235  0.53430530  1
  Sb  Sb16  1  0.52523782  0.95885445  0.79445959  1
  Sb  Sb17  1  0.47361931  0.04197497  0.18149400  1
  S  S18  1  0.93754749  0.00186897  0.79938914  1
  S  S19  1  0.05685245  0.97795536  0.18794851  1
  S  S20  1  0.41431961  0.96895267  0.97917739  1
  S  S21  1  0.58012757  0.01919884  0.00694908  1
  S  S22  1  0.17351910  0.99982684  0.90774666  1
  S  S23  1  0.83370523  0.00440911  0.10066615  1
  S  S24  1  0.09780899  0.50180718  0.65361956  1
  S  S25  1  0.91041258  0.44019782  0.36332781  1
  S  S26  1  0.73259930  0.98332917  0.30283302  1
  S  S27  1  0.25707422  0.93485872  0.67961398  1
  S  S28  1  0.16146071  0.52630761  0.44032122  1
  S  S29  1  0.81342396  0.47559893  0.54240441  1
  S  S30  1  0.43457922  0.46227433  0.79532430  1
  S  S31  1  0.56017968  0.51171731  0.18299724  1
  S  S32  1  0.91146669  0.53588915  0.98480793  1
  S  S33  1  0.07939815  0.45197407  0.02436627  1
  S  S34  1  0.66090798  0.51130972  0.88903993  1
  S  S35  1  0.33462599  0.43453926  0.11642723  1
  S  S36  1  0.59572153  0.01566063  0.64048281  1
  S  S37  1  0.39973296  0.05083477  0.33838708  1
  S  S38  1  0.24084675  0.52842988  0.31995507  1
  S  S39  1  0.76158936  0.48031563  0.68800105  1
  S  S40  1  0.67293813  0.99294106  0.45345839  1
  S  S41  1  0.33442536  0.90382822  0.54879908  1
