# generated using pymatgen
data_Pr2Mn3(SbS3)4
_symmetry_space_group_name_H-M   'P 1'
_cell_length_a   20.02960800
_cell_length_b   3.90410600
_cell_length_c   14.95364829
_cell_angle_alpha   90.00000000
_cell_angle_beta   126.33350609
_cell_angle_gamma   90.00000000
_symmetry_Int_Tables_number   1
_chemical_formula_structural   Pr2Mn3(SbS3)4
_chemical_formula_sum   'Pr4 Mn6 Sb8 S24'
_cell_volume   942.00006694
_cell_formula_units_Z   2
loop_
 _symmetry_equiv_pos_site_id
 _symmetry_equiv_pos_as_xyz
  1  'x, y, z'
loop_
 _atom_site_type_symbol
 _atom_site_label
 _atom_site_symmetry_multiplicity
 _atom_site_fract_x
 _atom_site_fract_y
 _atom_site_fract_z
 _atom_site_occupancy
  Pr  Pr0  1  0.27081019  0.49136419  0.88270560  1
  Pr  Pr1  1  0.73099018  0.51685639  0.13387790  1
  Pr  Pr2  1  0.76494421  0.01927107  0.87370504  1
  Pr  Pr3  1  0.23383369  0.93100502  0.12847964  1
  Mn  Mn4  1  0.29612859  0.39112404  0.60196612  1
  Mn  Mn5  1  0.69695295  0.48527107  0.36788215  1
  Mn  Mn6  1  0.00736072  0.98082404  0.01066974  1
  Mn  Mn7  1  0.80085953  0.99858718  0.62835854  1
  Mn  Mn8  1  0.20892767  0.07136502  0.39102584  1
  Mn  Mn9  1  0.48714238  0.48016784  0.98758558  1
  Sb  Sb10  1  0.89122356  0.94563101  0.45962195  1
  Sb  Sb11  1  0.11002279  0.99578693  0.54756369  1
  Sb  Sb12  1  0.04046320  0.51434784  0.82829329  1
  Sb  Sb13  1  0.96637407  0.47559954  0.19537076  1
  Sb  Sb14  1  0.40148918  0.56314828  0.44757753  1
  Sb  Sb15  1  0.60481753  0.50143046  0.53449210  1
  Sb  Sb16  1  0.52533719  0.95870713  0.79441645  1
  Sb  Sb17  1  0.47356409  0.04143420  0.18149970  1
  S  S18  1  0.93740443  0.00190545  0.79902907  1
  S  S19  1  0.05689822  0.97865099  0.18769696  1
  S  S20  1  0.41425391  0.96852140  0.97918913  1
  S  S21  1  0.57989390  0.01895503  0.00652723  1
  S  S22  1  0.17356853  0.00022806  0.90772646  1
  S  S23  1  0.83366354  0.00507837  0.10053345  1
  S  S24  1  0.09784073  0.50194192  0.65339475  1
  S  S25  1  0.91022003  0.44079735  0.36313604  1
  S  S26  1  0.73266268  0.98279281  0.30270338  1
  S  S27  1  0.25692455  0.93432225  0.67934908  1
  S  S28  1  0.16090175  0.52662443  0.43979663  1
  S  S29  1  0.81354375  0.47481300  0.54291008  1
  S  S30  1  0.43470559  0.46355280  0.79528778  1
  S  S31  1  0.56022903  0.51274919  0.18307859  1
  S  S32  1  0.91131267  0.53587281  0.98457890  1
  S  S33  1  0.07950812  0.45177387  0.02440893  1
  S  S34  1  0.66101444  0.51027973  0.88935759  1
  S  S35  1  0.33443397  0.43433608  0.11628779  1
  S  S36  1  0.59608077  0.01471038  0.64073118  1
  S  S37  1  0.39972036  0.05173093  0.33794647  1
  S  S38  1  0.24084538  0.52844156  0.31996267  1
  S  S39  1  0.76141827  0.48106735  0.68760967  1
  S  S40  1  0.67312615  0.99154780  0.45380777  1
  S  S41  1  0.33431259  0.90465204  0.54821877  1
