# generated using pymatgen
data_Pr2Mn3(SbS3)4
_symmetry_space_group_name_H-M   'P 1'
_cell_length_a   20.02960800
_cell_length_b   3.90410600
_cell_length_c   14.95364829
_cell_angle_alpha   90.00000000
_cell_angle_beta   126.33350609
_cell_angle_gamma   90.00000000
_symmetry_Int_Tables_number   1
_chemical_formula_structural   Pr2Mn3(SbS3)4
_chemical_formula_sum   'Pr4 Mn6 Sb8 S24'
_cell_volume   942.00006694
_cell_formula_units_Z   2
loop_
 _symmetry_equiv_pos_site_id
 _symmetry_equiv_pos_as_xyz
  1  'x, y, z'
loop_
 _atom_site_type_symbol
 _atom_site_label
 _atom_site_symmetry_multiplicity
 _atom_site_fract_x
 _atom_site_fract_y
 _atom_site_fract_z
 _atom_site_occupancy
  Pr  Pr0  1  0.27076317  0.49132601  0.88279483  1
  Pr  Pr1  1  0.73104123  0.51647235  0.13404713  1
  Pr  Pr2  1  0.76489515  0.01945086  0.87358704  1
  Pr  Pr3  1  0.23374348  0.93063083  0.12836833  1
  Mn  Mn4  1  0.29596378  0.39176415  0.60187975  1
  Mn  Mn5  1  0.69684376  0.48464751  0.36750044  1
  Mn  Mn6  1  0.00757061  0.98062985  0.01112126  1
  Mn  Mn7  1  0.80082212  0.99793140  0.62832732  1
  Mn  Mn8  1  0.20884148  0.07126892  0.39075827  1
  Mn  Mn9  1  0.48723862  0.47989639  0.98770221  1
  Sb  Sb10  1  0.89126018  0.94513631  0.45985624  1
  Sb  Sb11  1  0.11006307  0.99540712  0.54741631  1
  Sb  Sb12  1  0.04042137  0.51483604  0.82831110  1
  Sb  Sb13  1  0.96623813  0.47545825  0.19555325  1
  Sb  Sb14  1  0.40158041  0.56333566  0.44757595  1
  Sb  Sb15  1  0.60479011  0.50162460  0.53457824  1
  Sb  Sb16  1  0.52540912  0.95850637  0.79439620  1
  Sb  Sb17  1  0.47350140  0.04100358  0.18148303  1
  S  S18  1  0.93732458  0.00210748  0.79872599  1
  S  S19  1  0.05689087  0.97928896  0.18749847  1
  S  S20  1  0.41422475  0.96843077  0.97922165  1
  S  S21  1  0.57970211  0.01860607  0.00618752  1
  S  S22  1  0.17363282  0.00058274  0.90785467  1
  S  S23  1  0.83363601  0.00560666  0.10060458  1
  S  S24  1  0.09777725  0.50158165  0.65292038  1
  S  S25  1  0.91012878  0.44109348  0.36292219  1
  S  S26  1  0.73265960  0.98217929  0.30252709  1
  S  S27  1  0.25680307  0.93371882  0.67920111  1
  S  S28  1  0.16038923  0.52680649  0.43909050  1
  S  S29  1  0.81371292  0.47393478  0.54332083  1
  S  S30  1  0.43491679  0.46456394  0.79530478  1
  S  S31  1  0.56026491  0.51396111  0.18323344  1
  S  S32  1  0.91120303  0.53586164  0.98430183  1
  S  S33  1  0.07959508  0.45157672  0.02450073  1
  S  S34  1  0.66123434  0.50974119  0.88980588  1
  S  S35  1  0.33418071  0.43366379  0.11599903  1
  S  S36  1  0.59635081  0.01381684  0.64096317  1
  S  S37  1  0.39974741  0.05294207  0.33757032  1
  S  S38  1  0.24086278  0.52882340  0.31988596  1
  S  S39  1  0.76130510  0.48161540  0.68740400  1
  S  S40  1  0.67342611  0.99028249  0.45431326  1
  S  S41  1  0.33421383  0.90566190  0.54761685  1
