# generated using pymatgen
data_Pr2Mn3(SbS3)4
_symmetry_space_group_name_H-M   'P 1'
_cell_length_a   20.02960800
_cell_length_b   3.90410600
_cell_length_c   14.95364829
_cell_angle_alpha   90.00000000
_cell_angle_beta   126.33350609
_cell_angle_gamma   90.00000000
_symmetry_Int_Tables_number   1
_chemical_formula_structural   Pr2Mn3(SbS3)4
_chemical_formula_sum   'Pr4 Mn6 Sb8 S24'
_cell_volume   942.00006694
_cell_formula_units_Z   2
loop_
 _symmetry_equiv_pos_site_id
 _symmetry_equiv_pos_as_xyz
  1  'x, y, z'
loop_
 _atom_site_type_symbol
 _atom_site_label
 _atom_site_symmetry_multiplicity
 _atom_site_fract_x
 _atom_site_fract_y
 _atom_site_fract_z
 _atom_site_occupancy
  Pr  Pr0  1  0.27073686  0.49107338  0.88288813  1
  Pr  Pr1  1  0.73103072  0.51621805  0.13419523  1
  Pr  Pr2  1  0.76485143  0.01970929  0.87347881  1
  Pr  Pr3  1  0.23368670  0.93018422  0.12830549  1
  Mn  Mn4  1  0.29576564  0.39218280  0.60169513  1
  Mn  Mn5  1  0.69681056  0.48414752  0.36731116  1
  Mn  Mn6  1  0.00778285  0.98065432  0.01154494  1
  Mn  Mn7  1  0.80076785  0.99744331  0.62830361  1
  Mn  Mn8  1  0.20887955  0.07114343  0.39056608  1
  Mn  Mn9  1  0.48736037  0.47969674  0.98771583  1
  Sb  Sb10  1  0.89131056  0.94446997  0.46014357  1
  Sb  Sb11  1  0.11010704  0.99497804  0.54723358  1
  Sb  Sb12  1  0.04040567  0.51500222  0.82831037  1
  Sb  Sb13  1  0.96615880  0.47523071  0.19574199  1
  Sb  Sb14  1  0.40176051  0.56361615  0.44763754  1
  Sb  Sb15  1  0.60476457  0.50153874  0.53460714  1
  Sb  Sb16  1  0.52545069  0.95840958  0.79434758  1
  Sb  Sb17  1  0.47343043  0.04042732  0.18142619  1
  S  S18  1  0.93735453  0.00247019  0.79848742  1
  S  S19  1  0.05681993  0.97979561  0.18713455  1
  S  S20  1  0.41419231  0.96743347  0.97921343  1
  S  S21  1  0.57949436  0.01825016  0.00591369  1
  S  S22  1  0.17366933  0.00124011  0.90789199  1
  S  S23  1  0.83356385  0.00651346  0.10068805  1
  S  S24  1  0.09767246  0.50179892  0.65242161  1
  S  S25  1  0.90996847  0.44139404  0.36258542  1
  S  S26  1  0.73264913  0.98141757  0.30237521  1
  S  S27  1  0.25657146  0.93333002  0.67887128  1
  S  S28  1  0.15996128  0.52730912  0.43849357  1
  S  S29  1  0.81374109  0.47273453  0.54357678  1
  S  S30  1  0.43503251  0.46504781  0.79524394  1
  S  S31  1  0.56031549  0.51540493  0.18333860  1
  S  S32  1  0.91110487  0.53587085  0.98398582  1
  S  S33  1  0.07978482  0.45142631  0.02469076  1
  S  S34  1  0.66150014  0.50922308  0.89029576  1
  S  S35  1  0.33397620  0.43272040  0.11594130  1
  S  S36  1  0.59643301  0.01352215  0.64088187  1
  S  S37  1  0.39981304  0.05416517  0.33729085  1
  S  S38  1  0.24088588  0.52917313  0.31981308  1
  S  S39  1  0.76122370  0.48200486  0.68732920  1
  S  S40  1  0.67363517  0.98949677  0.45480359  1
  S  S41  1  0.33407039  0.90683812  0.54713045  1
