# generated using pymatgen
data_Pr2Mn3(SbS3)4
_symmetry_space_group_name_H-M   'P 1'
_cell_length_a   20.02960800
_cell_length_b   3.90410600
_cell_length_c   14.95364829
_cell_angle_alpha   90.00000000
_cell_angle_beta   126.33350609
_cell_angle_gamma   90.00000000
_symmetry_Int_Tables_number   1
_chemical_formula_structural   Pr2Mn3(SbS3)4
_chemical_formula_sum   'Pr4 Mn6 Sb8 S24'
_cell_volume   942.00006694
_cell_formula_units_Z   2
loop_
 _symmetry_equiv_pos_site_id
 _symmetry_equiv_pos_as_xyz
  1  'x, y, z'
loop_
 _atom_site_type_symbol
 _atom_site_label
 _atom_site_symmetry_multiplicity
 _atom_site_fract_x
 _atom_site_fract_y
 _atom_site_fract_z
 _atom_site_occupancy
  Pr  Pr0  1  0.27071923  0.49069180  0.88298497  1
  Pr  Pr1  1  0.73102554  0.51601199  0.13434550  1
  Pr  Pr2  1  0.76480949  0.02017079  0.87338795  1
  Pr  Pr3  1  0.23360008  0.93005199  0.12824152  1
  Mn  Mn4  1  0.29561891  0.39247591  0.60156973  1
  Mn  Mn5  1  0.69672810  0.48433321  0.36704579  1
  Mn  Mn6  1  0.00798352  0.98073595  0.01193518  1
  Mn  Mn7  1  0.80072331  0.99657018  0.62826052  1
  Mn  Mn8  1  0.20895601  0.07108000  0.39045282  1
  Mn  Mn9  1  0.48750263  0.47951258  0.98773825  1
  Sb  Sb10  1  0.89130765  0.94380977  0.46035594  1
  Sb  Sb11  1  0.11025505  0.99430946  0.54715802  1
  Sb  Sb12  1  0.04033573  0.51526541  0.82826666  1
  Sb  Sb13  1  0.96607177  0.47502474  0.19588531  1
  Sb  Sb14  1  0.40193354  0.56388519  0.44771521  1
  Sb  Sb15  1  0.60478181  0.50148288  0.53477201  1
  Sb  Sb16  1  0.52549721  0.95808395  0.79430354  1
  Sb  Sb17  1  0.47336764  0.03966443  0.18134080  1
  S  S18  1  0.93748436  0.00258577  0.79844341  1
  S  S19  1  0.05674956  0.98028835  0.18669515  1
  S  S20  1  0.41417040  0.96615515  0.97933489  1
  S  S21  1  0.57933294  0.01787259  0.00560947  1
  S  S22  1  0.17374745  0.00173656  0.90806656  1
  S  S23  1  0.83352488  0.00729118  0.10067596  1
  S  S24  1  0.09778525  0.50205615  0.65213052  1
  S  S25  1  0.90984438  0.44198415  0.36225094  1
  S  S26  1  0.73270257  0.98022152  0.30235801  1
  S  S27  1  0.25624105  0.93286585  0.67859028  1
  S  S28  1  0.15948049  0.52723109  0.43790060  1
  S  S29  1  0.81373938  0.47193474  0.54372162  1
  S  S30  1  0.43515571  0.46518393  0.79525506  1
  S  S31  1  0.56030791  0.51648173  0.18333076  1
  S  S32  1  0.91098320  0.53574333  0.98355669  1
  S  S33  1  0.07991941  0.45141897  0.02484588  1
  S  S34  1  0.66174760  0.50903818  0.89090563  1
  S  S35  1  0.33382972  0.43213823  0.11600511  1
  S  S36  1  0.59644598  0.01337354  0.64071566  1
  S  S37  1  0.39987084  0.05512332  0.33709717  1
  S  S38  1  0.24089693  0.52949454  0.31979342  1
  S  S39  1  0.76111710  0.48248884  0.68712343  1
  S  S40  1  0.67375219  0.98817674  0.45518979  1
  S  S41  1  0.33393684  0.90791113  0.54666909  1
