# generated using pymatgen
data_Pr2Mn3(SbS3)4
_symmetry_space_group_name_H-M   'P 1'
_cell_length_a   20.02960800
_cell_length_b   3.90410600
_cell_length_c   14.95364829
_cell_angle_alpha   90.00000000
_cell_angle_beta   126.33350609
_cell_angle_gamma   90.00000000
_symmetry_Int_Tables_number   1
_chemical_formula_structural   Pr2Mn3(SbS3)4
_chemical_formula_sum   'Pr4 Mn6 Sb8 S24'
_cell_volume   942.00006694
_cell_formula_units_Z   2
loop_
 _symmetry_equiv_pos_site_id
 _symmetry_equiv_pos_as_xyz
  1  'x, y, z'
loop_
 _atom_site_type_symbol
 _atom_site_label
 _atom_site_symmetry_multiplicity
 _atom_site_fract_x
 _atom_site_fract_y
 _atom_site_fract_z
 _atom_site_occupancy
  Pr  Pr0  1  0.26482975  0.48171517  0.87013914  1
  Pr  Pr1  1  0.73690788  0.50786659  0.13516544  1
  Pr  Pr2  1  0.76177734  0.00957744  0.86123562  1
  Pr  Pr3  1  0.23726258  0.99864189  0.14032446  1
  Mn  Mn4  1  0.29668679  0.49847419  0.61373391  1
  Mn  Mn5  1  0.69602541  0.51080084  0.37993515  1
  Mn  Mn6  1  0.00201984  0.99782871  0.99898111  1
  Mn  Mn7  1  0.80326498  0.98814620  0.61580116  1
  Mn  Mn8  1  0.19798868  0.97420884  0.38024862  1
  Mn  Mn9  1  0.50235272  0.47808292  0.99405684  1
  Sb  Sb10  1  0.89335004  0.00361037  0.45505835  1
  Sb  Sb11  1  0.10967806  0.97573502  0.55127685  1
  Sb  Sb12  1  0.03949091  0.49195951  0.81616297  1
  Sb  Sb13  1  0.96207041  0.52429420  0.18754682  1
  Sb  Sb14  1  0.39709764  0.49606860  0.45741132  1
  Sb  Sb15  1  0.60724861  0.49686771  0.54945532  1
  Sb  Sb16  1  0.53731939  0.00746359  0.81605956  1
  Sb  Sb17  1  0.46250602  0.00238591  0.18111897  1
  S  S18  1  0.93569612  0.97862063  0.79733814  1
  S  S19  1  0.06388710  0.99577260  0.19298766  1
  S  S20  1  0.40943598  0.00236122  0.97825008  1
  S  S21  1  0.59233535  0.99143370  0.01836755  1
  S  S22  1  0.17205626  0.99334815  0.89729420  1
  S  S23  1  0.82789932  0.01935854  0.10224367  1
  S  S24  1  0.08546446  0.46732409  0.64354718  1
  S  S25  1  0.91475079  0.48655554  0.36173147  1
  S  S26  1  0.74251895  0.94254785  0.29536748  1
  S  S27  1  0.25801032  0.00443552  0.70307423  1
  S  S28  1  0.16390359  0.48865817  0.44505390  1
  S  S29  1  0.83049405  0.48320942  0.55026011  1
  S  S30  1  0.43482578  0.51369562  0.80203290  1
  S  S31  1  0.56138585  0.52000957  0.19187773  1
  S  S32  1  0.90207879  0.49131916  0.97642892  1
  S  S33  1  0.08719193  0.48889940  0.01783649  1
  S  S34  1  0.66409479  0.50714857  0.89352200  1
  S  S35  1  0.33074195  0.52722791  0.10130875  1
  S  S36  1  0.59025722  0.01001458  0.64825662  1
  S  S37  1  0.41239549  0.96691053  0.35563023  1
  S  S38  1  0.24322725  0.48902901  0.30191772  1
  S  S39  1  0.76066078  0.49624424  0.69626084  1
  S  S40  1  0.67223961  0.01629901  0.46413241  1
  S  S41  1  0.33075639  0.98602676  0.54313940  1
