# generated using pymatgen
data_Pr2Mn3(SbS3)4
_symmetry_space_group_name_H-M   'P 1'
_cell_length_a   20.02960800
_cell_length_b   3.90410600
_cell_length_c   14.95364829
_cell_angle_alpha   90.00000000
_cell_angle_beta   126.33350609
_cell_angle_gamma   90.00000000
_symmetry_Int_Tables_number   1
_chemical_formula_structural   Pr2Mn3(SbS3)4
_chemical_formula_sum   'Pr4 Mn6 Sb8 S24'
_cell_volume   942.00006694
_cell_formula_units_Z   2
loop_
 _symmetry_equiv_pos_site_id
 _symmetry_equiv_pos_as_xyz
  1  'x, y, z'
loop_
 _atom_site_type_symbol
 _atom_site_label
 _atom_site_symmetry_multiplicity
 _atom_site_fract_x
 _atom_site_fract_y
 _atom_site_fract_z
 _atom_site_occupancy
  Pr  Pr0  1  0.27069782  0.49041196  0.88301922  1
  Pr  Pr1  1  0.73103962  0.51567221  0.13448963  1
  Pr  Pr2  1  0.76476469  0.02063583  0.87327566  1
  Pr  Pr3  1  0.23347100  0.92974145  0.12810487  1
  Mn  Mn4  1  0.29549441  0.39275348  0.60135429  1
  Mn  Mn5  1  0.69673227  0.48488192  0.36691971  1
  Mn  Mn6  1  0.00818606  0.98091678  0.01228705  1
  Mn  Mn7  1  0.80069933  0.99597752  0.62820332  1
  Mn  Mn8  1  0.20897996  0.07106684  0.39032450  1
  Mn  Mn9  1  0.48758524  0.47922354  0.98772594  1
  Sb  Sb10  1  0.89130380  0.94335737  0.46053600  1
  Sb  Sb11  1  0.11037499  0.99376511  0.54714365  1
  Sb  Sb12  1  0.04033978  0.51558697  0.82825767  1
  Sb  Sb13  1  0.96596627  0.47481758  0.19601367  1
  Sb  Sb14  1  0.40215729  0.56375974  0.44781793  1
  Sb  Sb15  1  0.60479921  0.50134694  0.53494806  1
  Sb  Sb16  1  0.52549986  0.95791061  0.79419394  1
  Sb  Sb17  1  0.47337428  0.03909111  0.18131382  1
  S  S18  1  0.93763553  0.00293543  0.79843333  1
  S  S19  1  0.05669702  0.98076157  0.18625686  1
  S  S20  1  0.41401410  0.96501250  0.97933275  1
  S  S21  1  0.57925985  0.01733521  0.00554371  1
  S  S22  1  0.17382730  0.00165216  0.90816247  1
  S  S23  1  0.83344053  0.00790632  0.10069631  1
  S  S24  1  0.09775880  0.50268206  0.65180545  1
  S  S25  1  0.90973811  0.44260909  0.36194973  1
  S  S26  1  0.73279949  0.97867342  0.30239941  1
  S  S27  1  0.25610311  0.93227418  0.67859136  1
  S  S28  1  0.15902787  0.52703294  0.43748127  1
  S  S29  1  0.81371278  0.47083564  0.54390727  1
  S  S30  1  0.43529655  0.46515035  0.79529259  1
  S  S31  1  0.56031402  0.51730652  0.18330096  1
  S  S32  1  0.91088098  0.53568752  0.98304534  1
  S  S33  1  0.08003353  0.45146436  0.02497048  1
  S  S34  1  0.66208334  0.50909685  0.89145436  1
  S  S35  1  0.33360145  0.43162044  0.11596225  1
  S  S36  1  0.59650132  0.01380144  0.64056860  1
  S  S37  1  0.39989495  0.05594306  0.33699432  1
  S  S38  1  0.24095816  0.53009977  0.31989609  1
  S  S39  1  0.76101455  0.48289068  0.68696465  1
  S  S40  1  0.67378758  0.98691925  0.45548095  1
  S  S41  1  0.33405676  0.90923903  0.54623406  1
