# generated using pymatgen
data_Pr2Mn3(SbS3)4
_symmetry_space_group_name_H-M   'P 1'
_cell_length_a   20.02960800
_cell_length_b   3.90410600
_cell_length_c   14.95364829
_cell_angle_alpha   90.00000000
_cell_angle_beta   126.33350609
_cell_angle_gamma   90.00000000
_symmetry_Int_Tables_number   1
_chemical_formula_structural   Pr2Mn3(SbS3)4
_chemical_formula_sum   'Pr4 Mn6 Sb8 S24'
_cell_volume   942.00006694
_cell_formula_units_Z   2
loop_
 _symmetry_equiv_pos_site_id
 _symmetry_equiv_pos_as_xyz
  1  'x, y, z'
loop_
 _atom_site_type_symbol
 _atom_site_label
 _atom_site_symmetry_multiplicity
 _atom_site_fract_x
 _atom_site_fract_y
 _atom_site_fract_z
 _atom_site_occupancy
  Pr  Pr0  1  0.27066954  0.48989735  0.88303906  1
  Pr  Pr1  1  0.73108191  0.51528131  0.13464424  1
  Pr  Pr2  1  0.76467361  0.02116288  0.87310186  1
  Pr  Pr3  1  0.23334516  0.92935777  0.12791880  1
  Mn  Mn4  1  0.29535627  0.39329978  0.60111197  1
  Mn  Mn5  1  0.69681384  0.48531313  0.36688169  1
  Mn  Mn6  1  0.00840543  0.98103071  0.01275822  1
  Mn  Mn7  1  0.80071782  0.99537790  0.62821507  1
  Mn  Mn8  1  0.20888948  0.07126263  0.39017446  1
  Mn  Mn9  1  0.48766960  0.47959750  0.98764673  1
  Sb  Sb10  1  0.89130106  0.94294684  0.46075497  1
  Sb  Sb11  1  0.11053259  0.99322676  0.54723324  1
  Sb  Sb12  1  0.04029687  0.51594949  0.82818199  1
  Sb  Sb13  1  0.96587684  0.47453740  0.19619647  1
  Sb  Sb14  1  0.40238746  0.56346930  0.44792797  1
  Sb  Sb15  1  0.60482392  0.50150984  0.53506147  1
  Sb  Sb16  1  0.52552377  0.95764961  0.79407786  1
  Sb  Sb17  1  0.47329580  0.03859767  0.18120176  1
  S  S18  1  0.93788821  0.00372945  0.79841031  1
  S  S19  1  0.05656911  0.98116209  0.18577675  1
  S  S20  1  0.41395609  0.96386641  0.97944432  1
  S  S21  1  0.57935819  0.01671396  0.00558037  1
  S  S22  1  0.17392622  0.00163877  0.90842730  1
  S  S23  1  0.83330051  0.00871885  0.10065816  1
  S  S24  1  0.09774337  0.50324949  0.65145349  1
  S  S25  1  0.90959769  0.44288477  0.36165257  1
  S  S26  1  0.73289391  0.97778728  0.30235427  1
  S  S27  1  0.25597914  0.93154556  0.67864268  1
  S  S28  1  0.15857434  0.52739299  0.43719565  1
  S  S29  1  0.81368957  0.46952845  0.54408136  1
  S  S30  1  0.43545407  0.46526678  0.79535196  1
  S  S31  1  0.56032110  0.51775145  0.18322664  1
  S  S32  1  0.91088258  0.53554192  0.98255254  1
  S  S33  1  0.08015030  0.45147381  0.02507096  1
  S  S34  1  0.66227958  0.50889213  0.89188869  1
  S  S35  1  0.33340750  0.43074416  0.11594166  1
  S  S36  1  0.59654247  0.01447510  0.64048463  1
  S  S37  1  0.39997327  0.05702549  0.33688453  1
  S  S38  1  0.24104354  0.53122050  0.31996154  1
  S  S39  1  0.76077522  0.48258031  0.68665454  1
  S  S40  1  0.67385687  0.98613301  0.45586842  1
  S  S41  1  0.33420761  0.91038122  0.54593626  1
