# generated using pymatgen
data_Pr2Mn3(SbS3)4
_symmetry_space_group_name_H-M   'P 1'
_cell_length_a   20.02960800
_cell_length_b   3.90410600
_cell_length_c   14.95364829
_cell_angle_alpha   90.00000000
_cell_angle_beta   126.33350609
_cell_angle_gamma   90.00000000
_symmetry_Int_Tables_number   1
_chemical_formula_structural   Pr2Mn3(SbS3)4
_chemical_formula_sum   'Pr4 Mn6 Sb8 S24'
_cell_volume   942.00006694
_cell_formula_units_Z   2
loop_
 _symmetry_equiv_pos_site_id
 _symmetry_equiv_pos_as_xyz
  1  'x, y, z'
loop_
 _atom_site_type_symbol
 _atom_site_label
 _atom_site_symmetry_multiplicity
 _atom_site_fract_x
 _atom_site_fract_y
 _atom_site_fract_z
 _atom_site_occupancy
  Pr  Pr0  1  0.27062970  0.48966775  0.88301260  1
  Pr  Pr1  1  0.73108435  0.51495106  0.13478639  1
  Pr  Pr2  1  0.76456066  0.02163694  0.87297531  1
  Pr  Pr3  1  0.23324491  0.92887375  0.12770950  1
  Mn  Mn4  1  0.29533046  0.39359543  0.60100042  1
  Mn  Mn5  1  0.69694681  0.48562668  0.36688417  1
  Mn  Mn6  1  0.00869760  0.98118981  0.01320638  1
  Mn  Mn7  1  0.80074300  0.99490913  0.62830447  1
  Mn  Mn8  1  0.20878934  0.07153287  0.38998304  1
  Mn  Mn9  1  0.48773668  0.47980741  0.98770936  1
  Sb  Sb10  1  0.89132861  0.94249980  0.46092241  1
  Sb  Sb11  1  0.11065190  0.99277320  0.54725184  1
  Sb  Sb12  1  0.04029768  0.51616832  0.82822381  1
  Sb  Sb13  1  0.96581223  0.47441842  0.19640397  1
  Sb  Sb14  1  0.40263638  0.56340385  0.44814856  1
  Sb  Sb15  1  0.60479092  0.50157037  0.53507746  1
  Sb  Sb16  1  0.52553858  0.95741631  0.79397449  1
  Sb  Sb17  1  0.47320460  0.03814917  0.18104090  1
  S  S18  1  0.93815666  0.00492675  0.79839712  1
  S  S19  1  0.05646225  0.98171467  0.18547385  1
  S  S20  1  0.41396606  0.96253093  0.97961240  1
  S  S21  1  0.57950587  0.01586535  0.00579062  1
  S  S22  1  0.17402725  0.00161970  0.90858674  1
  S  S23  1  0.83322609  0.00951483  0.10061403  1
  S  S24  1  0.09772919  0.50401411  0.65111156  1
  S  S25  1  0.90954465  0.44355975  0.36141886  1
  S  S26  1  0.73299435  0.97698855  0.30242059  1
  S  S27  1  0.25574873  0.93016274  0.67862540  1
  S  S28  1  0.15811431  0.52779630  0.43691580  1
  S  S29  1  0.81369744  0.46815362  0.54421151  1
  S  S30  1  0.43565390  0.46546856  0.79554877  1
  S  S31  1  0.56035484  0.51829625  0.18312835  1
  S  S32  1  0.91085886  0.53525937  0.98212249  1
  S  S33  1  0.08032465  0.45165683  0.02521811  1
  S  S34  1  0.66230382  0.50863274  0.89209181  1
  S  S35  1  0.33337897  0.42979151  0.11604068  1
  S  S36  1  0.59664141  0.01525982  0.64033745  1
  S  S37  1  0.40020270  0.05817498  0.33680921  1
  S  S38  1  0.24109011  0.53271945  0.31998344  1
  S  S39  1  0.76061307  0.48243076  0.68644930  1
  S  S40  1  0.67399707  0.98520767  0.45636400  1
  S  S41  1  0.33422175  0.91117027  0.54576431  1
