# generated using pymatgen
data_Pr2Mn3(SbS3)4
_symmetry_space_group_name_H-M   'P 1'
_cell_length_a   20.02960800
_cell_length_b   3.90410600
_cell_length_c   14.95364829
_cell_angle_alpha   90.00000000
_cell_angle_beta   126.33350609
_cell_angle_gamma   90.00000000
_symmetry_Int_Tables_number   1
_chemical_formula_structural   Pr2Mn3(SbS3)4
_chemical_formula_sum   'Pr4 Mn6 Sb8 S24'
_cell_volume   942.00006694
_cell_formula_units_Z   2
loop_
 _symmetry_equiv_pos_site_id
 _symmetry_equiv_pos_as_xyz
  1  'x, y, z'
loop_
 _atom_site_type_symbol
 _atom_site_label
 _atom_site_symmetry_multiplicity
 _atom_site_fract_x
 _atom_site_fract_y
 _atom_site_fract_z
 _atom_site_occupancy
  Pr  Pr0  1  0.27059346  0.48948692  0.88307554  1
  Pr  Pr1  1  0.73111201  0.51459582  0.13487581  1
  Pr  Pr2  1  0.76440288  0.02195162  0.87279498  1
  Pr  Pr3  1  0.23310693  0.92818177  0.12750925  1
  Mn  Mn4  1  0.29524937  0.39365442  0.60083651  1
  Mn  Mn5  1  0.69702666  0.48559841  0.36689430  1
  Mn  Mn6  1  0.00896579  0.98090659  0.01365533  1
  Mn  Mn7  1  0.80081003  0.99412744  0.62842679  1
  Mn  Mn8  1  0.20879134  0.07139073  0.38995271  1
  Mn  Mn9  1  0.48777808  0.48022341  0.98769352  1
  Sb  Sb10  1  0.89135309  0.94231903  0.46110752  1
  Sb  Sb11  1  0.11076515  0.99237086  0.54724817  1
  Sb  Sb12  1  0.04030125  0.51616036  0.82827178  1
  Sb  Sb13  1  0.96571308  0.47408655  0.19659299  1
  Sb  Sb14  1  0.40286299  0.56331791  0.44827403  1
  Sb  Sb15  1  0.60474256  0.50172694  0.53504627  1
  Sb  Sb16  1  0.52556518  0.95705494  0.79386202  1
  Sb  Sb17  1  0.47316364  0.03778043  0.18094564  1
  S  S18  1  0.93846065  0.00593829  0.79832552  1
  S  S19  1  0.05633572  0.98205253  0.18521705  1
  S  S20  1  0.41413702  0.96136644  0.97976941  1
  S  S21  1  0.57956859  0.01507842  0.00601874  1
  S  S22  1  0.17422772  0.00180076  0.90886686  1
  S  S23  1  0.83314633  0.00996536  0.10059925  1
  S  S24  1  0.09774384  0.50502989  0.65069554  1
  S  S25  1  0.90942391  0.44407215  0.36127404  1
  S  S26  1  0.73301986  0.97637621  0.30256971  1
  S  S27  1  0.25559760  0.92881643  0.67863555  1
  S  S28  1  0.15775795  0.52844789  0.43665123  1
  S  S29  1  0.81376430  0.46618072  0.54440974  1
  S  S30  1  0.43572422  0.46568327  0.79561011  1
  S  S31  1  0.56025382  0.51841581  0.18284626  1
  S  S32  1  0.91089089  0.53463898  0.98186309  1
  S  S33  1  0.08045147  0.45180985  0.02540662  1
  S  S34  1  0.66230495  0.50866528  0.89235902  1
  S  S35  1  0.33340229  0.42865443  0.11592792  1
  S  S36  1  0.59665612  0.01617555  0.64032703  1
  S  S37  1  0.40032257  0.05893879  0.33676013  1
  S  S38  1  0.24125976  0.53410369  0.32006117  1
  S  S39  1  0.76047886  0.48237085  0.68620278  1
  S  S40  1  0.67414147  0.98432151  0.45688331  1
  S  S41  1  0.33412708  0.91210689  0.54551728  1
