# generated using pymatgen
data_Pr2Mn3(SbS3)4
_symmetry_space_group_name_H-M   'P 1'
_cell_length_a   20.02960800
_cell_length_b   3.90410600
_cell_length_c   14.95364829
_cell_angle_alpha   90.00000000
_cell_angle_beta   126.33350609
_cell_angle_gamma   90.00000000
_symmetry_Int_Tables_number   1
_chemical_formula_structural   Pr2Mn3(SbS3)4
_chemical_formula_sum   'Pr4 Mn6 Sb8 S24'
_cell_volume   942.00006694
_cell_formula_units_Z   2
loop_
 _symmetry_equiv_pos_site_id
 _symmetry_equiv_pos_as_xyz
  1  'x, y, z'
loop_
 _atom_site_type_symbol
 _atom_site_label
 _atom_site_symmetry_multiplicity
 _atom_site_fract_x
 _atom_site_fract_y
 _atom_site_fract_z
 _atom_site_occupancy
  Pr  Pr0  1  0.27055147  0.48915832  0.88310766  1
  Pr  Pr1  1  0.73119241  0.51432070  0.13497359  1
  Pr  Pr2  1  0.76423869  0.02224286  0.87260730  1
  Pr  Pr3  1  0.23301686  0.92749095  0.12736220  1
  Mn  Mn4  1  0.29507671  0.39387695  0.60056314  1
  Mn  Mn5  1  0.69702671  0.48559276  0.36679843  1
  Mn  Mn6  1  0.00910394  0.98077137  0.01401905  1
  Mn  Mn7  1  0.80082291  0.99322031  0.62849100  1
  Mn  Mn8  1  0.20886539  0.07131417  0.39003200  1
  Mn  Mn9  1  0.48779921  0.48080566  0.98766148  1
  Sb  Sb10  1  0.89139407  0.94192959  0.46128347  1
  Sb  Sb11  1  0.11083005  0.99173522  0.54726384  1
  Sb  Sb12  1  0.04031253  0.51642128  0.82834279  1
  Sb  Sb13  1  0.96562106  0.47383507  0.19680808  1
  Sb  Sb14  1  0.40302385  0.56339366  0.44833992  1
  Sb  Sb15  1  0.60473020  0.50176511  0.53507012  1
  Sb  Sb16  1  0.52555165  0.95678848  0.79372035  1
  Sb  Sb17  1  0.47315801  0.03730308  0.18082707  1
  S  S18  1  0.93870328  0.00714656  0.79822866  1
  S  S19  1  0.05623338  0.98238921  0.18498378  1
  S  S20  1  0.41425615  0.96043758  0.97976515  1
  S  S21  1  0.57963478  0.01394582  0.00622624  1
  S  S22  1  0.17437385  0.00144218  0.90902982  1
  S  S23  1  0.83293335  0.01009034  0.10059740  1
  S  S24  1  0.09779112  0.50613454  0.65042425  1
  S  S25  1  0.90931040  0.44497283  0.36124740  1
  S  S26  1  0.73294784  0.97551309  0.30257491  1
  S  S27  1  0.25559262  0.92727723  0.67881752  1
  S  S28  1  0.15732543  0.52905803  0.43631159  1
  S  S29  1  0.81380935  0.46403296  0.54461479  1
  S  S30  1  0.43586666  0.46549696  0.79567873  1
  S  S31  1  0.56010286  0.51864533  0.18266184  1
  S  S32  1  0.91102249  0.53410975  0.98176352  1
  S  S33  1  0.08058665  0.45207260  0.02554671  1
  S  S34  1  0.66225698  0.50772630  0.89237607  1
  S  S35  1  0.33353480  0.42708134  0.11595944  1
  S  S36  1  0.59665535  0.01697996  0.64029110  1
  S  S37  1  0.40053103  0.05955040  0.33681617  1
  S  S38  1  0.24136184  0.53518036  0.32001139  1
  S  S39  1  0.76035023  0.48223192  0.68597326  1
  S  S40  1  0.67416141  0.98369360  0.45727343  1
  S  S41  1  0.33403621  0.91329531  0.54544587  1
