# generated using pymatgen
data_Pr2Mn3(SbS3)4
_symmetry_space_group_name_H-M   'P 1'
_cell_length_a   20.02960800
_cell_length_b   3.90410600
_cell_length_c   14.95364829
_cell_angle_alpha   90.00000000
_cell_angle_beta   126.33350609
_cell_angle_gamma   90.00000000
_symmetry_Int_Tables_number   1
_chemical_formula_structural   Pr2Mn3(SbS3)4
_chemical_formula_sum   'Pr4 Mn6 Sb8 S24'
_cell_volume   942.00006694
_cell_formula_units_Z   2
loop_
 _symmetry_equiv_pos_site_id
 _symmetry_equiv_pos_as_xyz
  1  'x, y, z'
loop_
 _atom_site_type_symbol
 _atom_site_label
 _atom_site_symmetry_multiplicity
 _atom_site_fract_x
 _atom_site_fract_y
 _atom_site_fract_z
 _atom_site_occupancy
  Pr  Pr0  1  0.27051642  0.48885714  0.88311370  1
  Pr  Pr1  1  0.73129350  0.51418579  0.13508993  1
  Pr  Pr2  1  0.76416238  0.02274797  0.87242089  1
  Pr  Pr3  1  0.23293295  0.92667657  0.12719967  1
  Mn  Mn4  1  0.29491417  0.39433182  0.60024824  1
  Mn  Mn5  1  0.69704647  0.48588470  0.36679354  1
  Mn  Mn6  1  0.00930404  0.98101344  0.01438565  1
  Mn  Mn7  1  0.80093371  0.99262242  0.62871071  1
  Mn  Mn8  1  0.20893491  0.07115948  0.39010797  1
  Mn  Mn9  1  0.48781779  0.48091514  0.98761894  1
  Sb  Sb10  1  0.89149119  0.94138572  0.46153070  1
  Sb  Sb11  1  0.11099863  0.99094342  0.54733870  1
  Sb  Sb12  1  0.04032707  0.51653655  0.82842069  1
  Sb  Sb13  1  0.96548621  0.47344349  0.19688514  1
  Sb  Sb14  1  0.40315074  0.56326698  0.44839095  1
  Sb  Sb15  1  0.60474224  0.50194781  0.53503859  1
  Sb  Sb16  1  0.52550410  0.95674414  0.79361198  1
  Sb  Sb17  1  0.47314609  0.03676838  0.18067257  1
  S  S18  1  0.93877663  0.00824159  0.79794603  1
  S  S19  1  0.05611997  0.98232953  0.18489572  1
  S  S20  1  0.41436750  0.95958213  0.97984014  1
  S  S21  1  0.57962372  0.01241066  0.00624381  1
  S  S22  1  0.17439994  0.00106487  0.90908271  1
  S  S23  1  0.83274802  0.01025710  0.10060050  1
  S  S24  1  0.09785432  0.50665688  0.65017342  1
  S  S25  1  0.90915143  0.44571461  0.36122259  1
  S  S26  1  0.73283524  0.97476509  0.30269297  1
  S  S27  1  0.25565949  0.92516469  0.67908103  1
  S  S28  1  0.15694381  0.52971885  0.43587822  1
  S  S29  1  0.81378508  0.46192453  0.54479591  1
  S  S30  1  0.43609179  0.46517681  0.79594054  1
  S  S31  1  0.55995533  0.51822329  0.18229579  1
  S  S32  1  0.91107170  0.53372566  0.98158441  1
  S  S33  1  0.08068733  0.45293124  0.02570165  1
  S  S34  1  0.66229610  0.50641459  0.89252259  1
  S  S35  1  0.33366732  0.42587059  0.11600158  1
  S  S36  1  0.59656796  0.01749667  0.64021433  1
  S  S37  1  0.40077353  0.06032003  0.33700286  1
  S  S38  1  0.24147923  0.53633797  0.32012517  1
  S  S39  1  0.76039570  0.48217095  0.68584794  1
  S  S40  1  0.67403751  0.98304676  0.45744126  1
  S  S41  1  0.33392334  0.91448582  0.54553720  1
