# generated using pymatgen
data_Pr2Mn3(SbS3)4
_symmetry_space_group_name_H-M   'P 1'
_cell_length_a   20.02960800
_cell_length_b   3.90410600
_cell_length_c   14.95364829
_cell_angle_alpha   90.00000000
_cell_angle_beta   126.33350609
_cell_angle_gamma   90.00000000
_symmetry_Int_Tables_number   1
_chemical_formula_structural   Pr2Mn3(SbS3)4
_chemical_formula_sum   'Pr4 Mn6 Sb8 S24'
_cell_volume   942.00006694
_cell_formula_units_Z   2
loop_
 _symmetry_equiv_pos_site_id
 _symmetry_equiv_pos_as_xyz
  1  'x, y, z'
loop_
 _atom_site_type_symbol
 _atom_site_label
 _atom_site_symmetry_multiplicity
 _atom_site_fract_x
 _atom_site_fract_y
 _atom_site_fract_z
 _atom_site_occupancy
  Pr  Pr0  1  0.27045452  0.48855032  0.88312873  1
  Pr  Pr1  1  0.73141211  0.51400574  0.13527857  1
  Pr  Pr2  1  0.76403786  0.02331451  0.87216146  1
  Pr  Pr3  1  0.23286794  0.92599588  0.12702901  1
  Mn  Mn4  1  0.29474766  0.39436478  0.59999727  1
  Mn  Mn5  1  0.69709417  0.48642246  0.36684096  1
  Mn  Mn6  1  0.00949774  0.98096649  0.01478578  1
  Mn  Mn7  1  0.80092656  0.99183734  0.62879584  1
  Mn  Mn8  1  0.20901203  0.07133778  0.39015627  1
  Mn  Mn9  1  0.48786103  0.48109286  0.98763807  1
  Sb  Sb10  1  0.89160690  0.94116192  0.46174429  1
  Sb  Sb11  1  0.11117166  0.99017929  0.54746473  1
  Sb  Sb12  1  0.04034644  0.51644029  0.82847126  1
  Sb  Sb13  1  0.96540434  0.47299890  0.19700372  1
  Sb  Sb14  1  0.40328506  0.56315914  0.44846913  1
  Sb  Sb15  1  0.60471560  0.50227092  0.53494692  1
  Sb  Sb16  1  0.52548161  0.95704956  0.79350191  1
  Sb  Sb17  1  0.47311873  0.03631400  0.18048473  1
  S  S18  1  0.93867723  0.00957749  0.79744981  1
  S  S19  1  0.05584998  0.98240110  0.18475721  1
  S  S20  1  0.41445864  0.95881516  0.97988351  1
  S  S21  1  0.57957197  0.01127792  0.00612670  1
  S  S22  1  0.17438382  0.00086577  0.90902384  1
  S  S23  1  0.83251435  0.01054257  0.10051332  1
  S  S24  1  0.09790832  0.50679306  0.64997074  1
  S  S25  1  0.90900872  0.44631247  0.36130572  1
  S  S26  1  0.73282569  0.97421034  0.30302087  1
  S  S27  1  0.25582067  0.92300896  0.67941943  1
  S  S28  1  0.15673070  0.53055792  0.43553234  1
  S  S29  1  0.81389894  0.46023844  0.54507183  1
  S  S30  1  0.43634650  0.46479551  0.79616595  1
  S  S31  1  0.55992022  0.51767261  0.18200828  1
  S  S32  1  0.91113964  0.53339076  0.98141472  1
  S  S33  1  0.08086712  0.45302658  0.02587782  1
  S  S34  1  0.66242912  0.50496580  0.89262072  1
  S  S35  1  0.33388111  0.42512444  0.11603708  1
  S  S36  1  0.59641969  0.01807130  0.64022780  1
  S  S37  1  0.40108046  0.06114372  0.33734356  1
  S  S38  1  0.24161570  0.53751611  0.32020811  1
  S  S39  1  0.76035905  0.48253965  0.68577033  1
  S  S40  1  0.67391871  0.98269598  0.45769548  1
  S  S41  1  0.33389029  0.91560894  0.54559762  1
