# generated using pymatgen
data_Pr2Mn3(SbS3)4
_symmetry_space_group_name_H-M   'P 1'
_cell_length_a   20.02960800
_cell_length_b   3.90410600
_cell_length_c   14.95364829
_cell_angle_alpha   90.00000000
_cell_angle_beta   126.33350609
_cell_angle_gamma   90.00000000
_symmetry_Int_Tables_number   1
_chemical_formula_structural   Pr2Mn3(SbS3)4
_chemical_formula_sum   'Pr4 Mn6 Sb8 S24'
_cell_volume   942.00006694
_cell_formula_units_Z   2
loop_
 _symmetry_equiv_pos_site_id
 _symmetry_equiv_pos_as_xyz
  1  'x, y, z'
loop_
 _atom_site_type_symbol
 _atom_site_label
 _atom_site_symmetry_multiplicity
 _atom_site_fract_x
 _atom_site_fract_y
 _atom_site_fract_z
 _atom_site_occupancy
  Pr  Pr0  1  0.27041051  0.48808149  0.88313499  1
  Pr  Pr1  1  0.73149399  0.51374787  0.13539190  1
  Pr  Pr2  1  0.76392234  0.02353644  0.87204990  1
  Pr  Pr3  1  0.23277990  0.92543001  0.12684693  1
  Mn  Mn4  1  0.29465741  0.39449594  0.59978801  1
  Mn  Mn5  1  0.69703706  0.48678533  0.36671509  1
  Mn  Mn6  1  0.00968854  0.98069749  0.01509374  1
  Mn  Mn7  1  0.80102158  0.99094774  0.62892770  1
  Mn  Mn8  1  0.20900596  0.07163926  0.39018555  1
  Mn  Mn9  1  0.48784637  0.48147417  0.98764298  1
  Sb  Sb10  1  0.89170363  0.94083813  0.46191736  1
  Sb  Sb11  1  0.11129885  0.98971943  0.54762856  1
  Sb  Sb12  1  0.04027911  0.51625477  0.82846372  1
  Sb  Sb13  1  0.96527160  0.47257199  0.19703818  1
  Sb  Sb14  1  0.40342567  0.56329808  0.44855404  1
  Sb  Sb15  1  0.60465593  0.50250251  0.53474791  1
  Sb  Sb16  1  0.52539713  0.95771000  0.79335055  1
  Sb  Sb17  1  0.47312124  0.03605539  0.18034941  1
  S  S18  1  0.93864327  0.01112756  0.79704444  1
  S  S19  1  0.05559955  0.98247893  0.18468760  1
  S  S20  1  0.41470707  0.95816499  0.97997254  1
  S  S21  1  0.57957526  0.01016872  0.00611100  1
  S  S22  1  0.17434002  0.00076658  0.90897244  1
  S  S23  1  0.83230376  0.01100051  0.10042823  1
  S  S24  1  0.09798222  0.50776696  0.64977520  1
  S  S25  1  0.90884929  0.44649028  0.36136981  1
  S  S26  1  0.73290015  0.97322761  0.30331487  1
  S  S27  1  0.25597728  0.92051588  0.67981872  1
  S  S28  1  0.15654961  0.53097367  0.43511159  1
  S  S29  1  0.81391037  0.45870426  0.54519577  1
  S  S30  1  0.43666291  0.46421307  0.79645368  1
  S  S31  1  0.55982948  0.51698518  0.18161556  1
  S  S32  1  0.91120481  0.53307596  0.98115538  1
  S  S33  1  0.08094190  0.45326862  0.02592634  1
  S  S34  1  0.66244924  0.50351073  0.89261064  1
  S  S35  1  0.33412545  0.42395804  0.11619484  1
  S  S36  1  0.59630624  0.01876806  0.64020547  1
  S  S37  1  0.40142232  0.06221996  0.33769531  1
  S  S38  1  0.24177029  0.53855626  0.32034530  1
  S  S39  1  0.76032265  0.48323306  0.68573504  1
  S  S40  1  0.67386596  0.98210255  0.45798922  1
  S  S41  1  0.33382273  0.91669289  0.54567419  1
