# generated using pymatgen
data_Pr2Mn3(SbS3)4
_symmetry_space_group_name_H-M   'P 1'
_cell_length_a   20.02960800
_cell_length_b   3.90410600
_cell_length_c   14.95364829
_cell_angle_alpha   90.00000000
_cell_angle_beta   126.33350609
_cell_angle_gamma   90.00000000
_symmetry_Int_Tables_number   1
_chemical_formula_structural   Pr2Mn3(SbS3)4
_chemical_formula_sum   'Pr4 Mn6 Sb8 S24'
_cell_volume   942.00006694
_cell_formula_units_Z   2
loop_
 _symmetry_equiv_pos_site_id
 _symmetry_equiv_pos_as_xyz
  1  'x, y, z'
loop_
 _atom_site_type_symbol
 _atom_site_label
 _atom_site_symmetry_multiplicity
 _atom_site_fract_x
 _atom_site_fract_y
 _atom_site_fract_z
 _atom_site_occupancy
  Pr  Pr0  1  0.27033466  0.48787111  0.88309957  1
  Pr  Pr1  1  0.73158819  0.51350166  0.13546653  1
  Pr  Pr2  1  0.76382728  0.02401518  0.87191692  1
  Pr  Pr3  1  0.23268770  0.92493669  0.12669519  1
  Mn  Mn4  1  0.29462185  0.39483222  0.59969291  1
  Mn  Mn5  1  0.69688730  0.48727601  0.36656368  1
  Mn  Mn6  1  0.00991082  0.98043402  0.01547821  1
  Mn  Mn7  1  0.80110678  0.98973963  0.62900793  1
  Mn  Mn8  1  0.20895354  0.07155408  0.39008259  1
  Mn  Mn9  1  0.48778070  0.48147933  0.98765396  1
  Sb  Sb10  1  0.89176733  0.94036130  0.46204615  1
  Sb  Sb11  1  0.11144358  0.98936335  0.54781732  1
  Sb  Sb12  1  0.04025549  0.51606703  0.82843440  1
  Sb  Sb13  1  0.96512194  0.47211635  0.19709754  1
  Sb  Sb14  1  0.40352392  0.56343040  0.44861206  1
  Sb  Sb15  1  0.60463831  0.50280281  0.53467087  1
  Sb  Sb16  1  0.52532884  0.95832543  0.79323038  1
  Sb  Sb17  1  0.47310446  0.03587777  0.18015036  1
  S  S18  1  0.93863841  0.01299770  0.79665601  1
  S  S19  1  0.05532821  0.98277561  0.18470742  1
  S  S20  1  0.41497527  0.95772087  0.98023916  1
  S  S21  1  0.57960378  0.00881711  0.00600502  1
  S  S22  1  0.17446015  0.00047765  0.90906350  1
  S  S23  1  0.83208215  0.01079626  0.10034805  1
  S  S24  1  0.09806891  0.50873457  0.64954826  1
  S  S25  1  0.90873790  0.44639096  0.36137107  1
  S  S26  1  0.73293624  0.97235519  0.30354608  1
  S  S27  1  0.25606295  0.91832226  0.68002627  1
  S  S28  1  0.15633344  0.53164884  0.43468861  1
  S  S29  1  0.81384461  0.45682709  0.54518089  1
  S  S30  1  0.43709185  0.46351822  0.79679456  1
  S  S31  1  0.55976238  0.51664265  0.18125514  1
  S  S32  1  0.91121321  0.53267338  0.98080758  1
  S  S33  1  0.08101438  0.45344280  0.02586614  1
  S  S34  1  0.66246514  0.50206456  0.89257314  1
  S  S35  1  0.33439028  0.42258991  0.11636571  1
  S  S36  1  0.59623048  0.01881297  0.64013773  1
  S  S37  1  0.40163839  0.06308614  0.33785474  1
  S  S38  1  0.24187542  0.53962600  0.32052668  1
  S  S39  1  0.76014499  0.48374112  0.68576675  1
  S  S40  1  0.67384425  0.98205343  0.45819276  1
  S  S41  1  0.33378865  0.91757030  0.54584393  1
