# generated using pymatgen
data_Pr2Mn3(SbS3)4
_symmetry_space_group_name_H-M   'P 1'
_cell_length_a   20.02960800
_cell_length_b   3.90410600
_cell_length_c   14.95364829
_cell_angle_alpha   90.00000000
_cell_angle_beta   126.33350609
_cell_angle_gamma   90.00000000
_symmetry_Int_Tables_number   1
_chemical_formula_structural   Pr2Mn3(SbS3)4
_chemical_formula_sum   'Pr4 Mn6 Sb8 S24'
_cell_volume   942.00006694
_cell_formula_units_Z   2
loop_
 _symmetry_equiv_pos_site_id
 _symmetry_equiv_pos_as_xyz
  1  'x, y, z'
loop_
 _atom_site_type_symbol
 _atom_site_label
 _atom_site_symmetry_multiplicity
 _atom_site_fract_x
 _atom_site_fract_y
 _atom_site_fract_z
 _atom_site_occupancy
  Pr  Pr0  1  0.27023270  0.48733514  0.88302768  1
  Pr  Pr1  1  0.73165393  0.51336642  0.13549116  1
  Pr  Pr2  1  0.76378034  0.02436145  0.87178509  1
  Pr  Pr3  1  0.23260117  0.92453028  0.12654116  1
  Mn  Mn4  1  0.29469791  0.39565467  0.59966732  1
  Mn  Mn5  1  0.69677637  0.48733624  0.36645671  1
  Mn  Mn6  1  0.01009722  0.97998016  0.01585191  1
  Mn  Mn7  1  0.80113352  0.98849761  0.62910017  1
  Mn  Mn8  1  0.20890233  0.07106940  0.39000832  1
  Mn  Mn9  1  0.48768528  0.48140140  0.98766336  1
  Sb  Sb10  1  0.89178766  0.93995929  0.46200691  1
  Sb  Sb11  1  0.11154925  0.98897383  0.54802160  1
  Sb  Sb12  1  0.04021678  0.51584539  0.82832566  1
  Sb  Sb13  1  0.96503228  0.47165517  0.19715550  1
  Sb  Sb14  1  0.40358058  0.56354622  0.44863884  1
  Sb  Sb15  1  0.60464604  0.50298995  0.53460747  1
  Sb  Sb16  1  0.52535415  0.95888617  0.79322188  1
  Sb  Sb17  1  0.47306007  0.03541560  0.17991260  1
  S  S18  1  0.93862892  0.01445194  0.79630155  1
  S  S19  1  0.05512807  0.98289216  0.18461404  1
  S  S20  1  0.41514445  0.95692483  0.98046269  1
  S  S21  1  0.57961877  0.00717623  0.00592695  1
  S  S22  1  0.17450621  0.00021838  0.90897543  1
  S  S23  1  0.83187691  0.01078913  0.10031649  1
  S  S24  1  0.09824173  0.51031102  0.64946245  1
  S  S25  1  0.90848840  0.44643270  0.36134236  1
  S  S26  1  0.73302163  0.97192404  0.30399860  1
  S  S27  1  0.25615420  0.91613300  0.68024298  1
  S  S28  1  0.15608519  0.53276064  0.43432923  1
  S  S29  1  0.81378489  0.45529050  0.54514264  1
  S  S30  1  0.43739711  0.46263000  0.79717724  1
  S  S31  1  0.55968967  0.51593770  0.18096997  1
  S  S32  1  0.91121957  0.53163924  0.98053773  1
  S  S33  1  0.08097005  0.45296814  0.02572167  1
  S  S34  1  0.66251497  0.50091080  0.89241472  1
  S  S35  1  0.33467906  0.42210516  0.11660477  1
  S  S36  1  0.59607739  0.01903981  0.64013188  1
  S  S37  1  0.40174692  0.06407918  0.33787312  1
  S  S38  1  0.24192861  0.54070543  0.32064605  1
  S  S39  1  0.76003417  0.48444924  0.68578439  1
  S  S40  1  0.67381771  0.98239869  0.45836912  1
  S  S41  1  0.33379390  0.91880834  0.54614253  1
