# generated using pymatgen
data_Pr2Mn3(SbS3)4
_symmetry_space_group_name_H-M   'P 1'
_cell_length_a   20.02960800
_cell_length_b   3.90410600
_cell_length_c   14.95364829
_cell_angle_alpha   90.00000000
_cell_angle_beta   126.33350609
_cell_angle_gamma   90.00000000
_symmetry_Int_Tables_number   1
_chemical_formula_structural   Pr2Mn3(SbS3)4
_chemical_formula_sum   'Pr4 Mn6 Sb8 S24'
_cell_volume   942.00006694
_cell_formula_units_Z   2
loop_
 _symmetry_equiv_pos_site_id
 _symmetry_equiv_pos_as_xyz
  1  'x, y, z'
loop_
 _atom_site_type_symbol
 _atom_site_label
 _atom_site_symmetry_multiplicity
 _atom_site_fract_x
 _atom_site_fract_y
 _atom_site_fract_z
 _atom_site_occupancy
  Pr  Pr0  1  0.26483938  0.48179596  0.87024148  1
  Pr  Pr1  1  0.73698707  0.50785658  0.13536956  1
  Pr  Pr2  1  0.76180582  0.00981031  0.86115787  1
  Pr  Pr3  1  0.23718377  0.99863111  0.14027313  1
  Mn  Mn4  1  0.29642208  0.49761825  0.61313389  1
  Mn  Mn5  1  0.69595381  0.51165301  0.37999703  1
  Mn  Mn6  1  0.00208413  0.99823542  0.99914852  1
  Mn  Mn7  1  0.80308254  0.98864840  0.61565983  1
  Mn  Mn8  1  0.19788792  0.97412346  0.38016046  1
  Mn  Mn9  1  0.50252323  0.47808816  0.99408472  1
  Sb  Sb10  1  0.89336756  0.00342776  0.45508394  1
  Sb  Sb11  1  0.10999964  0.97513264  0.55152597  1
  Sb  Sb12  1  0.03951488  0.49265956  0.81619756  1
  Sb  Sb13  1  0.96215978  0.52503565  0.18764170  1
  Sb  Sb14  1  0.39719822  0.49620157  0.45740047  1
  Sb  Sb15  1  0.60724763  0.49636675  0.54934425  1
  Sb  Sb16  1  0.53730442  0.00793238  0.81599258  1
  Sb  Sb17  1  0.46249008  0.00279295  0.18119635  1
  S  S18  1  0.93548038  0.97920492  0.79720646  1
  S  S19  1  0.06386139  0.99479393  0.19288140  1
  S  S20  1  0.40951670  0.00291564  0.97822868  1
  S  S21  1  0.59232367  0.99170822  0.01857871  1
  S  S22  1  0.17219543  0.99304183  0.89723480  1
  S  S23  1  0.82768528  0.01970173  0.10196707  1
  S  S24  1  0.08554454  0.46536089  0.64384238  1
  S  S25  1  0.91475022  0.48708393  0.36176782  1
  S  S26  1  0.74268633  0.94244792  0.29593845  1
  S  S27  1  0.25791598  0.00422206  0.70290769  1
  S  S28  1  0.16395387  0.48819249  0.44499341  1
  S  S29  1  0.83047295  0.48235314  0.55016673  1
  S  S30  1  0.43451843  0.51351144  0.80183569  1
  S  S31  1  0.56160941  0.52058649  0.19215119  1
  S  S32  1  0.90215355  0.49144453  0.97645162  1
  S  S33  1  0.08704972  0.48937870  0.01790316  1
  S  S34  1  0.66403426  0.50707460  0.89339238  1
  S  S35  1  0.33078476  0.52840252  0.10154994  1
  S  S36  1  0.59013302  0.00946109  0.64786343  1
  S  S37  1  0.41213203  0.96661333  0.35507247  1
  S  S38  1  0.24331507  0.48943801  0.30207287  1
  S  S39  1  0.76064360  0.49570376  0.69618818  1
  S  S40  1  0.67235120  0.01608897  0.46430615  1
  S  S41  1  0.33086283  0.98590628  0.54334056  1
