# generated using pymatgen
data_Pr2Mn3(SbS3)4
_symmetry_space_group_name_H-M   'P 1'
_cell_length_a   20.02960800
_cell_length_b   3.90410600
_cell_length_c   14.95364829
_cell_angle_alpha   90.00000000
_cell_angle_beta   126.33350609
_cell_angle_gamma   90.00000000
_symmetry_Int_Tables_number   1
_chemical_formula_structural   Pr2Mn3(SbS3)4
_chemical_formula_sum   'Pr4 Mn6 Sb8 S24'
_cell_volume   942.00006694
_cell_formula_units_Z   2
loop_
 _symmetry_equiv_pos_site_id
 _symmetry_equiv_pos_as_xyz
  1  'x, y, z'
loop_
 _atom_site_type_symbol
 _atom_site_label
 _atom_site_symmetry_multiplicity
 _atom_site_fract_x
 _atom_site_fract_y
 _atom_site_fract_z
 _atom_site_occupancy
  Pr  Pr0  1  0.27016141  0.48688067  0.88292093  1
  Pr  Pr1  1  0.73174017  0.51327669  0.13554168  1
  Pr  Pr2  1  0.76375530  0.02485028  0.87165014  1
  Pr  Pr3  1  0.23249881  0.92418529  0.12633115  1
  Mn  Mn4  1  0.29478790  0.39637166  0.59966538  1
  Mn  Mn5  1  0.69669858  0.48750965  0.36640034  1
  Mn  Mn6  1  0.01029494  0.97943286  0.01617223  1
  Mn  Mn7  1  0.80120794  0.98716441  0.62923668  1
  Mn  Mn8  1  0.20890991  0.07072162  0.39000044  1
  Mn  Mn9  1  0.48756464  0.48106271  0.98769452  1
  Sb  Sb10  1  0.89179661  0.93983889  0.46190839  1
  Sb  Sb11  1  0.11169791  0.98884254  0.54824516  1
  Sb  Sb12  1  0.04017457  0.51567248  0.82816198  1
  Sb  Sb13  1  0.96491914  0.47133589  0.19727396  1
  Sb  Sb14  1  0.40358444  0.56366521  0.44860689  1
  Sb  Sb15  1  0.60464823  0.50304181  0.53458262  1
  Sb  Sb16  1  0.52529823  0.95913099  0.79314051  1
  Sb  Sb17  1  0.47307550  0.03511639  0.17975499  1
  S  S18  1  0.93866184  0.01557677  0.79600765  1
  S  S19  1  0.05496351  0.98299597  0.18458076  1
  S  S20  1  0.41524489  0.95619060  0.98065777  1
  S  S21  1  0.57959091  0.00585706  0.00580242  1
  S  S22  1  0.17455982  0.99974033  0.90890635  1
  S  S23  1  0.83168893  0.01065671  0.10024976  1
  S  S24  1  0.09848251  0.51212237  0.64946059  1
  S  S25  1  0.90828097  0.44698116  0.36114384  1
  S  S26  1  0.73320488  0.97191325  0.30449910  1
  S  S27  1  0.25628891  0.91394713  0.68053974  1
  S  S28  1  0.15595330  0.53381780  0.43423254  1
  S  S29  1  0.81369776  0.45347062  0.54510695  1
  S  S30  1  0.43773384  0.46184468  0.79750627  1
  S  S31  1  0.55969101  0.51487288  0.18063895  1
  S  S32  1  0.91113745  0.53029509  0.98041186  1
  S  S33  1  0.08100159  0.45273942  0.02559213  1
  S  S34  1  0.66264226  0.50004200  0.89237850  1
  S  S35  1  0.33490686  0.42175512  0.11674424  1
  S  S36  1  0.59605817  0.01911946  0.64013719  1
  S  S37  1  0.40181359  0.06474286  0.33784084  1
  S  S38  1  0.24198773  0.54181723  0.32081939  1
  S  S39  1  0.75992275  0.48510661  0.68594985  1
  S  S40  1  0.67369895  0.98270064  0.45836848  1
  S  S41  1  0.33388919  0.91996117  0.54650274  1
