# generated using pymatgen
data_Pr2Mn3(SbS3)4
_symmetry_space_group_name_H-M   'P 1'
_cell_length_a   20.02960800
_cell_length_b   3.90410600
_cell_length_c   14.95364829
_cell_angle_alpha   90.00000000
_cell_angle_beta   126.33350609
_cell_angle_gamma   90.00000000
_symmetry_Int_Tables_number   1
_chemical_formula_structural   Pr2Mn3(SbS3)4
_chemical_formula_sum   'Pr4 Mn6 Sb8 S24'
_cell_volume   942.00006694
_cell_formula_units_Z   2
loop_
 _symmetry_equiv_pos_site_id
 _symmetry_equiv_pos_as_xyz
  1  'x, y, z'
loop_
 _atom_site_type_symbol
 _atom_site_label
 _atom_site_symmetry_multiplicity
 _atom_site_fract_x
 _atom_site_fract_y
 _atom_site_fract_z
 _atom_site_occupancy
  Pr  Pr0  1  0.27004715  0.48644210  0.88282032  1
  Pr  Pr1  1  0.73182218  0.51310893  0.13555881  1
  Pr  Pr2  1  0.76374602  0.02520793  0.87153853  1
  Pr  Pr3  1  0.23239738  0.92394746  0.12612961  1
  Mn  Mn4  1  0.29490351  0.39719391  0.59972046  1
  Mn  Mn5  1  0.69660135  0.48807445  0.36632306  1
  Mn  Mn6  1  0.01046300  0.97920425  0.01647782  1
  Mn  Mn7  1  0.80132975  0.98610906  0.62937112  1
  Mn  Mn8  1  0.20897097  0.07007879  0.39004596  1
  Mn  Mn9  1  0.48743467  0.48053721  0.98760107  1
  Sb  Sb10  1  0.89186862  0.93987143  0.46186045  1
  Sb  Sb11  1  0.11186283  0.98885974  0.54855498  1
  Sb  Sb12  1  0.04012630  0.51530894  0.82805036  1
  Sb  Sb13  1  0.96487290  0.47089157  0.19739889  1
  Sb  Sb14  1  0.40359690  0.56374429  0.44861919  1
  Sb  Sb15  1  0.60467495  0.50345811  0.53456974  1
  Sb  Sb16  1  0.52517407  0.95916330  0.79295565  1
  Sb  Sb17  1  0.47309537  0.03468907  0.17958745  1
  S  S18  1  0.93865881  0.01637963  0.79585510  1
  S  S19  1  0.05479332  0.98345587  0.18447960  1
  S  S20  1  0.41536140  0.95559151  0.98073091  1
  S  S21  1  0.57952544  0.00484343  0.00558410  1
  S  S22  1  0.17465780  0.99872684  0.90899199  1
  S  S23  1  0.83146302  0.01091930  0.10028517  1
  S  S24  1  0.09875964  0.51402838  0.64937997  1
  S  S25  1  0.90802200  0.44778209  0.36095535  1
  S  S26  1  0.73339953  0.97161779  0.30502665  1
  S  S27  1  0.25634477  0.91197210  0.68074887  1
  S  S28  1  0.15580587  0.53508788  0.43400806  1
  S  S29  1  0.81370072  0.45190292  0.54518073  1
  S  S30  1  0.43806505  0.46130172  0.79780816  1
  S  S31  1  0.55965178  0.51344510  0.18019445  1
  S  S32  1  0.91117974  0.52967105  0.98040698  1
  S  S33  1  0.08114086  0.45288152  0.02565483  1
  S  S34  1  0.66277549  0.49953965  0.89252850  1
  S  S35  1  0.33511328  0.42130256  0.11696037  1
  S  S36  1  0.59620933  0.01940623  0.64038068  1
  S  S37  1  0.40187121  0.06529320  0.33777687  1
  S  S38  1  0.24195837  0.54255011  0.32094692  1
  S  S39  1  0.75986798  0.48554943  0.68595844  1
  S  S40  1  0.67351634  0.98307658  0.45821699  1
  S  S41  1  0.33387327  0.92139060  0.54680131  1
