# generated using pymatgen
data_Pr2Mn3(SbS3)4
_symmetry_space_group_name_H-M   'P 1'
_cell_length_a   20.02960800
_cell_length_b   3.90410600
_cell_length_c   14.95364829
_cell_angle_alpha   90.00000000
_cell_angle_beta   126.33350609
_cell_angle_gamma   90.00000000
_symmetry_Int_Tables_number   1
_chemical_formula_structural   Pr2Mn3(SbS3)4
_chemical_formula_sum   'Pr4 Mn6 Sb8 S24'
_cell_volume   942.00006694
_cell_formula_units_Z   2
loop_
 _symmetry_equiv_pos_site_id
 _symmetry_equiv_pos_as_xyz
  1  'x, y, z'
loop_
 _atom_site_type_symbol
 _atom_site_label
 _atom_site_symmetry_multiplicity
 _atom_site_fract_x
 _atom_site_fract_y
 _atom_site_fract_z
 _atom_site_occupancy
  Pr  Pr0  1  0.26989827  0.48592237  0.88273814  1
  Pr  Pr1  1  0.73186437  0.51277754  0.13551779  1
  Pr  Pr2  1  0.76372199  0.02551333  0.87146082  1
  Pr  Pr3  1  0.23228030  0.92362390  0.12588999  1
  Mn  Mn4  1  0.29496175  0.39822946  0.59970668  1
  Mn  Mn5  1  0.69651916  0.48869287  0.36618258  1
  Mn  Mn6  1  0.01062693  0.97877840  0.01678192  1
  Mn  Mn7  1  0.80132557  0.98503425  0.62946823  1
  Mn  Mn8  1  0.20899878  0.06952902  0.39014749  1
  Mn  Mn9  1  0.48729902  0.48017996  0.98739369  1
  Sb  Sb10  1  0.89199237  0.93978260  0.46174543  1
  Sb  Sb11  1  0.11200333  0.98884252  0.54886478  1
  Sb  Sb12  1  0.04005917  0.51481739  0.82795452  1
  Sb  Sb13  1  0.96489434  0.47055604  0.19754724  1
  Sb  Sb14  1  0.40360403  0.56381273  0.44861083  1
  Sb  Sb15  1  0.60467695  0.50395428  0.53459104  1
  Sb  Sb16  1  0.52503806  0.95924369  0.79272973  1
  Sb  Sb17  1  0.47311791  0.03426755  0.17951976  1
  S  S18  1  0.93868572  0.01703874  0.79581718  1
  S  S19  1  0.05464235  0.98361573  0.18441056  1
  S  S20  1  0.41546449  0.95475491  0.98083281  1
  S  S21  1  0.57956561  0.00370952  0.00536774  1
  S  S22  1  0.17478125  0.99788179  0.90913702  1
  S  S23  1  0.83120276  0.01080120  0.10029931  1
  S  S24  1  0.09902218  0.51594284  0.64942326  1
  S  S25  1  0.90766792  0.44822444  0.36067017  1
  S  S26  1  0.73366392  0.97188223  0.30559538  1
  S  S27  1  0.25650599  0.91025632  0.68096519  1
  S  S28  1  0.15567478  0.53575186  0.43383292  1
  S  S29  1  0.81355649  0.45116119  0.54518632  1
  S  S30  1  0.43844046  0.46078039  0.79819391  1
  S  S31  1  0.55958290  0.51226247  0.17976041  1
  S  S32  1  0.91127511  0.52922364  0.98040468  1
  S  S33  1  0.08131358  0.45303350  0.02580219  1
  S  S34  1  0.66290842  0.49921343  0.89273803  1
  S  S35  1  0.33523824  0.42107065  0.11702371  1
  S  S36  1  0.59634934  0.01918639  0.64067403  1
  S  S37  1  0.40186241  0.06615310  0.33758339  1
  S  S38  1  0.24180023  0.54301907  0.32103978  1
  S  S39  1  0.75980063  0.48559684  0.68593794  1
  S  S40  1  0.67333232  0.98326197  0.45809890  1
  S  S41  1  0.33383931  0.92296176  0.54712998  1
