# generated using pymatgen
data_Pr2Mn3(SbS3)4
_symmetry_space_group_name_H-M   'P 1'
_cell_length_a   20.02960800
_cell_length_b   3.90410600
_cell_length_c   14.95364829
_cell_angle_alpha   90.00000000
_cell_angle_beta   126.33350609
_cell_angle_gamma   90.00000000
_symmetry_Int_Tables_number   1
_chemical_formula_structural   Pr2Mn3(SbS3)4
_chemical_formula_sum   'Pr4 Mn6 Sb8 S24'
_cell_volume   942.00006694
_cell_formula_units_Z   2
loop_
 _symmetry_equiv_pos_site_id
 _symmetry_equiv_pos_as_xyz
  1  'x, y, z'
loop_
 _atom_site_type_symbol
 _atom_site_label
 _atom_site_symmetry_multiplicity
 _atom_site_fract_x
 _atom_site_fract_y
 _atom_site_fract_z
 _atom_site_occupancy
  Pr  Pr0  1  0.26970824  0.48542190  0.88263587  1
  Pr  Pr1  1  0.73189661  0.51237717  0.13549133  1
  Pr  Pr2  1  0.76371030  0.02587852  0.87139748  1
  Pr  Pr3  1  0.23218881  0.92321333  0.12569216  1
  Mn  Mn4  1  0.29493568  0.39939102  0.59961702  1
  Mn  Mn5  1  0.69636599  0.48923676  0.36608890  1
  Mn  Mn6  1  0.01061019  0.97850911  0.01685672  1
  Mn  Mn7  1  0.80131363  0.98365616  0.62955799  1
  Mn  Mn8  1  0.20900175  0.06876744  0.39024090  1
  Mn  Mn9  1  0.48714962  0.48011717  0.98713175  1
  Sb  Sb10  1  0.89213756  0.93961904  0.46161526  1
  Sb  Sb11  1  0.11210556  0.98906560  0.54914681  1
  Sb  Sb12  1  0.03995564  0.51482398  0.82787052  1
  Sb  Sb13  1  0.96489458  0.47006435  0.19766204  1
  Sb  Sb14  1  0.40369228  0.56366197  0.44867590  1
  Sb  Sb15  1  0.60463943  0.50443463  0.53458854  1
  Sb  Sb16  1  0.52492775  0.95895176  0.79252058  1
  Sb  Sb17  1  0.47314064  0.03373550  0.17945465  1
  S  S18  1  0.93862632  0.01811724  0.79572644  1
  S  S19  1  0.05445112  0.98328684  0.18423722  1
  S  S20  1  0.41552349  0.95422596  0.98084890  1
  S  S21  1  0.57963462  0.00230037  0.00526025  1
  S  S22  1  0.17488043  0.99679930  0.90915394  1
  S  S23  1  0.83096956  0.01062914  0.10037892  1
  S  S24  1  0.09919585  0.51794429  0.64938151  1
  S  S25  1  0.90738024  0.44863910  0.36051365  1
  S  S26  1  0.73395822  0.97218144  0.30622248  1
  S  S27  1  0.25667108  0.90886226  0.68128806  1
  S  S28  1  0.15556543  0.53644251  0.43356418  1
  S  S29  1  0.81331454  0.45037032  0.54513771  1
  S  S30  1  0.43881982  0.46042504  0.79856728  1
  S  S31  1  0.55950765  0.51166446  0.17951215  1
  S  S32  1  0.91133037  0.52883652  0.98057270  1
  S  S33  1  0.08145523  0.45295144  0.02591112  1
  S  S34  1  0.66294917  0.49890819  0.89268102  1
  S  S35  1  0.33541205  0.42071094  0.11719681  1
  S  S36  1  0.59654333  0.01905516  0.64087691  1
  S  S37  1  0.40188454  0.06752871  0.33733047  1
  S  S38  1  0.24193616  0.54338462  0.32133018  1
  S  S39  1  0.75967593  0.48551979  0.68571480  1
  S  S40  1  0.67324220  0.98360474  0.45812875  1
  S  S41  1  0.33393673  0.92486642  0.54759264  1
