# generated using pymatgen
data_Pr2Mn3(SbS3)4
_symmetry_space_group_name_H-M   'P 1'
_cell_length_a   20.02960800
_cell_length_b   3.90410600
_cell_length_c   14.95364829
_cell_angle_alpha   90.00000000
_cell_angle_beta   126.33350609
_cell_angle_gamma   90.00000000
_symmetry_Int_Tables_number   1
_chemical_formula_structural   Pr2Mn3(SbS3)4
_chemical_formula_sum   'Pr4 Mn6 Sb8 S24'
_cell_volume   942.00006694
_cell_formula_units_Z   2
loop_
 _symmetry_equiv_pos_site_id
 _symmetry_equiv_pos_as_xyz
  1  'x, y, z'
loop_
 _atom_site_type_symbol
 _atom_site_label
 _atom_site_symmetry_multiplicity
 _atom_site_fract_x
 _atom_site_fract_y
 _atom_site_fract_z
 _atom_site_occupancy
  Pr  Pr0  1  0.26952985  0.48489821  0.88251366  1
  Pr  Pr1  1  0.73198219  0.51182461  0.13544650  1
  Pr  Pr2  1  0.76368779  0.02627853  0.87133213  1
  Pr  Pr3  1  0.23214720  0.92308229  0.12549933  1
  Mn  Mn4  1  0.29499747  0.40026485  0.59958840  1
  Mn  Mn5  1  0.69626076  0.48976793  0.36597601  1
  Mn  Mn6  1  0.01059974  0.97815307  0.01677724  1
  Mn  Mn7  1  0.80126564  0.98217298  0.62958466  1
  Mn  Mn8  1  0.20898169  0.06806545  0.39042881  1
  Mn  Mn9  1  0.48702310  0.47995183  0.98690417  1
  Sb  Sb10  1  0.89226803  0.93930819  0.46150874  1
  Sb  Sb11  1  0.11224632  0.98932770  0.54943437  1
  Sb  Sb12  1  0.03984932  0.51450311  0.82773195  1
  Sb  Sb13  1  0.96488216  0.46975240  0.19770910  1
  Sb  Sb14  1  0.40380106  0.56362521  0.44874269  1
  Sb  Sb15  1  0.60457591  0.50493020  0.53452897  1
  Sb  Sb16  1  0.52482218  0.95909637  0.79235312  1
  Sb  Sb17  1  0.47316645  0.03331924  0.17944097  1
  S  S18  1  0.93858533  0.01904704  0.79557813  1
  S  S19  1  0.05422586  0.98282408  0.18419944  1
  S  S20  1  0.41552010  0.95369654  0.98086953  1
  S  S21  1  0.57974375  0.00024620  0.00522255  1
  S  S22  1  0.17501271  0.99614946  0.90916182  1
  S  S23  1  0.83072269  0.01029844  0.10031436  1
  S  S24  1  0.09927430  0.52009132  0.64936595  1
  S  S25  1  0.90699472  0.44875233  0.36029014  1
  S  S26  1  0.73412536  0.97226668  0.30657070  1
  S  S27  1  0.25693646  0.90778000  0.68182529  1
  S  S28  1  0.15552920  0.53694017  0.43340122  1
  S  S29  1  0.81311769  0.44961392  0.54515286  1
  S  S30  1  0.43916171  0.45964636  0.79882192  1
  S  S31  1  0.55936332  0.51120996  0.17920928  1
  S  S32  1  0.91131842  0.52883559  0.98075731  1
  S  S33  1  0.08167921  0.45268374  0.02611408  1
  S  S34  1  0.66285732  0.49883618  0.89266872  1
  S  S35  1  0.33564170  0.42092201  0.11735540  1
  S  S36  1  0.59676285  0.01922512  0.64110302  1
  S  S37  1  0.40191262  0.06878008  0.33703710  1
  S  S38  1  0.24193958  0.54296606  0.32159474  1
  S  S39  1  0.75975330  0.48519931  0.68556843  1
  S  S40  1  0.67321073  0.98427807  0.45813537  1
  S  S41  1  0.33403557  0.92685464  0.54796619  1
