# generated using pymatgen
data_Pr2Mn3(SbS3)4
_symmetry_space_group_name_H-M   'P 1'
_cell_length_a   20.02960800
_cell_length_b   3.90410600
_cell_length_c   14.95364829
_cell_angle_alpha   90.00000000
_cell_angle_beta   126.33350609
_cell_angle_gamma   90.00000000
_symmetry_Int_Tables_number   1
_chemical_formula_structural   Pr2Mn3(SbS3)4
_chemical_formula_sum   'Pr4 Mn6 Sb8 S24'
_cell_volume   942.00006694
_cell_formula_units_Z   2
loop_
 _symmetry_equiv_pos_site_id
 _symmetry_equiv_pos_as_xyz
  1  'x, y, z'
loop_
 _atom_site_type_symbol
 _atom_site_label
 _atom_site_symmetry_multiplicity
 _atom_site_fract_x
 _atom_site_fract_y
 _atom_site_fract_z
 _atom_site_occupancy
  Pr  Pr0  1  0.26941248  0.48428297  0.88241548  1
  Pr  Pr1  1  0.73202703  0.51146550  0.13531573  1
  Pr  Pr2  1  0.76372543  0.02628083  0.87130578  1
  Pr  Pr3  1  0.23211431  0.92267156  0.12541659  1
  Mn  Mn4  1  0.29501076  0.40123166  0.59955662  1
  Mn  Mn5  1  0.69625272  0.49041728  0.36585931  1
  Mn  Mn6  1  0.01060079  0.97767785  0.01660421  1
  Mn  Mn7  1  0.80113715  0.98122968  0.62957631  1
  Mn  Mn8  1  0.20893635  0.06741358  0.39060339  1
  Mn  Mn9  1  0.48683518  0.47998911  0.98671240  1
  Sb  Sb10  1  0.89231894  0.93918387  0.46134663  1
  Sb  Sb11  1  0.11226826  0.98969983  0.54960651  1
  Sb  Sb12  1  0.03974872  0.51424338  0.82760603  1
  Sb  Sb13  1  0.96491106  0.46964284  0.19779999  1
  Sb  Sb14  1  0.40388764  0.56331521  0.44880350  1
  Sb  Sb15  1  0.60451829  0.50528973  0.53448391  1
  Sb  Sb16  1  0.52473471  0.95915419  0.79223388  1
  Sb  Sb17  1  0.47319437  0.03322964  0.17941255  1
  S  S18  1  0.93855213  0.01954659  0.79550285  1
  S  S19  1  0.05397599  0.98229416  0.18426604  1
  S  S20  1  0.41555111  0.95325525  0.98077975  1
  S  S21  1  0.57989456  0.99810532  0.00520993  1
  S  S22  1  0.17517149  0.99576042  0.90920658  1
  S  S23  1  0.83048880  0.01030611  0.10042915  1
  S  S24  1  0.09934599  0.52213464  0.64946082  1
  S  S25  1  0.90654442  0.44862216  0.36013166  1
  S  S26  1  0.73427572  0.97262843  0.30678365  1
  S  S27  1  0.25699021  0.90683911  0.68219021  1
  S  S28  1  0.15547333  0.53732334  0.43311415  1
  S  S29  1  0.81293609  0.44936175  0.54516750  1
  S  S30  1  0.43943582  0.45888304  0.79889881  1
  S  S31  1  0.55936754  0.51085757  0.17902103  1
  S  S32  1  0.91129938  0.52924270  0.98090631  1
  S  S33  1  0.08178210  0.45248427  0.02622695  1
  S  S34  1  0.66279537  0.49876697  0.89278973  1
  S  S35  1  0.33570990  0.42095830  0.11743448  1
  S  S36  1  0.59706580  0.01941532  0.64136805  1
  S  S37  1  0.40199577  0.06993010  0.33681713  1
  S  S38  1  0.24192862  0.54292534  0.32176526  1
  S  S39  1  0.75974544  0.48469560  0.68536372  1
  S  S40  1  0.67319769  0.98525348  0.45809899  1
  S  S41  1  0.33402471  0.92809070  0.54811186  1
