# generated using pymatgen
data_Pr2Mn3(SbS3)4
_symmetry_space_group_name_H-M   'P 1'
_cell_length_a   20.02960800
_cell_length_b   3.90410600
_cell_length_c   14.95364829
_cell_angle_alpha   90.00000000
_cell_angle_beta   126.33350609
_cell_angle_gamma   90.00000000
_symmetry_Int_Tables_number   1
_chemical_formula_structural   Pr2Mn3(SbS3)4
_chemical_formula_sum   'Pr4 Mn6 Sb8 S24'
_cell_volume   942.00006694
_cell_formula_units_Z   2
loop_
 _symmetry_equiv_pos_site_id
 _symmetry_equiv_pos_as_xyz
  1  'x, y, z'
loop_
 _atom_site_type_symbol
 _atom_site_label
 _atom_site_symmetry_multiplicity
 _atom_site_fract_x
 _atom_site_fract_y
 _atom_site_fract_z
 _atom_site_occupancy
  Pr  Pr0  1  0.26933122  0.48366072  0.88237912  1
  Pr  Pr1  1  0.73203655  0.51102049  0.13515758  1
  Pr  Pr2  1  0.76384156  0.02635113  0.87137414  1
  Pr  Pr3  1  0.23206622  0.92234276  0.12536351  1
  Mn  Mn4  1  0.29498216  0.40237299  0.59936315  1
  Mn  Mn5  1  0.69624130  0.49095727  0.36574483  1
  Mn  Mn6  1  0.01054885  0.97701977  0.01632342  1
  Mn  Mn7  1  0.80095801  0.98020745  0.62949246  1
  Mn  Mn8  1  0.20895748  0.06667599  0.39084911  1
  Mn  Mn9  1  0.48665701  0.48003900  0.98663093  1
  Sb  Sb10  1  0.89234002  0.93893338  0.46125381  1
  Sb  Sb11  1  0.11228007  0.99006752  0.54974684  1
  Sb  Sb12  1  0.03967231  0.51416790  0.82752854  1
  Sb  Sb13  1  0.96489768  0.46955716  0.19788304  1
  Sb  Sb14  1  0.40390430  0.56298317  0.44874970  1
  Sb  Sb15  1  0.60449915  0.50550162  0.53444833  1
  Sb  Sb16  1  0.52470170  0.95914423  0.79219238  1
  Sb  Sb17  1  0.47323396  0.03336034  0.17942889  1
  S  S18  1  0.93852032  0.02002025  0.79533784  1
  S  S19  1  0.05374418  0.98191087  0.18421808  1
  S  S20  1  0.41561843  0.95308372  0.98068734  1
  S  S21  1  0.57997540  0.99610713  0.00511038  1
  S  S22  1  0.17532768  0.99532286  0.90935808  1
  S  S23  1  0.83021844  0.00993380  0.10030078  1
  S  S24  1  0.09939216  0.52396859  0.64960310  1
  S  S25  1  0.90617568  0.44852453  0.35996103  1
  S  S26  1  0.73447078  0.97264409  0.30711043  1
  S  S27  1  0.25699884  0.90581725  0.68225518  1
  S  S28  1  0.15552883  0.53743753  0.43296564  1
  S  S29  1  0.81273170  0.44881635  0.54499035  1
  S  S30  1  0.43971638  0.45797932  0.79891541  1
  S  S31  1  0.55943651  0.51025326  0.17905276  1
  S  S32  1  0.91128373  0.52947324  0.98118538  1
  S  S33  1  0.08176537  0.45224865  0.02625380  1
  S  S34  1  0.66276856  0.49919827  0.89292397  1
  S  S35  1  0.33569214  0.42172811  0.11737691  1
  S  S36  1  0.59742859  0.01958550  0.64186878  1
  S  S37  1  0.40215097  0.07059765  0.33666293  1
  S  S38  1  0.24190143  0.54330449  0.32193207  1
  S  S39  1  0.75987852  0.48398232  0.68515271  1
  S  S40  1  0.67315010  0.98603139  0.45818785  1
  S  S41  1  0.33381300  0.92959972  0.54811109  1
