# generated using pymatgen
data_Pr2Mn3(SbS3)4
_symmetry_space_group_name_H-M   'P 1'
_cell_length_a   20.02960800
_cell_length_b   3.90410600
_cell_length_c   14.95364829
_cell_angle_alpha   90.00000000
_cell_angle_beta   126.33350609
_cell_angle_gamma   90.00000000
_symmetry_Int_Tables_number   1
_chemical_formula_structural   Pr2Mn3(SbS3)4
_chemical_formula_sum   'Pr4 Mn6 Sb8 S24'
_cell_volume   942.00006694
_cell_formula_units_Z   2
loop_
 _symmetry_equiv_pos_site_id
 _symmetry_equiv_pos_as_xyz
  1  'x, y, z'
loop_
 _atom_site_type_symbol
 _atom_site_label
 _atom_site_symmetry_multiplicity
 _atom_site_fract_x
 _atom_site_fract_y
 _atom_site_fract_z
 _atom_site_occupancy
  Pr  Pr0  1  0.26922022  0.48316072  0.88231175  1
  Pr  Pr1  1  0.73202332  0.51030958  0.13504899  1
  Pr  Pr2  1  0.76393057  0.02649161  0.87149645  1
  Pr  Pr3  1  0.23195241  0.92201180  0.12522671  1
  Mn  Mn4  1  0.29491101  0.40358424  0.59921213  1
  Mn  Mn5  1  0.69620397  0.49155677  0.36554270  1
  Mn  Mn6  1  0.01052621  0.97665136  0.01603035  1
  Mn  Mn7  1  0.80085831  0.97925900  0.62955733  1
  Mn  Mn8  1  0.20890839  0.06603040  0.39095601  1
  Mn  Mn9  1  0.48642875  0.48066649  0.98650281  1
  Sb  Sb10  1  0.89237892  0.93869568  0.46116967  1
  Sb  Sb11  1  0.11221339  0.99013541  0.54976711  1
  Sb  Sb12  1  0.03958459  0.51413571  0.82749089  1
  Sb  Sb13  1  0.96497655  0.46971632  0.19802616  1
  Sb  Sb14  1  0.40388648  0.56268324  0.44873646  1
  Sb  Sb15  1  0.60442770  0.50562624  0.53431080  1
  Sb  Sb16  1  0.52463143  0.95894806  0.79211616  1
  Sb  Sb17  1  0.47322182  0.03347035  0.17944680  1
  S  S18  1  0.93837116  0.02045471  0.79526984  1
  S  S19  1  0.05342974  0.98151424  0.18413021  1
  S  S20  1  0.41564897  0.95296554  0.98059387  1
  S  S21  1  0.58010098  0.99427778  0.00509364  1
  S  S22  1  0.17547494  0.99506043  0.90945592  1
  S  S23  1  0.82998233  0.00937753  0.10028360  1
  S  S24  1  0.09932521  0.52570632  0.64967890  1
  S  S25  1  0.90577374  0.44847023  0.35974156  1
  S  S26  1  0.73490338  0.97289391  0.30767332  1
  S  S27  1  0.25702027  0.90492154  0.68230471  1
  S  S28  1  0.15565497  0.53799765  0.43288912  1
  S  S29  1  0.81257721  0.44870403  0.54484198  1
  S  S30  1  0.43988802  0.45775197  0.79882782  1
  S  S31  1  0.55953494  0.50987655  0.17911505  1
  S  S32  1  0.91141352  0.52962292  0.98155465  1
  S  S33  1  0.08177893  0.45208971  0.02621344  1
  S  S34  1  0.66281866  0.49922084  0.89312420  1
  S  S35  1  0.33559024  0.42263958  0.11722341  1
  S  S36  1  0.59792983  0.01945238  0.64253111  1
  S  S37  1  0.40225922  0.07103388  0.33643623  1
  S  S38  1  0.24183870  0.54345312  0.32199289  1
  S  S39  1  0.75994951  0.48315443  0.68505774  1
  S  S40  1  0.67293133  0.98726890  0.45805532  1
  S  S41  1  0.33355028  0.93101617  0.54805106  1
