# generated using pymatgen
data_Pr2Mn3(SbS3)4
_symmetry_space_group_name_H-M   'P 1'
_cell_length_a   20.02960800
_cell_length_b   3.90410600
_cell_length_c   14.95364829
_cell_angle_alpha   90.00000000
_cell_angle_beta   126.33350609
_cell_angle_gamma   90.00000000
_symmetry_Int_Tables_number   1
_chemical_formula_structural   Pr2Mn3(SbS3)4
_chemical_formula_sum   'Pr4 Mn6 Sb8 S24'
_cell_volume   942.00006694
_cell_formula_units_Z   2
loop_
 _symmetry_equiv_pos_site_id
 _symmetry_equiv_pos_as_xyz
  1  'x, y, z'
loop_
 _atom_site_type_symbol
 _atom_site_label
 _atom_site_symmetry_multiplicity
 _atom_site_fract_x
 _atom_site_fract_y
 _atom_site_fract_z
 _atom_site_occupancy
  Pr  Pr0  1  0.26905585  0.48301374  0.88220348  1
  Pr  Pr1  1  0.73195626  0.50953167  0.13489901  1
  Pr  Pr2  1  0.76404932  0.02662751  0.87160508  1
  Pr  Pr3  1  0.23185455  0.92191353  0.12510726  1
  Mn  Mn4  1  0.29487730  0.40458160  0.59907552  1
  Mn  Mn5  1  0.69611997  0.49260808  0.36537086  1
  Mn  Mn6  1  0.01045566  0.97632428  0.01576503  1
  Mn  Mn7  1  0.80073002  0.97848357  0.62962134  1
  Mn  Mn8  1  0.20885764  0.06546407  0.39103493  1
  Mn  Mn9  1  0.48622000  0.48091201  0.98639287  1
  Sb  Sb10  1  0.89246858  0.93832786  0.46115412  1
  Sb  Sb11  1  0.11220275  0.99036056  0.54983196  1
  Sb  Sb12  1  0.03945742  0.51414831  0.82742231  1
  Sb  Sb13  1  0.96504712  0.47006530  0.19815321  1
  Sb  Sb14  1  0.40383407  0.56246058  0.44870097  1
  Sb  Sb15  1  0.60438817  0.50589910  0.53416560  1
  Sb  Sb16  1  0.52455150  0.95888836  0.79203213  1
  Sb  Sb17  1  0.47312567  0.03335937  0.17938642  1
  S  S18  1  0.93814702  0.02084124  0.79508649  1
  S  S19  1  0.05317030  0.98072472  0.18399435  1
  S  S20  1  0.41552989  0.95295284  0.98042587  1
  S  S21  1  0.58027173  0.99280838  0.00505369  1
  S  S22  1  0.17552302  0.99463529  0.90945636  1
  S  S23  1  0.82961063  0.00871735  0.10010191  1
  S  S24  1  0.09938770  0.52710540  0.64997458  1
  S  S25  1  0.90542643  0.44873184  0.35949462  1
  S  S26  1  0.73530341  0.97386370  0.30816101  1
  S  S27  1  0.25713081  0.90432418  0.68258806  1
  S  S28  1  0.15575650  0.53808816  0.43284300  1
  S  S29  1  0.81239051  0.44860046  0.54467863  1
  S  S30  1  0.43994104  0.45749386  0.79862632  1
  S  S31  1  0.55966120  0.51022497  0.17909570  1
  S  S32  1  0.91147714  0.52924882  0.98190231  1
  S  S33  1  0.08179595  0.45190789  0.02615691  1
  S  S34  1  0.66290247  0.49988648  0.89352721  1
  S  S35  1  0.33546138  0.42379048  0.11696449  1
  S  S36  1  0.59836840  0.01918106  0.64322663  1
  S  S37  1  0.40227957  0.07165907  0.33625802  1
  S  S38  1  0.24194439  0.54325098  0.32225530  1
  S  S39  1  0.76004945  0.48285877  0.68491014  1
  S  S40  1  0.67274953  0.98790799  0.45805862  1
  S  S41  1  0.33327213  0.93219864  0.54786306  1
