# generated using pymatgen
data_Pr2Mn3(SbS3)4
_symmetry_space_group_name_H-M   'P 1'
_cell_length_a   20.02960800
_cell_length_b   3.90410600
_cell_length_c   14.95364829
_cell_angle_alpha   90.00000000
_cell_angle_beta   126.33350609
_cell_angle_gamma   90.00000000
_symmetry_Int_Tables_number   1
_chemical_formula_structural   Pr2Mn3(SbS3)4
_chemical_formula_sum   'Pr4 Mn6 Sb8 S24'
_cell_volume   942.00006694
_cell_formula_units_Z   2
loop_
 _symmetry_equiv_pos_site_id
 _symmetry_equiv_pos_as_xyz
  1  'x, y, z'
loop_
 _atom_site_type_symbol
 _atom_site_label
 _atom_site_symmetry_multiplicity
 _atom_site_fract_x
 _atom_site_fract_y
 _atom_site_fract_z
 _atom_site_occupancy
  Pr  Pr0  1  0.26889276  0.48286766  0.88208380  1
  Pr  Pr1  1  0.73191954  0.50879597  0.13476439  1
  Pr  Pr2  1  0.76410371  0.02693805  0.87165273  1
  Pr  Pr3  1  0.23180787  0.92186295  0.12506938  1
  Mn  Mn4  1  0.29473951  0.40588567  0.59881767  1
  Mn  Mn5  1  0.69604258  0.49355064  0.36522914  1
  Mn  Mn6  1  0.01035969  0.97596966  0.01543030  1
  Mn  Mn7  1  0.80063773  0.97776304  0.62982817  1
  Mn  Mn8  1  0.20878887  0.06491294  0.39118386  1
  Mn  Mn9  1  0.48607162  0.48104250  0.98633310  1
  Sb  Sb10  1  0.89258702  0.93786293  0.46114186  1
  Sb  Sb11  1  0.11219981  0.99064085  0.54987937  1
  Sb  Sb12  1  0.03927286  0.51432341  0.82722163  1
  Sb  Sb13  1  0.96513099  0.47050398  0.19832984  1
  Sb  Sb14  1  0.40382139  0.56225717  0.44873809  1
  Sb  Sb15  1  0.60431920  0.50614167  0.53397748  1
  Sb  Sb16  1  0.52443899  0.95878967  0.79185306  1
  Sb  Sb17  1  0.47308814  0.03344562  0.17931240  1
  S  S18  1  0.93794314  0.02106867  0.79489623  1
  S  S19  1  0.05293530  0.97960310  0.18386003  1
  S  S20  1  0.41538528  0.95303204  0.98035474  1
  S  S21  1  0.58046583  0.99147009  0.00508092  1
  S  S22  1  0.17551429  0.99386632  0.90951102  1
  S  S23  1  0.82925875  0.00843823  0.10003183  1
  S  S24  1  0.09950196  0.52857431  0.65030773  1
  S  S25  1  0.90502808  0.44908459  0.35925348  1
  S  S26  1  0.73569430  0.97511808  0.30873219  1
  S  S27  1  0.25735089  0.90381918  0.68298091  1
  S  S28  1  0.15580070  0.53811708  0.43273353  1
  S  S29  1  0.81230285  0.44874555  0.54469851  1
  S  S30  1  0.43979920  0.45720082  0.79822686  1
  S  S31  1  0.55987540  0.51098759  0.17923765  1
  S  S32  1  0.91148511  0.52935394  0.98200793  1
  S  S33  1  0.08186168  0.45181789  0.02616622  1
  S  S34  1  0.66296652  0.50096053  0.89390138  1
  S  S35  1  0.33527425  0.42505813  0.11669382  1
  S  S36  1  0.59879651  0.01877943  0.64397138  1
  S  S37  1  0.40230582  0.07179878  0.33627172  1
  S  S38  1  0.24201349  0.54313803  0.32238926  1
  S  S39  1  0.76021651  0.48291660  0.68499434  1
  S  S40  1  0.67253385  0.98824239  0.45802847  1
  S  S41  1  0.33299657  0.93314363  0.54762167  1
