# generated using pymatgen
data_Pr2Mn3(SbS3)4
_symmetry_space_group_name_H-M   'P 1'
_cell_length_a   20.02960800
_cell_length_b   3.90410600
_cell_length_c   14.95364829
_cell_angle_alpha   90.00000000
_cell_angle_beta   126.33350609
_cell_angle_gamma   90.00000000
_symmetry_Int_Tables_number   1
_chemical_formula_structural   Pr2Mn3(SbS3)4
_chemical_formula_sum   'Pr4 Mn6 Sb8 S24'
_cell_volume   942.00006694
_cell_formula_units_Z   2
loop_
 _symmetry_equiv_pos_site_id
 _symmetry_equiv_pos_as_xyz
  1  'x, y, z'
loop_
 _atom_site_type_symbol
 _atom_site_label
 _atom_site_symmetry_multiplicity
 _atom_site_fract_x
 _atom_site_fract_y
 _atom_site_fract_z
 _atom_site_occupancy
  Pr  Pr0  1  0.26488788  0.48200688  0.87038422  1
  Pr  Pr1  1  0.73702006  0.50770521  0.13553496  1
  Pr  Pr2  1  0.76179456  0.00985617  0.86107903  1
  Pr  Pr3  1  0.23710701  0.99862430  0.14020187  1
  Mn  Mn4  1  0.29630323  0.49716661  0.61270189  1
  Mn  Mn5  1  0.69595086  0.51282190  0.38006329  1
  Mn  Mn6  1  0.00224693  0.99867827  0.99937292  1
  Mn  Mn7  1  0.80298302  0.98893352  0.61569106  1
  Mn  Mn8  1  0.19775304  0.97417308  0.38009540  1
  Mn  Mn9  1  0.50265218  0.47782218  0.99418190  1
  Sb  Sb10  1  0.89338288  0.00321779  0.45506767  1
  Sb  Sb11  1  0.11028544  0.97462097  0.55172014  1
  Sb  Sb12  1  0.03952944  0.49334105  0.81616733  1
  Sb  Sb13  1  0.96225802  0.52576874  0.18768126  1
  Sb  Sb14  1  0.39729738  0.49633436  0.45740128  1
  Sb  Sb15  1  0.60718058  0.49565270  0.54911689  1
  Sb  Sb16  1  0.53730995  0.00797104  0.81586376  1
  Sb  Sb17  1  0.46247373  0.00316972  0.18129991  1
  S  S18  1  0.93526597  0.97983137  0.79706226  1
  S  S19  1  0.06385709  0.99366710  0.19279499  1
  S  S20  1  0.40965728  0.00364145  0.97822493  1
  S  S21  1  0.59225027  0.99189054  0.01889795  1
  S  S22  1  0.17219989  0.99293756  0.89706274  1
  S  S23  1  0.82760121  0.01954532  0.10185228  1
  S  S24  1  0.08558016  0.46362603  0.64398018  1
  S  S25  1  0.91463299  0.48774041  0.36163880  1
  S  S26  1  0.74284709  0.94262021  0.29647693  1
  S  S27  1  0.25788688  0.00390793  0.70271708  1
  S  S28  1  0.16404578  0.48772976  0.44488585  1
  S  S29  1  0.83050986  0.48163337  0.55016385  1
  S  S30  1  0.43433386  0.51342580  0.80177324  1
  S  S31  1  0.56169161  0.52132987  0.19223874  1
  S  S32  1  0.90221285  0.49163789  0.97653207  1
  S  S33  1  0.08696377  0.48937267  0.01809921  1
  S  S34  1  0.66396589  0.50699128  0.89326532  1
  S  S35  1  0.33071531  0.52899814  0.10166561  1
  S  S36  1  0.58998604  0.00924695  0.64752558  1
  S  S37  1  0.41196857  0.96596019  0.35462162  1
  S  S38  1  0.24331912  0.48921695  0.30216950  1
  S  S39  1  0.76067359  0.49466737  0.69630840  1
  S  S40  1  0.67246117  0.01615139  0.46426690  1
  S  S41  1  0.33104894  0.98581567  0.54348462  1
