# generated using pymatgen
data_Pr2Mn3(SbS3)4
_symmetry_space_group_name_H-M   'P 1'
_cell_length_a   20.02960800
_cell_length_b   3.90410600
_cell_length_c   14.95364829
_cell_angle_alpha   90.00000000
_cell_angle_beta   126.33350609
_cell_angle_gamma   90.00000000
_symmetry_Int_Tables_number   1
_chemical_formula_structural   Pr2Mn3(SbS3)4
_chemical_formula_sum   'Pr4 Mn6 Sb8 S24'
_cell_volume   942.00006694
_cell_formula_units_Z   2
loop_
 _symmetry_equiv_pos_site_id
 _symmetry_equiv_pos_as_xyz
  1  'x, y, z'
loop_
 _atom_site_type_symbol
 _atom_site_label
 _atom_site_symmetry_multiplicity
 _atom_site_fract_x
 _atom_site_fract_y
 _atom_site_fract_z
 _atom_site_occupancy
  Pr  Pr0  1  0.26877825  0.48311900  0.88205245  1
  Pr  Pr1  1  0.73191028  0.50811260  0.13471479  1
  Pr  Pr2  1  0.76408595  0.02738835  0.87167512  1
  Pr  Pr3  1  0.23167908  0.92169022  0.12497116  1
  Mn  Mn4  1  0.29453100  0.40670886  0.59854941  1
  Mn  Mn5  1  0.69593930  0.49442059  0.36506274  1
  Mn  Mn6  1  0.01035651  0.97591554  0.01516617  1
  Mn  Mn7  1  0.80055310  0.97702774  0.62994347  1
  Mn  Mn8  1  0.20877445  0.06454979  0.39131046  1
  Mn  Mn9  1  0.48590267  0.48074914  0.98638376  1
  Sb  Sb10  1  0.89272586  0.93770695  0.46114097  1
  Sb  Sb11  1  0.11217881  0.99072161  0.54988184  1
  Sb  Sb12  1  0.03918337  0.51453211  0.82703809  1
  Sb  Sb13  1  0.96521717  0.47092890  0.19858086  1
  Sb  Sb14  1  0.40382854  0.56211265  0.44879660  1
  Sb  Sb15  1  0.60428896  0.50625912  0.53388477  1
  Sb  Sb16  1  0.52437836  0.95892065  0.79165614  1
  Sb  Sb17  1  0.47306554  0.03368411  0.17923170  1
  S  S18  1  0.93769400  0.02103584  0.79464953  1
  S  S19  1  0.05282152  0.97820892  0.18384257  1
  S  S20  1  0.41531291  0.95293012  0.98011190  1
  S  S21  1  0.58072846  0.99080027  0.00507288  1
  S  S22  1  0.17549974  0.99299609  0.90961744  1
  S  S23  1  0.82891041  0.00850044  0.09997916  1
  S  S24  1  0.09957917  0.52934409  0.65066386  1
  S  S25  1  0.90465048  0.44898911  0.35893785  1
  S  S26  1  0.73600342  0.97646830  0.30906336  1
  S  S27  1  0.25752375  0.90334143  0.68332762  1
  S  S28  1  0.15584376  0.53785137  0.43251321  1
  S  S29  1  0.81224900  0.44843012  0.54481649  1
  S  S30  1  0.43968384  0.45653532  0.79792662  1
  S  S31  1  0.56008197  0.51173805  0.17943051  1
  S  S32  1  0.91149967  0.52946568  0.98218912  1
  S  S33  1  0.08198267  0.45167011  0.02616033  1
  S  S34  1  0.66302981  0.50106045  0.89443935  1
  S  S35  1  0.33505011  0.42621298  0.11642698  1
  S  S36  1  0.59924956  0.01823888  0.64469801  1
  S  S37  1  0.40226065  0.07160817  0.33629796  1
  S  S38  1  0.24214590  0.54317794  0.32245551  1
  S  S39  1  0.76039926  0.48349674  0.68518297  1
  S  S40  1  0.67225351  0.98872936  0.45792810  1
  S  S41  1  0.33264082  0.93378016  0.54739510  1
