# generated using pymatgen
data_Pr2Mn3(SbS3)4
_symmetry_space_group_name_H-M   'P 1'
_cell_length_a   20.02960800
_cell_length_b   3.90410600
_cell_length_c   14.95364829
_cell_angle_alpha   90.00000000
_cell_angle_beta   126.33350609
_cell_angle_gamma   90.00000000
_symmetry_Int_Tables_number   1
_chemical_formula_structural   Pr2Mn3(SbS3)4
_chemical_formula_sum   'Pr4 Mn6 Sb8 S24'
_cell_volume   942.00006694
_cell_formula_units_Z   2
loop_
 _symmetry_equiv_pos_site_id
 _symmetry_equiv_pos_as_xyz
  1  'x, y, z'
loop_
 _atom_site_type_symbol
 _atom_site_label
 _atom_site_symmetry_multiplicity
 _atom_site_fract_x
 _atom_site_fract_y
 _atom_site_fract_z
 _atom_site_occupancy
  Pr  Pr0  1  0.26869924  0.48342818  0.88201679  1
  Pr  Pr1  1  0.73191137  0.50737333  0.13463429  1
  Pr  Pr2  1  0.76402241  0.02789641  0.87160308  1
  Pr  Pr3  1  0.23156162  0.92143386  0.12485262  1
  Mn  Mn4  1  0.29430251  0.40744662  0.59832700  1
  Mn  Mn5  1  0.69587887  0.49540533  0.36505508  1
  Mn  Mn6  1  0.01025876  0.97564868  0.01492158  1
  Mn  Mn7  1  0.80055775  0.97678915  0.63013789  1
  Mn  Mn8  1  0.20871187  0.06408556  0.39146457  1
  Mn  Mn9  1  0.48579479  0.48053578  0.98626871  1
  Sb  Sb10  1  0.89282292  0.93748390  0.46116082  1
  Sb  Sb11  1  0.11220106  0.99093259  0.54988210  1
  Sb  Sb12  1  0.03903869  0.51462788  0.82687747  1
  Sb  Sb13  1  0.96531883  0.47153369  0.19885773  1
  Sb  Sb14  1  0.40380148  0.56208185  0.44884553  1
  Sb  Sb15  1  0.60425263  0.50628306  0.53380816  1
  Sb  Sb16  1  0.52428957  0.95912798  0.79153184  1
  Sb  Sb17  1  0.47304303  0.03388328  0.17922596  1
  S  S18  1  0.93743996  0.02094384  0.79436068  1
  S  S19  1  0.05286190  0.97657002  0.18389657  1
  S  S20  1  0.41527121  0.95315415  0.97992584  1
  S  S21  1  0.58094813  0.99046155  0.00497566  1
  S  S22  1  0.17543326  0.99234374  0.90978431  1
  S  S23  1  0.82863406  0.00920620  0.10015947  1
  S  S24  1  0.09978468  0.53012852  0.65112605  1
  S  S25  1  0.90439846  0.44919932  0.35876226  1
  S  S26  1  0.73629591  0.97761776  0.30932283  1
  S  S27  1  0.25770620  0.90312160  0.68360312  1
  S  S28  1  0.15607270  0.53765012  0.43260089  1
  S  S29  1  0.81207139  0.44796400  0.54487547  1
  S  S30  1  0.43959028  0.45548741  0.79764808  1
  S  S31  1  0.56042504  0.51217037  0.17969174  1
  S  S32  1  0.91156371  0.52872182  0.98236920  1
  S  S33  1  0.08205884  0.45133878  0.02612480  1
  S  S34  1  0.66304085  0.50141163  0.89488404  1
  S  S35  1  0.33494597  0.42754084  0.11625796  1
  S  S36  1  0.59960698  0.01758786  0.64516447  1
  S  S37  1  0.40203706  0.07099520  0.33620702  1
  S  S38  1  0.24219975  0.54371157  0.32241499  1
  S  S39  1  0.76062655  0.48366544  0.68543667  1
  S  S40  1  0.67200111  0.98898150  0.45784519  1
  S  S41  1  0.33248882  0.93483022  0.54739619  1
