# generated using pymatgen
data_Pr2Mn3(SbS3)4
_symmetry_space_group_name_H-M   'P 1'
_cell_length_a   20.02960800
_cell_length_b   3.90410600
_cell_length_c   14.95364829
_cell_angle_alpha   90.00000000
_cell_angle_beta   126.33350609
_cell_angle_gamma   90.00000000
_symmetry_Int_Tables_number   1
_chemical_formula_structural   Pr2Mn3(SbS3)4
_chemical_formula_sum   'Pr4 Mn6 Sb8 S24'
_cell_volume   942.00006694
_cell_formula_units_Z   2
loop_
 _symmetry_equiv_pos_site_id
 _symmetry_equiv_pos_as_xyz
  1  'x, y, z'
loop_
 _atom_site_type_symbol
 _atom_site_label
 _atom_site_symmetry_multiplicity
 _atom_site_fract_x
 _atom_site_fract_y
 _atom_site_fract_z
 _atom_site_occupancy
  Pr  Pr0  1  0.26863036  0.48363967  0.88199407  1
  Pr  Pr1  1  0.73190517  0.50666862  0.13457071  1
  Pr  Pr2  1  0.76394892  0.02850516  0.87146245  1
  Pr  Pr3  1  0.23146924  0.92104377  0.12475629  1
  Mn  Mn4  1  0.29416712  0.40812392  0.59813654  1
  Mn  Mn5  1  0.69574928  0.49615783  0.36498120  1
  Mn  Mn6  1  0.01011265  0.97540430  0.01470007  1
  Mn  Mn7  1  0.80056775  0.97641279  0.63040076  1
  Mn  Mn8  1  0.20868548  0.06399424  0.39153079  1
  Mn  Mn9  1  0.48570212  0.48050983  0.98604847  1
  Sb  Sb10  1  0.89288611  0.93714956  0.46114941  1
  Sb  Sb11  1  0.11222435  0.99115159  0.54984214  1
  Sb  Sb12  1  0.03891804  0.51469714  0.82679250  1
  Sb  Sb13  1  0.96541980  0.47217420  0.19919660  1
  Sb  Sb14  1  0.40381998  0.56200522  0.44899971  1
  Sb  Sb15  1  0.60423918  0.50642821  0.53378967  1
  Sb  Sb16  1  0.52420525  0.95937390  0.79148126  1
  Sb  Sb17  1  0.47301149  0.03388924  0.17927352  1
  S  S18  1  0.93720283  0.02101291  0.79411588  1
  S  S19  1  0.05300235  0.97475210  0.18414357  1
  S  S20  1  0.41512838  0.95319096  0.97980207  1
  S  S21  1  0.58117617  0.98931263  0.00490864  1
  S  S22  1  0.17534399  0.99145810  0.90979822  1
  S  S23  1  0.82832640  0.01021779  0.10031968  1
  S  S24  1  0.09998225  0.53054810  0.65159517  1
  S  S25  1  0.90399540  0.44906155  0.35837999  1
  S  S26  1  0.73661773  0.97885147  0.30954796  1
  S  S27  1  0.25781770  0.90331062  0.68367329  1
  S  S28  1  0.15623888  0.53723692  0.43274720  1
  S  S29  1  0.81196111  0.44751072  0.54487768  1
  S  S30  1  0.43951740  0.45444246  0.79739191  1
  S  S31  1  0.56077039  0.51215255  0.17988783  1
  S  S32  1  0.91172232  0.52726694  0.98268378  1
  S  S33  1  0.08211386  0.45124887  0.02613621  1
  S  S34  1  0.66301026  0.50171505  0.89528378  1
  S  S35  1  0.33475201  0.42890917  0.11599793  1
  S  S36  1  0.59988299  0.01671013  0.64557396  1
  S  S37  1  0.40186592  0.07070080  0.33628360  1
  S  S38  1  0.24230514  0.54386934  0.32236980  1
  S  S39  1  0.76070485  0.48340304  0.68557213  1
  S  S40  1  0.67173063  0.98882530  0.45764570  1
  S  S41  1  0.33235732  0.93581886  0.54737495  1
