# generated using pymatgen
data_Pr2Mn3(SbS3)4
_symmetry_space_group_name_H-M   'P 1'
_cell_length_a   20.02960800
_cell_length_b   3.90410600
_cell_length_c   14.95364829
_cell_angle_alpha   90.00000000
_cell_angle_beta   126.33350609
_cell_angle_gamma   90.00000000
_symmetry_Int_Tables_number   1
_chemical_formula_structural   Pr2Mn3(SbS3)4
_chemical_formula_sum   'Pr4 Mn6 Sb8 S24'
_cell_volume   942.00006694
_cell_formula_units_Z   2
loop_
 _symmetry_equiv_pos_site_id
 _symmetry_equiv_pos_as_xyz
  1  'x, y, z'
loop_
 _atom_site_type_symbol
 _atom_site_label
 _atom_site_symmetry_multiplicity
 _atom_site_fract_x
 _atom_site_fract_y
 _atom_site_fract_z
 _atom_site_occupancy
  Pr  Pr0  1  0.26859514  0.48378397  0.88202414  1
  Pr  Pr1  1  0.73188170  0.50604041  0.13452511  1
  Pr  Pr2  1  0.76388415  0.02923769  0.87130280  1
  Pr  Pr3  1  0.23137725  0.92064632  0.12464810  1
  Mn  Mn4  1  0.29402208  0.40886909  0.59789453  1
  Mn  Mn5  1  0.69565016  0.49691071  0.36487733  1
  Mn  Mn6  1  0.01005769  0.97527890  0.01453002  1
  Mn  Mn7  1  0.80062761  0.97614096  0.63065382  1
  Mn  Mn8  1  0.20877637  0.06377584  0.39176949  1
  Mn  Mn9  1  0.48562307  0.48030174  0.98579940  1
  Sb  Sb10  1  0.89297855  0.93707997  0.46112775  1
  Sb  Sb11  1  0.11222207  0.99123091  0.54976780  1
  Sb  Sb12  1  0.03877197  0.51464025  0.82661706  1
  Sb  Sb13  1  0.96553394  0.47254454  0.19948952  1
  Sb  Sb14  1  0.40383355  0.56184428  0.44915356  1
  Sb  Sb15  1  0.60428893  0.50680331  0.53385273  1
  Sb  Sb16  1  0.52415713  0.95976000  0.79144851  1
  Sb  Sb17  1  0.47300688  0.03369420  0.17935963  1
  S  S18  1  0.93721144  0.02088844  0.79400229  1
  S  S19  1  0.05315459  0.97347642  0.18441300  1
  S  S20  1  0.41508054  0.95329424  0.97960335  1
  S  S21  1  0.58141282  0.98785136  0.00479029  1
  S  S22  1  0.17524820  0.99076851  0.90973038  1
  S  S23  1  0.82811782  0.01059190  0.10060478  1
  S  S24  1  0.10008542  0.53054236  0.65191559  1
  S  S25  1  0.90359731  0.44883665  0.35796954  1
  S  S26  1  0.73678219  0.97947760  0.30956822  1
  S  S27  1  0.25796772  0.90386175  0.68356633  1
  S  S28  1  0.15629649  0.53660618  0.43280608  1
  S  S29  1  0.81199453  0.44693500  0.54499214  1
  S  S30  1  0.43948624  0.45365180  0.79730505  1
  S  S31  1  0.56114022  0.51263548  0.18013335  1
  S  S32  1  0.91194186  0.52591251  0.98307958  1
  S  S33  1  0.08220045  0.45166507  0.02598456  1
  S  S34  1  0.66297777  0.50221696  0.89557685  1
  S  S35  1  0.33461092  0.43040467  0.11588304  1
  S  S36  1  0.60009205  0.01653928  0.64587863  1
  S  S37  1  0.40170272  0.07065398  0.33641878  1
  S  S38  1  0.24241810  0.54389585  0.32216816  1
  S  S39  1  0.76070809  0.48313966  0.68579770  1
  S  S40  1  0.67139585  0.98907944  0.45726551  1
  S  S41  1  0.33213569  0.93673503  0.54726252  1
