# generated using pymatgen
data_Pr2Mn3(SbS3)4
_symmetry_space_group_name_H-M   'P 1'
_cell_length_a   20.02960800
_cell_length_b   3.90410600
_cell_length_c   14.95364829
_cell_angle_alpha   90.00000000
_cell_angle_beta   126.33350609
_cell_angle_gamma   90.00000000
_symmetry_Int_Tables_number   1
_chemical_formula_structural   Pr2Mn3(SbS3)4
_chemical_formula_sum   'Pr4 Mn6 Sb8 S24'
_cell_volume   942.00006694
_cell_formula_units_Z   2
loop_
 _symmetry_equiv_pos_site_id
 _symmetry_equiv_pos_as_xyz
  1  'x, y, z'
loop_
 _atom_site_type_symbol
 _atom_site_label
 _atom_site_symmetry_multiplicity
 _atom_site_fract_x
 _atom_site_fract_y
 _atom_site_fract_z
 _atom_site_occupancy
  Pr  Pr0  1  0.26854659  0.48389799  0.88203891  1
  Pr  Pr1  1  0.73185646  0.50550295  0.13448438  1
  Pr  Pr2  1  0.76380357  0.02972012  0.87105374  1
  Pr  Pr3  1  0.23129367  0.92010257  0.12449590  1
  Mn  Mn4  1  0.29391634  0.40969625  0.59783359  1
  Mn  Mn5  1  0.69561572  0.49797975  0.36478692  1
  Mn  Mn6  1  0.00998580  0.97494308  0.01439073  1
  Mn  Mn7  1  0.80072457  0.97571541  0.63087005  1
  Mn  Mn8  1  0.20881424  0.06390342  0.39194169  1
  Mn  Mn9  1  0.48561214  0.48037676  0.98555282  1
  Sb  Sb10  1  0.89309881  0.93712269  0.46109256  1
  Sb  Sb11  1  0.11213283  0.99130087  0.54960403  1
  Sb  Sb12  1  0.03859450  0.51455249  0.82643423  1
  Sb  Sb13  1  0.96565347  0.47266297  0.19974121  1
  Sb  Sb14  1  0.40380145  0.56160998  0.44927453  1
  Sb  Sb15  1  0.60433250  0.50696056  0.53390569  1
  Sb  Sb16  1  0.52407954  0.96056895  0.79133497  1
  Sb  Sb17  1  0.47294736  0.03336335  0.17942625  1
  S  S18  1  0.93727061  0.01980816  0.79407391  1
  S  S19  1  0.05342499  0.97212802  0.18477922  1
  S  S20  1  0.41501954  0.95340505  0.97936574  1
  S  S21  1  0.58169319  0.98638171  0.00485250  1
  S  S22  1  0.17502372  0.99021486  0.90945924  1
  S  S23  1  0.82792091  0.01095072  0.10095067  1
  S  S24  1  0.10007555  0.53044576  0.65212386  1
  S  S25  1  0.90315837  0.44959715  0.35740662  1
  S  S26  1  0.73700736  0.98041837  0.30958535  1
  S  S27  1  0.25803871  0.90348813  0.68339212  1
  S  S28  1  0.15627136  0.53617609  0.43267687  1
  S  S29  1  0.81201931  0.44626706  0.54491190  1
  S  S30  1  0.43938396  0.45289491  0.79710293  1
  S  S31  1  0.56139461  0.51302613  0.18021862  1
  S  S32  1  0.91204653  0.52468794  0.98351123  1
  S  S33  1  0.08235401  0.45211468  0.02595431  1
  S  S34  1  0.66288997  0.50263477  0.89576896  1
  S  S35  1  0.33450295  0.43170869  0.11575502  1
  S  S36  1  0.60017558  0.01634246  0.64613260  1
  S  S37  1  0.40141929  0.07070712  0.33638144  1
  S  S38  1  0.24235253  0.54396544  0.32165750  1
  S  S39  1  0.76069961  0.48297596  0.68597561  1
  S  S40  1  0.67105833  0.98928390  0.45683050  1
  S  S41  1  0.33194641  0.93758344  0.54719498  1
