# generated using pymatgen
data_Pr2Mn3(SbS3)4
_symmetry_space_group_name_H-M   'P 1'
_cell_length_a   20.02960800
_cell_length_b   3.90410600
_cell_length_c   14.95364829
_cell_angle_alpha   90.00000000
_cell_angle_beta   126.33350609
_cell_angle_gamma   90.00000000
_symmetry_Int_Tables_number   1
_chemical_formula_structural   Pr2Mn3(SbS3)4
_chemical_formula_sum   'Pr4 Mn6 Sb8 S24'
_cell_volume   942.00006694
_cell_formula_units_Z   2
loop_
 _symmetry_equiv_pos_site_id
 _symmetry_equiv_pos_as_xyz
  1  'x, y, z'
loop_
 _atom_site_type_symbol
 _atom_site_label
 _atom_site_symmetry_multiplicity
 _atom_site_fract_x
 _atom_site_fract_y
 _atom_site_fract_z
 _atom_site_occupancy
  Pr  Pr0  1  0.26842159  0.48392364  0.88203376  1
  Pr  Pr1  1  0.73180071  0.50507692  0.13434914  1
  Pr  Pr2  1  0.76376888  0.03022322  0.87086597  1
  Pr  Pr3  1  0.23121366  0.91971544  0.12438543  1
  Mn  Mn4  1  0.29380363  0.41076228  0.59779504  1
  Mn  Mn5  1  0.69562038  0.49913175  0.36481411  1
  Mn  Mn6  1  0.00998357  0.97401247  0.01426978  1
  Mn  Mn7  1  0.80087032  0.97496905  0.63104982  1
  Mn  Mn8  1  0.20885172  0.06371231  0.39202919  1
  Mn  Mn9  1  0.48557772  0.48032620  0.98532078  1
  Sb  Sb10  1  0.89322208  0.93723520  0.46099980  1
  Sb  Sb11  1  0.11201432  0.99138406  0.54943065  1
  Sb  Sb12  1  0.03847391  0.51424850  0.82625725  1
  Sb  Sb13  1  0.96576486  0.47285983  0.19994483  1
  Sb  Sb14  1  0.40371445  0.56140261  0.44928201  1
  Sb  Sb15  1  0.60435049  0.50698903  0.53388143  1
  Sb  Sb16  1  0.52403649  0.96126515  0.79129352  1
  Sb  Sb17  1  0.47288012  0.03328067  0.17953565  1
  S  S18  1  0.93740975  0.01912494  0.79418664  1
  S  S19  1  0.05364045  0.97053814  0.18519598  1
  S  S20  1  0.41492126  0.95350234  0.97906001  1
  S  S21  1  0.58194818  0.98474694  0.00484668  1
  S  S22  1  0.17471451  0.98964922  0.90916606  1
  S  S23  1  0.82779064  0.01184328  0.10129056  1
  S  S24  1  0.10009417  0.53034851  0.65240713  1
  S  S25  1  0.90277433  0.45050983  0.35690440  1
  S  S26  1  0.73724191  0.98140831  0.30961905  1
  S  S27  1  0.25811874  0.90309349  0.68331175  1
  S  S28  1  0.15634555  0.53555757  0.43262882  1
  S  S29  1  0.81208054  0.44615694  0.54476361  1
  S  S30  1  0.43923588  0.45169727  0.79687784  1
  S  S31  1  0.56155911  0.51412141  0.18026421  1
  S  S32  1  0.91212214  0.52366407  0.98381471  1
  S  S33  1  0.08251688  0.45294458  0.02596766  1
  S  S34  1  0.66277044  0.50308592  0.89598364  1
  S  S35  1  0.33443701  0.43315128  0.11560668  1
  S  S36  1  0.60013070  0.01588318  0.64625371  1
  S  S37  1  0.40112721  0.07010156  0.33633616  1
  S  S38  1  0.24224759  0.54507732  0.32116801  1
  S  S39  1  0.76072563  0.48269851  0.68624736  1
  S  S40  1  0.67080132  0.98962377  0.45657261  1
  S  S41  1  0.33174230  0.93833476  0.54723576  1
