# generated using pymatgen
data_Pr2Mn3(SbS3)4
_symmetry_space_group_name_H-M   'P 1'
_cell_length_a   20.02960800
_cell_length_b   3.90410600
_cell_length_c   14.95364829
_cell_angle_alpha   90.00000000
_cell_angle_beta   126.33350609
_cell_angle_gamma   90.00000000
_symmetry_Int_Tables_number   1
_chemical_formula_structural   Pr2Mn3(SbS3)4
_chemical_formula_sum   'Pr4 Mn6 Sb8 S24'
_cell_volume   942.00006694
_cell_formula_units_Z   2
loop_
 _symmetry_equiv_pos_site_id
 _symmetry_equiv_pos_as_xyz
  1  'x, y, z'
loop_
 _atom_site_type_symbol
 _atom_site_label
 _atom_site_symmetry_multiplicity
 _atom_site_fract_x
 _atom_site_fract_y
 _atom_site_fract_z
 _atom_site_occupancy
  Pr  Pr0  1  0.26831914  0.48398609  0.88205967  1
  Pr  Pr1  1  0.73176235  0.50465785  0.13418516  1
  Pr  Pr2  1  0.76374198  0.03088574  0.87071526  1
  Pr  Pr3  1  0.23110199  0.91934901  0.12427348  1
  Mn  Mn4  1  0.29368612  0.41215285  0.59781996  1
  Mn  Mn5  1  0.69568367  0.50042926  0.36490982  1
  Mn  Mn6  1  0.01003122  0.97292549  0.01409032  1
  Mn  Mn7  1  0.80093795  0.97467562  0.63107062  1
  Mn  Mn8  1  0.20885578  0.06338910  0.39213246  1
  Mn  Mn9  1  0.48556727  0.48034695  0.98508532  1
  Sb  Sb10  1  0.89332115  0.93712735  0.46087357  1
  Sb  Sb11  1  0.11189367  0.99165565  0.54930009  1
  Sb  Sb12  1  0.03836610  0.51402217  0.82601992  1
  Sb  Sb13  1  0.96584922  0.47287236  0.20012149  1
  Sb  Sb14  1  0.40361404  0.56128093  0.44930299  1
  Sb  Sb15  1  0.60435803  0.50718849  0.53387543  1
  Sb  Sb16  1  0.52398606  0.96188118  0.79125180  1
  Sb  Sb17  1  0.47283382  0.03284188  0.17962688  1
  S  S18  1  0.93754320  0.01840797  0.79419899  1
  S  S19  1  0.05387929  0.96932147  0.18567446  1
  S  S20  1  0.41476550  0.95393371  0.97871856  1
  S  S21  1  0.58229874  0.98359914  0.00496040  1
  S  S22  1  0.17459828  0.98907613  0.90887402  1
  S  S23  1  0.82742185  0.01236402  0.10124880  1
  S  S24  1  0.10019436  0.53063989  0.65258990  1
  S  S25  1  0.90246762  0.45082198  0.35655189  1
  S  S26  1  0.73753259  0.98262918  0.30979994  1
  S  S27  1  0.25814756  0.90281784  0.68312964  1
  S  S28  1  0.15645347  0.53502238  0.43262597  1
  S  S29  1  0.81213725  0.44578624  0.54480674  1
  S  S30  1  0.43902959  0.45042817  0.79656234  1
  S  S31  1  0.56170762  0.51519208  0.18026396  1
  S  S32  1  0.91230626  0.52293292  0.98417684  1
  S  S33  1  0.08267766  0.45379797  0.02595583  1
  S  S34  1  0.66268623  0.50382668  0.89612936  1
  S  S35  1  0.33453004  0.43422660  0.11555376  1
  S  S36  1  0.60020106  0.01548670  0.64648055  1
  S  S37  1  0.40078040  0.06940262  0.33635815  1
  S  S38  1  0.24228503  0.54601805  0.32084162  1
  S  S39  1  0.76066859  0.48233451  0.68648317  1
  S  S40  1  0.67067111  0.98958625  0.45646622  1
  S  S41  1  0.33154699  0.93873780  0.54719363  1
