# generated using pymatgen
data_Pr2Mn3(SbS3)4
_symmetry_space_group_name_H-M   'P 1'
_cell_length_a   20.02960800
_cell_length_b   3.90410600
_cell_length_c   14.95364829
_cell_angle_alpha   90.00000000
_cell_angle_beta   126.33350609
_cell_angle_gamma   90.00000000
_symmetry_Int_Tables_number   1
_chemical_formula_structural   Pr2Mn3(SbS3)4
_chemical_formula_sum   'Pr4 Mn6 Sb8 S24'
_cell_volume   942.00006694
_cell_formula_units_Z   2
loop_
 _symmetry_equiv_pos_site_id
 _symmetry_equiv_pos_as_xyz
  1  'x, y, z'
loop_
 _atom_site_type_symbol
 _atom_site_label
 _atom_site_symmetry_multiplicity
 _atom_site_fract_x
 _atom_site_fract_y
 _atom_site_fract_z
 _atom_site_occupancy
  Pr  Pr0  1  0.26820393  0.48403348  0.88211489  1
  Pr  Pr1  1  0.73171283  0.50421011  0.13403849  1
  Pr  Pr2  1  0.76371484  0.03163487  0.87051343  1
  Pr  Pr3  1  0.23103033  0.91910049  0.12419417  1
  Mn  Mn4  1  0.29352062  0.41311544  0.59766327  1
  Mn  Mn5  1  0.69575944  0.50176049  0.36513881  1
  Mn  Mn6  1  0.01007604  0.97153107  0.01400607  1
  Mn  Mn7  1  0.80100112  0.97442103  0.63107057  1
  Mn  Mn8  1  0.20877328  0.06268632  0.39223053  1
  Mn  Mn9  1  0.48556479  0.48025589  0.98471693  1
  Sb  Sb10  1  0.89337274  0.93678492  0.46075662  1
  Sb  Sb11  1  0.11173702  0.99191812  0.54918949  1
  Sb  Sb12  1  0.03830817  0.51363421  0.82579570  1
  Sb  Sb13  1  0.96597794  0.47273828  0.20035537  1
  Sb  Sb14  1  0.40349274  0.56109233  0.44931159  1
  Sb  Sb15  1  0.60436242  0.50748036  0.53385133  1
  Sb  Sb16  1  0.52396511  0.96243658  0.79121607  1
  Sb  Sb17  1  0.47280243  0.03253361  0.17972710  1
  S  S18  1  0.93761183  0.01779418  0.79413323  1
  S  S19  1  0.05414242  0.96814191  0.18610831  1
  S  S20  1  0.41465670  0.95416789  0.97844100  1
  S  S21  1  0.58255798  0.98238150  0.00508563  1
  S  S22  1  0.17443296  0.98829389  0.90835764  1
  S  S23  1  0.82723526  0.01279477  0.10133314  1
  S  S24  1  0.10042007  0.53052129  0.65266909  1
  S  S25  1  0.90217605  0.45071472  0.35617103  1
  S  S26  1  0.73770460  0.98378977  0.31002177  1
  S  S27  1  0.25810025  0.90284250  0.68291527  1
  S  S28  1  0.15641518  0.53464045  0.43255086  1
  S  S29  1  0.81220043  0.44556649  0.54485603  1
  S  S30  1  0.43865749  0.44974018  0.79610521  1
  S  S31  1  0.56187795  0.51554134  0.18037974  1
  S  S32  1  0.91243001  0.52217081  0.98450132  1
  S  S33  1  0.08289486  0.45489151  0.02594817  1
  S  S34  1  0.66263102  0.50445730  0.89619385  1
  S  S35  1  0.33461831  0.43525840  0.11539484  1
  S  S36  1  0.60014892  0.01530439  0.64666896  1
  S  S37  1  0.40049332  0.06854436  0.33619200  1
  S  S38  1  0.24243718  0.54712486  0.32066938  1
  S  S39  1  0.76073675  0.48209395  0.68681742  1
  S  S40  1  0.67051842  0.98961341  0.45622980  1
  S  S41  1  0.33139752  0.93947910  0.54715516  1
