# generated using pymatgen
data_Pr2Mn3(SbS3)4
_symmetry_space_group_name_H-M   'P 1'
_cell_length_a   20.02960800
_cell_length_b   3.90410600
_cell_length_c   14.95364829
_cell_angle_alpha   90.00000000
_cell_angle_beta   126.33350609
_cell_angle_gamma   90.00000000
_symmetry_Int_Tables_number   1
_chemical_formula_structural   Pr2Mn3(SbS3)4
_chemical_formula_sum   'Pr4 Mn6 Sb8 S24'
_cell_volume   942.00006694
_cell_formula_units_Z   2
loop_
 _symmetry_equiv_pos_site_id
 _symmetry_equiv_pos_as_xyz
  1  'x, y, z'
loop_
 _atom_site_type_symbol
 _atom_site_label
 _atom_site_symmetry_multiplicity
 _atom_site_fract_x
 _atom_site_fract_y
 _atom_site_fract_z
 _atom_site_occupancy
  Pr  Pr0  1  0.26809348  0.48399438  0.88212920  1
  Pr  Pr1  1  0.73169681  0.50387603  0.13389973  1
  Pr  Pr2  1  0.76367693  0.03233174  0.87030957  1
  Pr  Pr3  1  0.23099266  0.91896243  0.12412473  1
  Mn  Mn4  1  0.29337386  0.41407795  0.59756149  1
  Mn  Mn5  1  0.69581284  0.50341431  0.36546003  1
  Mn  Mn6  1  0.01015358  0.97030362  0.01391639  1
  Mn  Mn7  1  0.80104616  0.97457568  0.63111861  1
  Mn  Mn8  1  0.20879355  0.06224201  0.39247929  1
  Mn  Mn9  1  0.48560261  0.48006645  0.98447254  1
  Sb  Sb10  1  0.89339859  0.93637300  0.46060939  1
  Sb  Sb11  1  0.11167945  0.99234114  0.54919966  1
  Sb  Sb12  1  0.03827130  0.51302080  0.82558259  1
  Sb  Sb13  1  0.96612175  0.47277804  0.20056335  1
  Sb  Sb14  1  0.40340149  0.56090624  0.44933340  1
  Sb  Sb15  1  0.60437342  0.50789059  0.53388593  1
  Sb  Sb16  1  0.52391041  0.96281967  0.79115789  1
  Sb  Sb17  1  0.47283714  0.03208880  0.17982008  1
  S  S18  1  0.93752012  0.01720807  0.79405910  1
  S  S19  1  0.05430299  0.96641200  0.18648646  1
  S  S20  1  0.41458782  0.95385169  0.97825780  1
  S  S21  1  0.58281213  0.98144717  0.00530007  1
  S  S22  1  0.17424394  0.98710529  0.90783840  1
  S  S23  1  0.82695406  0.01310124  0.10137068  1
  S  S24  1  0.10068320  0.53017154  0.65265884  1
  S  S25  1  0.90188908  0.45059394  0.35567793  1
  S  S26  1  0.73793490  0.98522131  0.31035743  1
  S  S27  1  0.25811454  0.90304277  0.68295651  1
  S  S28  1  0.15630521  0.53399922  0.43237760  1
  S  S29  1  0.81227505  0.44563258  0.54492870  1
  S  S30  1  0.43841858  0.44894249  0.79576979  1
  S  S31  1  0.56200048  0.51540229  0.18054581  1
  S  S32  1  0.91249494  0.52175176  0.98468245  1
  S  S33  1  0.08321509  0.45594575  0.02611067  1
  S  S34  1  0.66256217  0.50502730  0.89613916  1
  S  S35  1  0.33469084  0.43619949  0.11518543  1
  S  S36  1  0.60002150  0.01523979  0.64675170  1
  S  S37  1  0.40017407  0.06772531  0.33597345  1
  S  S38  1  0.24266236  0.54837655  0.32054121  1
  S  S39  1  0.76081279  0.48188950  0.68699790  1
  S  S40  1  0.67033616  0.98907778  0.45607200  1
  S  S41  1  0.33128169  0.94025420  0.54704883  1
