# generated using pymatgen
data_Pr2Mn3(SbS3)4
_symmetry_space_group_name_H-M   'P 1'
_cell_length_a   20.02960800
_cell_length_b   3.90410600
_cell_length_c   14.95364829
_cell_angle_alpha   90.00000000
_cell_angle_beta   126.33350609
_cell_angle_gamma   90.00000000
_symmetry_Int_Tables_number   1
_chemical_formula_structural   Pr2Mn3(SbS3)4
_chemical_formula_sum   'Pr4 Mn6 Sb8 S24'
_cell_volume   942.00006694
_cell_formula_units_Z   2
loop_
 _symmetry_equiv_pos_site_id
 _symmetry_equiv_pos_as_xyz
  1  'x, y, z'
loop_
 _atom_site_type_symbol
 _atom_site_label
 _atom_site_symmetry_multiplicity
 _atom_site_fract_x
 _atom_site_fract_y
 _atom_site_fract_z
 _atom_site_occupancy
  Pr  Pr0  1  0.26798369  0.48400111  0.88216916  1
  Pr  Pr1  1  0.73164950  0.50362813  0.13375477  1
  Pr  Pr2  1  0.76364513  0.03312055  0.87014417  1
  Pr  Pr3  1  0.23099942  0.91897907  0.12408340  1
  Mn  Mn4  1  0.29320103  0.41535540  0.59748426  1
  Mn  Mn5  1  0.69587309  0.50461154  0.36579259  1
  Mn  Mn6  1  0.01013904  0.96950472  0.01371308  1
  Mn  Mn7  1  0.80114729  0.97469909  0.63113668  1
  Mn  Mn8  1  0.20874754  0.06161045  0.39273508  1
  Mn  Mn9  1  0.48560354  0.47980092  0.98425364  1
  Sb  Sb10  1  0.89344741  0.93586878  0.46044280  1
  Sb  Sb11  1  0.11163732  0.99300673  0.54917822  1
  Sb  Sb12  1  0.03823684  0.51218763  0.82538533  1
  Sb  Sb13  1  0.96631399  0.47288870  0.20087686  1
  Sb  Sb14  1  0.40336375  0.56083336  0.44943558  1
  Sb  Sb15  1  0.60439200  0.50845471  0.53393976  1
  Sb  Sb16  1  0.52383150  0.96317705  0.79102381  1
  Sb  Sb17  1  0.47284053  0.03151812  0.17989663  1
  S  S18  1  0.93753892  0.01668453  0.79400292  1
  S  S19  1  0.05458900  0.96513980  0.18708498  1
  S  S20  1  0.41447087  0.95324572  0.97811452  1
  S  S21  1  0.58294589  0.98074529  0.00540057  1
  S  S22  1  0.17414822  0.98573770  0.90730283  1
  S  S23  1  0.82675647  0.01325427  0.10147806  1
  S  S24  1  0.10072027  0.53026989  0.65246879  1
  S  S25  1  0.90157373  0.45079981  0.35513359  1
  S  S26  1  0.73812303  0.98649154  0.31074787  1
  S  S27  1  0.25821845  0.90276423  0.68301259  1
  S  S28  1  0.15616226  0.53348945  0.43226809  1
  S  S29  1  0.81241175  0.44562700  0.54508179  1
  S  S30  1  0.43824784  0.44814234  0.79550077  1
  S  S31  1  0.56218674  0.51541270  0.18069240  1
  S  S32  1  0.91247734  0.52185697  0.98490451  1
  S  S33  1  0.08353600  0.45660244  0.02634443  1
  S  S34  1  0.66251961  0.50545803  0.89599032  1
  S  S35  1  0.33471114  0.43748339  0.11510234  1
  S  S36  1  0.59999125  0.01554266  0.64683232  1
  S  S37  1  0.39986859  0.06694274  0.33571698  1
  S  S38  1  0.24282087  0.55002557  0.32048719  1
  S  S39  1  0.76095910  0.48164599  0.68708077  1
  S  S40  1  0.67018469  0.98837050  0.45593525  1
  S  S41  1  0.33112742  0.94099186  0.54683021  1
