# generated using pymatgen
data_Pr2Mn3(SbS3)4
_symmetry_space_group_name_H-M   'P 1'
_cell_length_a   20.02960800
_cell_length_b   3.90410600
_cell_length_c   14.95364829
_cell_angle_alpha   90.00000000
_cell_angle_beta   126.33350609
_cell_angle_gamma   90.00000000
_symmetry_Int_Tables_number   1
_chemical_formula_structural   Pr2Mn3(SbS3)4
_chemical_formula_sum   'Pr4 Mn6 Sb8 S24'
_cell_volume   942.00006694
_cell_formula_units_Z   2
loop_
 _symmetry_equiv_pos_site_id
 _symmetry_equiv_pos_as_xyz
  1  'x, y, z'
loop_
 _atom_site_type_symbol
 _atom_site_label
 _atom_site_symmetry_multiplicity
 _atom_site_fract_x
 _atom_site_fract_y
 _atom_site_fract_z
 _atom_site_occupancy
  Pr  Pr0  1  0.26486585  0.48194573  0.87043550  1
  Pr  Pr1  1  0.73712622  0.50772482  0.13576301  1
  Pr  Pr2  1  0.76176628  0.00978242  0.86101935  1
  Pr  Pr3  1  0.23701609  0.99864856  0.14013427  1
  Mn  Mn4  1  0.29616855  0.49697341  0.61225028  1
  Mn  Mn5  1  0.69591832  0.51432587  0.38005653  1
  Mn  Mn6  1  0.00255073  0.99934785  0.99973641  1
  Mn  Mn7  1  0.80292497  0.98895150  0.61570047  1
  Mn  Mn8  1  0.19758182  0.97468212  0.38006274  1
  Mn  Mn9  1  0.50277786  0.47789926  0.99436489  1
  Sb  Sb10  1  0.89343943  0.00309508  0.45507313  1
  Sb  Sb11  1  0.11060053  0.97435855  0.55190301  1
  Sb  Sb12  1  0.03953236  0.49421953  0.81612519  1
  Sb  Sb13  1  0.96230146  0.52639381  0.18766856  1
  Sb  Sb14  1  0.39738454  0.49651405  0.45740235  1
  Sb  Sb15  1  0.60704361  0.49500972  0.54884859  1
  Sb  Sb16  1  0.53728290  0.00799758  0.81567297  1
  Sb  Sb17  1  0.46250412  0.00341852  0.18144119  1
  S  S18  1  0.93513439  0.98044139  0.79701724  1
  S  S19  1  0.06390499  0.99235098  0.19278412  1
  S  S20  1  0.40978330  0.00484762  0.97824520  1
  S  S21  1  0.59216626  0.99184271  0.01918851  1
  S  S22  1  0.17208875  0.99278459  0.89682626  1
  S  S23  1  0.82751455  0.01953604  0.10173173  1
  S  S24  1  0.08569809  0.46224917  0.64408039  1
  S  S25  1  0.91455056  0.48790330  0.36162547  1
  S  S26  1  0.74303094  0.94288377  0.29703797  1
  S  S27  1  0.25775665  0.00355750  0.70243071  1
  S  S28  1  0.16400486  0.48775631  0.44460919  1
  S  S29  1  0.83062637  0.48104258  0.55011616  1
  S  S30  1  0.43409879  0.51289298  0.80166240  1
  S  S31  1  0.56172074  0.52166989  0.19216120  1
  S  S32  1  0.90218127  0.49174915  0.97652522  1
  S  S33  1  0.08699190  0.48947848  0.01840784  1
  S  S34  1  0.66400436  0.50713828  0.89310733  1
  S  S35  1  0.33059866  0.52967047  0.10159270  1
  S  S36  1  0.58975464  0.00833892  0.64725776  1
  S  S37  1  0.41166049  0.96562320  0.35402092  1
  S  S38  1  0.24326796  0.48907386  0.30224633  1
  S  S39  1  0.76071897  0.49393372  0.69643450  1
  S  S40  1  0.67262839  0.01622222  0.46442227  1
  S  S41  1  0.33117086  0.98576510  0.54355137  1
