# generated using pymatgen
data_Pr2Mn3(SbS3)4
_symmetry_space_group_name_H-M   'P 1'
_cell_length_a   20.02960800
_cell_length_b   3.90410600
_cell_length_c   14.95364829
_cell_angle_alpha   90.00000000
_cell_angle_beta   126.33350609
_cell_angle_gamma   90.00000000
_symmetry_Int_Tables_number   1
_chemical_formula_structural   Pr2Mn3(SbS3)4
_chemical_formula_sum   'Pr4 Mn6 Sb8 S24'
_cell_volume   942.00006694
_cell_formula_units_Z   2
loop_
 _symmetry_equiv_pos_site_id
 _symmetry_equiv_pos_as_xyz
  1  'x, y, z'
loop_
 _atom_site_type_symbol
 _atom_site_label
 _atom_site_symmetry_multiplicity
 _atom_site_fract_x
 _atom_site_fract_y
 _atom_site_fract_z
 _atom_site_occupancy
  Pr  Pr0  1  0.26785351  0.48409287  0.88218687  1
  Pr  Pr1  1  0.73159264  0.50350099  0.13364969  1
  Pr  Pr2  1  0.76358181  0.03381411  0.86998413  1
  Pr  Pr3  1  0.23098557  0.91894961  0.12405315  1
  Mn  Mn4  1  0.29300576  0.41712315  0.59735194  1
  Mn  Mn5  1  0.69590447  0.50579772  0.36601281  1
  Mn  Mn6  1  0.01011018  0.96872442  0.01355168  1
  Mn  Mn7  1  0.80124632  0.97459050  0.63116514  1
  Mn  Mn8  1  0.20857163  0.06129292  0.39286865  1
  Mn  Mn9  1  0.48556748  0.47959383  0.98405629  1
  Sb  Sb10  1  0.89352159  0.93540700  0.46023834  1
  Sb  Sb11  1  0.11154506  0.99376469  0.54909606  1
  Sb  Sb12  1  0.03819003  0.51118691  0.82522640  1
  Sb  Sb13  1  0.96651365  0.47319131  0.20113961  1
  Sb  Sb14  1  0.40333241  0.56085340  0.44954574  1
  Sb  Sb15  1  0.60436554  0.50898812  0.53397857  1
  Sb  Sb16  1  0.52374398  0.96343941  0.79087807  1
  Sb  Sb17  1  0.47289760  0.03110413  0.18001650  1
  S  S18  1  0.93753828  0.01648157  0.79384513  1
  S  S19  1  0.05490005  0.96488251  0.18762848  1
  S  S20  1  0.41430673  0.95247055  0.97776719  1
  S  S21  1  0.58312959  0.98025946  0.00553670  1
  S  S22  1  0.17408728  0.98485957  0.90681490  1
  S  S23  1  0.82648987  0.01360557  0.10156692  1
  S  S24  1  0.10066388  0.52941887  0.65234469  1
  S  S25  1  0.90128159  0.45121960  0.35472353  1
  S  S26  1  0.73814354  0.98825788  0.31095668  1
  S  S27  1  0.25836399  0.90292315  0.68328958  1
  S  S28  1  0.15608096  0.53333509  0.43227516  1
  S  S29  1  0.81254730  0.44565015  0.54523807  1
  S  S30  1  0.43813387  0.44809825  0.79518450  1
  S  S31  1  0.56231285  0.51565792  0.18091317  1
  S  S32  1  0.91239698  0.52215885  0.98497348  1
  S  S33  1  0.08373129  0.45732786  0.02646073  1
  S  S34  1  0.66245151  0.50581723  0.89594720  1
  S  S35  1  0.33466584  0.43866872  0.11502781  1
  S  S36  1  0.60001328  0.01591479  0.64689832  1
  S  S37  1  0.39945540  0.06601418  0.33534994  1
  S  S38  1  0.24304403  0.55210635  0.32063091  1
  S  S39  1  0.76106493  0.48190748  0.68715996  1
  S  S40  1  0.67018021  0.98733641  0.45586380  1
  S  S41  1  0.33091580  0.94160113  0.54666947  1
