# generated using pymatgen
data_Pr2Mn3(SbS3)4
_symmetry_space_group_name_H-M   'P 1'
_cell_length_a   20.02960800
_cell_length_b   3.90410600
_cell_length_c   14.95364829
_cell_angle_alpha   90.00000000
_cell_angle_beta   126.33350609
_cell_angle_gamma   90.00000000
_symmetry_Int_Tables_number   1
_chemical_formula_structural   Pr2Mn3(SbS3)4
_chemical_formula_sum   'Pr4 Mn6 Sb8 S24'
_cell_volume   942.00006694
_cell_formula_units_Z   2
loop_
 _symmetry_equiv_pos_site_id
 _symmetry_equiv_pos_as_xyz
  1  'x, y, z'
loop_
 _atom_site_type_symbol
 _atom_site_label
 _atom_site_symmetry_multiplicity
 _atom_site_fract_x
 _atom_site_fract_y
 _atom_site_fract_z
 _atom_site_occupancy
  Pr  Pr0  1  0.26775893  0.48414394  0.88224121  1
  Pr  Pr1  1  0.73150771  0.50330993  0.13360393  1
  Pr  Pr2  1  0.76349130  0.03461074  0.86987997  1
  Pr  Pr3  1  0.23093264  0.91870169  0.12401242  1
  Mn  Mn4  1  0.29276836  0.41889825  0.59720269  1
  Mn  Mn5  1  0.69599325  0.50712398  0.36623285  1
  Mn  Mn6  1  0.01007200  0.96759478  0.01340413  1
  Mn  Mn7  1  0.80138921  0.97470479  0.63121596  1
  Mn  Mn8  1  0.20841438  0.06081378  0.39300565  1
  Mn  Mn9  1  0.48548880  0.47972593  0.98394213  1
  Sb  Sb10  1  0.89352569  0.93480489  0.46003354  1
  Sb  Sb11  1  0.11150663  0.99479193  0.54908102  1
  Sb  Sb12  1  0.03815380  0.51042018  0.82517458  1
  Sb  Sb13  1  0.96672938  0.47338664  0.20139814  1
  Sb  Sb14  1  0.40330052  0.56098348  0.44970851  1
  Sb  Sb15  1  0.60433681  0.50941332  0.53399208  1
  Sb  Sb16  1  0.52360111  0.96377764  0.79067738  1
  Sb  Sb17  1  0.47296111  0.03083187  0.18018355  1
  S  S18  1  0.93759503  0.01639469  0.79364188  1
  S  S19  1  0.05520617  0.96471002  0.18819693  1
  S  S20  1  0.41415305  0.95132667  0.97739620  1
  S  S21  1  0.58327087  0.97959216  0.00570790  1
  S  S22  1  0.17387763  0.98409370  0.90636714  1
  S  S23  1  0.82625528  0.01375697  0.10161391  1
  S  S24  1  0.10071566  0.52819698  0.65222717  1
  S  S25  1  0.90092965  0.45147338  0.35434707  1
  S  S26  1  0.73819310  0.98996881  0.31124898  1
  S  S27  1  0.25863000  0.90313460  0.68353107  1
  S  S28  1  0.15600309  0.53289194  0.43215616  1
  S  S29  1  0.81279176  0.44590673  0.54545379  1
  S  S30  1  0.43785741  0.44848267  0.79477672  1
  S  S31  1  0.56249095  0.51589704  0.18123736  1
  S  S32  1  0.91224295  0.52279407  0.98494745  1
  S  S33  1  0.08388649  0.45835100  0.02662150  1
  S  S34  1  0.66237822  0.50551151  0.89583954  1
  S  S35  1  0.33465948  0.43985247  0.11499561  1
  S  S36  1  0.60006509  0.01609339  0.64687752  1
  S  S37  1  0.39915567  0.06500990  0.33512159  1
  S  S38  1  0.24335836  0.55401602  0.32082652  1
  S  S39  1  0.76115456  0.48201028  0.68719608  1
  S  S40  1  0.67015893  0.98639618  0.45592208  1
  S  S41  1  0.33072841  0.94203082  0.54653311  1
