# generated using pymatgen
data_Pr2Mn3(SbS3)4
_symmetry_space_group_name_H-M   'P 1'
_cell_length_a   20.02960800
_cell_length_b   3.90410600
_cell_length_c   14.95364829
_cell_angle_alpha   90.00000000
_cell_angle_beta   126.33350609
_cell_angle_gamma   90.00000000
_symmetry_Int_Tables_number   1
_chemical_formula_structural   Pr2Mn3(SbS3)4
_chemical_formula_sum   'Pr4 Mn6 Sb8 S24'
_cell_volume   942.00006694
_cell_formula_units_Z   2
loop_
 _symmetry_equiv_pos_site_id
 _symmetry_equiv_pos_as_xyz
  1  'x, y, z'
loop_
 _atom_site_type_symbol
 _atom_site_label
 _atom_site_symmetry_multiplicity
 _atom_site_fract_x
 _atom_site_fract_y
 _atom_site_fract_z
 _atom_site_occupancy
  Pr  Pr0  1  0.26766040  0.48390504  0.88226734  1
  Pr  Pr1  1  0.73142563  0.50309915  0.13358915  1
  Pr  Pr2  1  0.76342179  0.03522735  0.86982193  1
  Pr  Pr3  1  0.23092391  0.91856856  0.12404144  1
  Mn  Mn4  1  0.29254886  0.42056485  0.59711017  1
  Mn  Mn5  1  0.69608002  0.50789821  0.36641240  1
  Mn  Mn6  1  0.01010268  0.96640634  0.01328114  1
  Mn  Mn7  1  0.80158614  0.97475646  0.63124663  1
  Mn  Mn8  1  0.20825074  0.06028759  0.39310611  1
  Mn  Mn9  1  0.48543486  0.47943546  0.98384900  1
  Sb  Sb10  1  0.89344747  0.93425589  0.45986118  1
  Sb  Sb11  1  0.11144609  0.99534952  0.54909449  1
  Sb  Sb12  1  0.03814085  0.50976871  0.82518007  1
  Sb  Sb13  1  0.96694119  0.47331912  0.20161676  1
  Sb  Sb14  1  0.40330531  0.56111498  0.44983590  1
  Sb  Sb15  1  0.60429147  0.50996947  0.53389018  1
  Sb  Sb16  1  0.52343802  0.96418112  0.79048152  1
  Sb  Sb17  1  0.47303088  0.03073653  0.18039006  1
  S  S18  1  0.93756340  0.01644484  0.79355451  1
  S  S19  1  0.05543340  0.96430161  0.18862694  1
  S  S20  1  0.41405932  0.95044914  0.97715594  1
  S  S21  1  0.58348258  0.97929748  0.00595228  1
  S  S22  1  0.17367482  0.98351289  0.90613638  1
  S  S23  1  0.82613743  0.01386022  0.10179558  1
  S  S24  1  0.10086059  0.52707415  0.65223284  1
  S  S25  1  0.90039573  0.45180454  0.35386468  1
  S  S26  1  0.73827914  0.99188161  0.31160864  1
  S  S27  1  0.25892438  0.90337215  0.68372456  1
  S  S28  1  0.15592626  0.53212204  0.43220613  1
  S  S29  1  0.81292373  0.44593603  0.54563058  1
  S  S30  1  0.43757297  0.44858163  0.79435421  1
  S  S31  1  0.56262723  0.51619212  0.18155526  1
  S  S32  1  0.91216452  0.52327342  0.98501360  1
  S  S33  1  0.08382419  0.45909878  0.02660040  1
  S  S34  1  0.66222649  0.50544711  0.89555716  1
  S  S35  1  0.33474510  0.44060935  0.11508693  1
  S  S36  1  0.60009349  0.01626464  0.64695507  1
  S  S37  1  0.39886360  0.06350822  0.33480031  1
  S  S38  1  0.24372597  0.55590768  0.32101148  1
  S  S39  1  0.76126055  0.48189501  0.68715211  1
  S  S40  1  0.67004954  0.98541670  0.45592091  1
  S  S41  1  0.33055993  0.94226907  0.54642916  1
