# generated using pymatgen
data_Pr2Mn3(SbS3)4
_symmetry_space_group_name_H-M   'P 1'
_cell_length_a   20.02960800
_cell_length_b   3.90410600
_cell_length_c   14.95364829
_cell_angle_alpha   90.00000000
_cell_angle_beta   126.33350609
_cell_angle_gamma   90.00000000
_symmetry_Int_Tables_number   1
_chemical_formula_structural   Pr2Mn3(SbS3)4
_chemical_formula_sum   'Pr4 Mn6 Sb8 S24'
_cell_volume   942.00006694
_cell_formula_units_Z   2
loop_
 _symmetry_equiv_pos_site_id
 _symmetry_equiv_pos_as_xyz
  1  'x, y, z'
loop_
 _atom_site_type_symbol
 _atom_site_label
 _atom_site_symmetry_multiplicity
 _atom_site_fract_x
 _atom_site_fract_y
 _atom_site_fract_z
 _atom_site_occupancy
  Pr  Pr0  1  0.26758925  0.48363388  0.88229519  1
  Pr  Pr1  1  0.73135511  0.50288154  0.13358618  1
  Pr  Pr2  1  0.76334748  0.03576773  0.86978648  1
  Pr  Pr3  1  0.23089365  0.91830374  0.12401932  1
  Mn  Mn4  1  0.29242226  0.42192974  0.59713291  1
  Mn  Mn5  1  0.69615667  0.50827778  0.36664277  1
  Mn  Mn6  1  0.01006541  0.96524624  0.01318398  1
  Mn  Mn7  1  0.80171031  0.97439831  0.63119748  1
  Mn  Mn8  1  0.20811577  0.05975691  0.39320566  1
  Mn  Mn9  1  0.48548530  0.47959424  0.98375366  1
  Sb  Sb10  1  0.89331282  0.93383901  0.45969181  1
  Sb  Sb11  1  0.11144691  0.99553552  0.54912449  1
  Sb  Sb12  1  0.03806091  0.50913209  0.82516493  1
  Sb  Sb13  1  0.96711096  0.47359587  0.20173596  1
  Sb  Sb14  1  0.40333424  0.56114903  0.44997114  1
  Sb  Sb15  1  0.60423609  0.51029583  0.53385519  1
  Sb  Sb16  1  0.52327974  0.96454375  0.79034198  1
  Sb  Sb17  1  0.47313252  0.03033667  0.18061115  1
  S  S18  1  0.93750302  0.01645762  0.79334773  1
  S  S19  1  0.05564816  0.96380319  0.18904630  1
  S  S20  1  0.41386990  0.94995323  0.97688079  1
  S  S21  1  0.58377945  0.97940126  0.00618609  1
  S  S22  1  0.17354415  0.98325463  0.90590953  1
  S  S23  1  0.82595882  0.01415433  0.10205765  1
  S  S24  1  0.10101099  0.52599716  0.65228516  1
  S  S25  1  0.90012979  0.45226579  0.35370088  1
  S  S26  1  0.73836910  0.99372344  0.31191092  1
  S  S27  1  0.25921386  0.90348942  0.68385386  1
  S  S28  1  0.15597408  0.53103465  0.43240505  1
  S  S29  1  0.81290688  0.44602453  0.54553135  1
  S  S30  1  0.43745954  0.44836700  0.79406029  1
  S  S31  1  0.56275467  0.51632262  0.18182885  1
  S  S32  1  0.91204990  0.52370116  0.98514540  1
  S  S33  1  0.08369968  0.45975775  0.02649091  1
  S  S34  1  0.66212394  0.50531510  0.89533118  1
  S  S35  1  0.33488496  0.44185548  0.11529425  1
  S  S36  1  0.60015539  0.01688582  0.64708980  1
  S  S37  1  0.39863403  0.06230765  0.33463214  1
  S  S38  1  0.24405408  0.55764063  0.32131311  1
  S  S39  1  0.76133661  0.48159150  0.68715508  1
  S  S40  1  0.66989586  0.98453512  0.45588235  1
  S  S41  1  0.33040948  0.94222789  0.54639598  1
