# generated using pymatgen
data_Pr2Mn3(SbS3)4
_symmetry_space_group_name_H-M   'P 1'
_cell_length_a   20.02960800
_cell_length_b   3.90410600
_cell_length_c   14.95364829
_cell_angle_alpha   90.00000000
_cell_angle_beta   126.33350609
_cell_angle_gamma   90.00000000
_symmetry_Int_Tables_number   1
_chemical_formula_structural   Pr2Mn3(SbS3)4
_chemical_formula_sum   'Pr4 Mn6 Sb8 S24'
_cell_volume   942.00006694
_cell_formula_units_Z   2
loop_
 _symmetry_equiv_pos_site_id
 _symmetry_equiv_pos_as_xyz
  1  'x, y, z'
loop_
 _atom_site_type_symbol
 _atom_site_label
 _atom_site_symmetry_multiplicity
 _atom_site_fract_x
 _atom_site_fract_y
 _atom_site_fract_z
 _atom_site_occupancy
  Pr  Pr0  1  0.26752553  0.48353461  0.88238576  1
  Pr  Pr1  1  0.73129152  0.50269524  0.13359369  1
  Pr  Pr2  1  0.76333149  0.03639513  0.86971935  1
  Pr  Pr3  1  0.23088758  0.91784142  0.12403783  1
  Mn  Mn4  1  0.29233756  0.42334072  0.59712910  1
  Mn  Mn5  1  0.69629075  0.50840576  0.36687451  1
  Mn  Mn6  1  0.01002587  0.96435494  0.01311059  1
  Mn  Mn7  1  0.80176838  0.97403111  0.63114970  1
  Mn  Mn8  1  0.20798149  0.05959247  0.39317378  1
  Mn  Mn9  1  0.48559502  0.48010992  0.98383141  1
  Sb  Sb10  1  0.89319185  0.93328726  0.45950281  1
  Sb  Sb11  1  0.11143383  0.99587193  0.54912537  1
  Sb  Sb12  1  0.03797600  0.50873702  0.82516478  1
  Sb  Sb13  1  0.96727691  0.47400281  0.20181929  1
  Sb  Sb14  1  0.40331064  0.56153660  0.45005391  1
  Sb  Sb15  1  0.60417917  0.51070218  0.53375584  1
  Sb  Sb16  1  0.52315914  0.96486319  0.79019994  1
  Sb  Sb17  1  0.47329880  0.02984189  0.18090472  1
  S  S18  1  0.93734316  0.01665924  0.79321906  1
  S  S19  1  0.05578551  0.96384231  0.18934916  1
  S  S20  1  0.41368499  0.94952596  0.97652240  1
  S  S21  1  0.58410062  0.97990249  0.00643480  1
  S  S22  1  0.17338401  0.98296508  0.90577779  1
  S  S23  1  0.82572142  0.01433815  0.10206542  1
  S  S24  1  0.10119424  0.52534816  0.65238847  1
  S  S25  1  0.89976652  0.45236030  0.35335160  1
  S  S26  1  0.73838068  0.99559969  0.31212672  1
  S  S27  1  0.25946781  0.90343828  0.68383981  1
  S  S28  1  0.15607729  0.53006319  0.43260024  1
  S  S29  1  0.81286863  0.44633483  0.54526797  1
  S  S30  1  0.43736599  0.44843392  0.79385917  1
  S  S31  1  0.56287983  0.51645017  0.18201840  1
  S  S32  1  0.91206763  0.52388442  0.98538247  1
  S  S33  1  0.08355991  0.46054585  0.02629672  1
  S  S34  1  0.66192869  0.50560320  0.89485348  1
  S  S35  1  0.33497203  0.44286123  0.11543933  1
  S  S36  1  0.60028462  0.01771506  0.64729913  1
  S  S37  1  0.39835920  0.06068061  0.33435077  1
  S  S38  1  0.24436445  0.55939527  0.32148841  1
  S  S39  1  0.76131328  0.48075932  0.68702827  1
  S  S40  1  0.66974851  0.98368549  0.45596251  1
  S  S41  1  0.33027684  0.94220629  0.54632654  1
