# generated using pymatgen
data_Pr2Mn3(SbS3)4
_symmetry_space_group_name_H-M   'P 1'
_cell_length_a   20.02960800
_cell_length_b   3.90410600
_cell_length_c   14.95364829
_cell_angle_alpha   90.00000000
_cell_angle_beta   126.33350609
_cell_angle_gamma   90.00000000
_symmetry_Int_Tables_number   1
_chemical_formula_structural   Pr2Mn3(SbS3)4
_chemical_formula_sum   'Pr4 Mn6 Sb8 S24'
_cell_volume   942.00006694
_cell_formula_units_Z   2
loop_
 _symmetry_equiv_pos_site_id
 _symmetry_equiv_pos_as_xyz
  1  'x, y, z'
loop_
 _atom_site_type_symbol
 _atom_site_label
 _atom_site_symmetry_multiplicity
 _atom_site_fract_x
 _atom_site_fract_y
 _atom_site_fract_z
 _atom_site_occupancy
  Pr  Pr0  1  0.26749314  0.48330775  0.88238865  1
  Pr  Pr1  1  0.73120530  0.50282585  0.13355485  1
  Pr  Pr2  1  0.76333078  0.03677324  0.86971407  1
  Pr  Pr3  1  0.23091864  0.91751771  0.12406833  1
  Mn  Mn4  1  0.29226280  0.42436406  0.59722141  1
  Mn  Mn5  1  0.69651287  0.50870203  0.36714556  1
  Mn  Mn6  1  0.00996334  0.96370864  0.01294935  1
  Mn  Mn7  1  0.80184897  0.97318735  0.63119234  1
  Mn  Mn8  1  0.20788164  0.05969534  0.39316620  1
  Mn  Mn9  1  0.48571400  0.48042666  0.98384932  1
  Sb  Sb10  1  0.89308052  0.93268421  0.45933283  1
  Sb  Sb11  1  0.11142953  0.99613653  0.54910220  1
  Sb  Sb12  1  0.03785404  0.50831366  0.82516897  1
  Sb  Sb13  1  0.96745095  0.47425115  0.20197071  1
  Sb  Sb14  1  0.40326140  0.56198852  0.45009575  1
  Sb  Sb15  1  0.60411090  0.51090088  0.53370167  1
  Sb  Sb16  1  0.52301423  0.96506706  0.79008525  1
  Sb  Sb17  1  0.47342093  0.02938957  0.18118940  1
  S  S18  1  0.93716284  0.01723369  0.79307302  1
  S  S19  1  0.05586650  0.96416195  0.18956056  1
  S  S20  1  0.41349335  0.94927802  0.97605467  1
  S  S21  1  0.58439156  0.98002346  0.00664563  1
  S  S22  1  0.17306439  0.98268719  0.90558023  1
  S  S23  1  0.82545573  0.01432542  0.10204811  1
  S  S24  1  0.10125428  0.52451040  0.65238904  1
  S  S25  1  0.89949047  0.45235985  0.35296299  1
  S  S26  1  0.73849194  0.99729704  0.31229373  1
  S  S27  1  0.25976656  0.90320888  0.68383632  1
  S  S28  1  0.15620476  0.52915200  0.43289866  1
  S  S29  1  0.81275048  0.44660536  0.54497873  1
  S  S30  1  0.43738751  0.44862969  0.79390833  1
  S  S31  1  0.56292334  0.51607386  0.18217777  1
  S  S32  1  0.91205993  0.52399082  0.98550546  1
  S  S33  1  0.08335551  0.46162924  0.02601950  1
  S  S34  1  0.66180238  0.50610445  0.89448035  1
  S  S35  1  0.33499693  0.44436270  0.11551109  1
  S  S36  1  0.60048054  0.01805726  0.64751056  1
  S  S37  1  0.39823291  0.05903542  0.33407317  1
  S  S38  1  0.24455159  0.56141857  0.32155515  1
  S  S39  1  0.76119263  0.48052171  0.68682044  1
  S  S40  1  0.66963964  0.98315947  0.45605713  1
  S  S41  1  0.33007824  0.94220276  0.54619286  1
