# generated using pymatgen
data_Pr2Mn3(SbS3)4
_symmetry_space_group_name_H-M   'P 1'
_cell_length_a   20.02960800
_cell_length_b   3.90410600
_cell_length_c   14.95364829
_cell_angle_alpha   90.00000000
_cell_angle_beta   126.33350609
_cell_angle_gamma   90.00000000
_symmetry_Int_Tables_number   1
_chemical_formula_structural   Pr2Mn3(SbS3)4
_chemical_formula_sum   'Pr4 Mn6 Sb8 S24'
_cell_volume   942.00006694
_cell_formula_units_Z   2
loop_
 _symmetry_equiv_pos_site_id
 _symmetry_equiv_pos_as_xyz
  1  'x, y, z'
loop_
 _atom_site_type_symbol
 _atom_site_label
 _atom_site_symmetry_multiplicity
 _atom_site_fract_x
 _atom_site_fract_y
 _atom_site_fract_z
 _atom_site_occupancy
  Pr  Pr0  1  0.26749975  0.48294620  0.88246963  1
  Pr  Pr1  1  0.73114832  0.50304258  0.13357203  1
  Pr  Pr2  1  0.76330016  0.03679725  0.86965056  1
  Pr  Pr3  1  0.23090841  0.91724213  0.12405871  1
  Mn  Mn4  1  0.29218930  0.42516113  0.59734467  1
  Mn  Mn5  1  0.69670711  0.50897527  0.36729628  1
  Mn  Mn6  1  0.00990195  0.96276974  0.01283938  1
  Mn  Mn7  1  0.80188486  0.97220212  0.63124511  1
  Mn  Mn8  1  0.20770916  0.05984182  0.39321382  1
  Mn  Mn9  1  0.48573794  0.48089262  0.98380320  1
  Sb  Sb10  1  0.89297638  0.93208418  0.45923120  1
  Sb  Sb11  1  0.11152008  0.99628702  0.54917190  1
  Sb  Sb12  1  0.03770558  0.50811176  0.82505394  1
  Sb  Sb13  1  0.96759506  0.47429501  0.20214156  1
  Sb  Sb14  1  0.40321173  0.56253945  0.45011052  1
  Sb  Sb15  1  0.60398943  0.51131498  0.53362759  1
  Sb  Sb16  1  0.52294801  0.96514848  0.79001308  1
  Sb  Sb17  1  0.47356572  0.02916027  0.18140986  1
  S  S18  1  0.93682506  0.01801397  0.79283010  1
  S  S19  1  0.05593788  0.96432174  0.18962011  1
  S  S20  1  0.41336367  0.94858808  0.97558672  1
  S  S21  1  0.58457850  0.98015553  0.00667609  1
  S  S22  1  0.17270600  0.98232657  0.90535020  1
  S  S23  1  0.82510053  0.01391850  0.10195111  1
  S  S24  1  0.10125649  0.52382913  0.65236615  1
  S  S25  1  0.89921978  0.45198293  0.35241306  1
  S  S26  1  0.73867360  0.99936125  0.31243024  1
  S  S27  1  0.25992153  0.90337594  0.68385191  1
  S  S28  1  0.15651440  0.52787094  0.43356128  1
  S  S29  1  0.81268253  0.44670034  0.54487000  1
  S  S30  1  0.43739951  0.44853126  0.79395387  1
  S  S31  1  0.56287750  0.51585674  0.18231445  1
  S  S32  1  0.91209927  0.52404968  0.98572757  1
  S  S33  1  0.08324555  0.46274707  0.02595144  1
  S  S34  1  0.66193694  0.50684637  0.89427608  1
  S  S35  1  0.33505254  0.44603508  0.11544848  1
  S  S36  1  0.60075743  0.01840627  0.64788392  1
  S  S37  1  0.39816901  0.05755511  0.33396006  1
  S  S38  1  0.24477692  0.56303276  0.32157488  1
  S  S39  1  0.76104558  0.48055320  0.68655349  1
  S  S40  1  0.66950011  0.98251605  0.45612715  1
  S  S41  1  0.32978106  0.94196806  0.54599722  1
