# generated using pymatgen
data_Pr2Mn3(SbS3)4
_symmetry_space_group_name_H-M   'P 1'
_cell_length_a   20.02960800
_cell_length_b   3.90410600
_cell_length_c   14.95364829
_cell_angle_alpha   90.00000000
_cell_angle_beta   126.33350609
_cell_angle_gamma   90.00000000
_symmetry_Int_Tables_number   1
_chemical_formula_structural   Pr2Mn3(SbS3)4
_chemical_formula_sum   'Pr4 Mn6 Sb8 S24'
_cell_volume   942.00006694
_cell_formula_units_Z   2
loop_
 _symmetry_equiv_pos_site_id
 _symmetry_equiv_pos_as_xyz
  1  'x, y, z'
loop_
 _atom_site_type_symbol
 _atom_site_label
 _atom_site_symmetry_multiplicity
 _atom_site_fract_x
 _atom_site_fract_y
 _atom_site_fract_z
 _atom_site_occupancy
  Pr  Pr0  1  0.26748901  0.48274597  0.88252365  1
  Pr  Pr1  1  0.73106353  0.50312040  0.13354736  1
  Pr  Pr2  1  0.76321653  0.03687217  0.86953236  1
  Pr  Pr3  1  0.23095146  0.91695253  0.12406281  1
  Mn  Mn4  1  0.29204080  0.42607217  0.59737140  1
  Mn  Mn5  1  0.69697233  0.50897057  0.36743159  1
  Mn  Mn6  1  0.00983618  0.96209166  0.01262921  1
  Mn  Mn7  1  0.80183819  0.97130972  0.63123547  1
  Mn  Mn8  1  0.20748478  0.06006929  0.39336187  1
  Mn  Mn9  1  0.48575263  0.48139378  0.98381896  1
  Sb  Sb10  1  0.89288675  0.93141185  0.45912155  1
  Sb  Sb11  1  0.11162147  0.99611482  0.54932214  1
  Sb  Sb12  1  0.03765995  0.50816491  0.82506265  1
  Sb  Sb13  1  0.96768543  0.47421125  0.20225739  1
  Sb  Sb14  1  0.40322120  0.56320374  0.45019385  1
  Sb  Sb15  1  0.60389554  0.51173664  0.53360884  1
  Sb  Sb16  1  0.52285120  0.96528050  0.78984963  1
  Sb  Sb17  1  0.47374815  0.02922448  0.18169218  1
  S  S18  1  0.93654601  0.01887688  0.79272724  1
  S  S19  1  0.05601451  0.96434236  0.18977236  1
  S  S20  1  0.41322021  0.94781468  0.97515365  1
  S  S21  1  0.58466849  0.97997923  0.00661049  1
  S  S22  1  0.17244859  0.98196341  0.90509359  1
  S  S23  1  0.82490282  0.01373356  0.10197546  1
  S  S24  1  0.10122173  0.52260938  0.65241743  1
  S  S25  1  0.89888608  0.45100889  0.35197972  1
  S  S26  1  0.73878089  0.00125796  0.31255261  1
  S  S27  1  0.25998333  0.90317428  0.68372061  1
  S  S28  1  0.15685628  0.52699658  0.43419014  1
  S  S29  1  0.81250702  0.44645883  0.54468007  1
  S  S30  1  0.43743506  0.44852847  0.79400296  1
  S  S31  1  0.56279688  0.51518129  0.18237784  1
  S  S32  1  0.91210197  0.52419502  0.98588375  1
  S  S33  1  0.08308023  0.46429195  0.02575533  1
  S  S34  1  0.66203602  0.50759867  0.89410368  1
  S  S35  1  0.33505772  0.44759219  0.11532905  1
  S  S36  1  0.60109748  0.01835167  0.64814055  1
  S  S37  1  0.39798882  0.05627161  0.33370656  1
  S  S38  1  0.24492824  0.56486632  0.32155982  1
  S  S39  1  0.76086350  0.48081843  0.68627576  1
  S  S40  1  0.66947785  0.98196530  0.45629096  1
  S  S41  1  0.32950706  0.94200282  0.54576488  1
