# generated using pymatgen
data_Pr2Mn3(SbS3)4
_symmetry_space_group_name_H-M   'P 1'
_cell_length_a   20.02960800
_cell_length_b   3.90410600
_cell_length_c   14.95364829
_cell_angle_alpha   90.00000000
_cell_angle_beta   126.33350609
_cell_angle_gamma   90.00000000
_symmetry_Int_Tables_number   1
_chemical_formula_structural   Pr2Mn3(SbS3)4
_chemical_formula_sum   'Pr4 Mn6 Sb8 S24'
_cell_volume   942.00006694
_cell_formula_units_Z   2
loop_
 _symmetry_equiv_pos_site_id
 _symmetry_equiv_pos_as_xyz
  1  'x, y, z'
loop_
 _atom_site_type_symbol
 _atom_site_label
 _atom_site_symmetry_multiplicity
 _atom_site_fract_x
 _atom_site_fract_y
 _atom_site_fract_z
 _atom_site_occupancy
  Pr  Pr0  1  0.26751301  0.48247920  0.88256735  1
  Pr  Pr1  1  0.73101156  0.50288577  0.13355494  1
  Pr  Pr2  1  0.76316736  0.03669089  0.86942618  1
  Pr  Pr3  1  0.23097630  0.91687714  0.12407973  1
  Mn  Mn4  1  0.29186845  0.42697168  0.59729014  1
  Mn  Mn5  1  0.69728451  0.50903808  0.36758788  1
  Mn  Mn6  1  0.00974467  0.96163416  0.01244966  1
  Mn  Mn7  1  0.80186710  0.97048152  0.63118915  1
  Mn  Mn8  1  0.20730642  0.05989687  0.39353220  1
  Mn  Mn9  1  0.48579874  0.48181949  0.98380375  1
  Sb  Sb10  1  0.89279676  0.93072233  0.45902144  1
  Sb  Sb11  1  0.11176109  0.99572635  0.54951343  1
  Sb  Sb12  1  0.03762101  0.50855774  0.82507210  1
  Sb  Sb13  1  0.96773495  0.47432357  0.20230057  1
  Sb  Sb14  1  0.40324009  0.56369126  0.45026214  1
  Sb  Sb15  1  0.60385037  0.51207678  0.53367218  1
  Sb  Sb16  1  0.52274771  0.96536586  0.78974404  1
  Sb  Sb17  1  0.47393185  0.02919698  0.18194359  1
  S  S18  1  0.93640481  0.01916283  0.79265456  1
  S  S19  1  0.05614748  0.96439907  0.19002355  1
  S  S20  1  0.41314308  0.94700716  0.97476399  1
  S  S21  1  0.58462697  0.97988079  0.00664139  1
  S  S22  1  0.17231786  0.98161739  0.90488313  1
  S  S23  1  0.82481958  0.01338527  0.10196115  1
  S  S24  1  0.10114500  0.52129086  0.65240044  1
  S  S25  1  0.89869509  0.45065396  0.35178871  1
  S  S26  1  0.73890408  0.00304581  0.31285390  1
  S  S27  1  0.26014719  0.90318972  0.68357277  1
  S  S28  1  0.15723005  0.52655130  0.43485442  1
  S  S29  1  0.81233652  0.44588815  0.54447529  1
  S  S30  1  0.43744517  0.44825438  0.79400680  1
  S  S31  1  0.56279595  0.51493552  0.18255601  1
  S  S32  1  0.91206977  0.52385661  0.98608035  1
  S  S33  1  0.08290175  0.46588393  0.02557500  1
  S  S34  1  0.66219498  0.50832689  0.89389369  1
  S  S35  1  0.33503734  0.44950907  0.11527713  1
  S  S36  1  0.60133539  0.01806236  0.64842992  1
  S  S37  1  0.39789889  0.05520404  0.33363609  1
  S  S38  1  0.24502959  0.56612474  0.32148441  1
  S  S39  1  0.76072347  0.48128952  0.68603855  1
  S  S40  1  0.66938984  0.98137829  0.45638145  1
  S  S41  1  0.32931400  0.94237410  0.54560688  1
