# generated using pymatgen
data_Pr2Mn3(SbS3)4
_symmetry_space_group_name_H-M   'P 1'
_cell_length_a   20.02960800
_cell_length_b   3.90410600
_cell_length_c   14.95364829
_cell_angle_alpha   90.00000000
_cell_angle_beta   126.33350609
_cell_angle_gamma   90.00000000
_symmetry_Int_Tables_number   1
_chemical_formula_structural   Pr2Mn3(SbS3)4
_chemical_formula_sum   'Pr4 Mn6 Sb8 S24'
_cell_volume   942.00006694
_cell_formula_units_Z   2
loop_
 _symmetry_equiv_pos_site_id
 _symmetry_equiv_pos_as_xyz
  1  'x, y, z'
loop_
 _atom_site_type_symbol
 _atom_site_label
 _atom_site_symmetry_multiplicity
 _atom_site_fract_x
 _atom_site_fract_y
 _atom_site_fract_z
 _atom_site_occupancy
  Pr  Pr0  1  0.26745478  0.48211006  0.88248967  1
  Pr  Pr1  1  0.73096553  0.50269153  0.13357234  1
  Pr  Pr2  1  0.76312503  0.03664955  0.86934128  1
  Pr  Pr3  1  0.23099186  0.91662094  0.12412096  1
  Mn  Mn4  1  0.29174147  0.42718991  0.59725355  1
  Mn  Mn5  1  0.69747450  0.50902596  0.36766256  1
  Mn  Mn6  1  0.00968458  0.96121276  0.01226095  1
  Mn  Mn7  1  0.80192481  0.96973487  0.63120632  1
  Mn  Mn8  1  0.20716943  0.05971746  0.39367255  1
  Mn  Mn9  1  0.48582993  0.48225108  0.98377177  1
  Sb  Sb10  1  0.89266987  0.92991771  0.45892409  1
  Sb  Sb11  1  0.11194834  0.99551861  0.54975677  1
  Sb  Sb12  1  0.03754585  0.50917539  0.82505332  1
  Sb  Sb13  1  0.96781639  0.47439115  0.20239521  1
  Sb  Sb14  1  0.40324809  0.56421847  0.45037227  1
  Sb  Sb15  1  0.60388782  0.51251545  0.53375727  1
  Sb  Sb16  1  0.52264533  0.96532911  0.78963634  1
  Sb  Sb17  1  0.47413905  0.02898362  0.18224254  1
  S  S18  1  0.93624326  0.01971584  0.79250374  1
  S  S19  1  0.05624801  0.96433305  0.19026824  1
  S  S20  1  0.41304322  0.94654877  0.97440137  1
  S  S21  1  0.58463305  0.97955269  0.00663143  1
  S  S22  1  0.17221622  0.98135070  0.90471404  1
  S  S23  1  0.82492650  0.01291388  0.10214776  1
  S  S24  1  0.10098893  0.51980136  0.65238072  1
  S  S25  1  0.89849625  0.45029561  0.35157131  1
  S  S26  1  0.73908171  0.00494089  0.31318698  1
  S  S27  1  0.26043425  0.90336065  0.68359796  1
  S  S28  1  0.15749257  0.52623818  0.43530374  1
  S  S29  1  0.81214564  0.44510869  0.54427747  1
  S  S30  1  0.43758162  0.44774502  0.79409264  1
  S  S31  1  0.56282064  0.51476867  0.18276488  1
  S  S32  1  0.91203532  0.52372976  0.98626476  1
  S  S33  1  0.08275430  0.46734912  0.02553595  1
  S  S34  1  0.66236013  0.50917372  0.89362865  1
  S  S35  1  0.33493637  0.45146785  0.11515348  1
  S  S36  1  0.60161318  0.01758587  0.64864362  1
  S  S37  1  0.39773304  0.05400971  0.33346696  1
  S  S38  1  0.24507308  0.56714485  0.32134970  1
  S  S39  1  0.76050112  0.48182655  0.68577893  1
  S  S40  1  0.66935091  0.98071203  0.45649022  1
  S  S41  1  0.32924638  0.94237647  0.54549637  1
