# generated using pymatgen
data_Pr2Mn3(SbS3)4
_symmetry_space_group_name_H-M   'P 1'
_cell_length_a   20.02960800
_cell_length_b   3.90410600
_cell_length_c   14.95364829
_cell_angle_alpha   90.00000000
_cell_angle_beta   126.33350609
_cell_angle_gamma   90.00000000
_symmetry_Int_Tables_number   1
_chemical_formula_structural   Pr2Mn3(SbS3)4
_chemical_formula_sum   'Pr4 Mn6 Sb8 S24'
_cell_volume   942.00006694
_cell_formula_units_Z   2
loop_
 _symmetry_equiv_pos_site_id
 _symmetry_equiv_pos_as_xyz
  1  'x, y, z'
loop_
 _atom_site_type_symbol
 _atom_site_label
 _atom_site_symmetry_multiplicity
 _atom_site_fract_x
 _atom_site_fract_y
 _atom_site_fract_z
 _atom_site_occupancy
  Pr  Pr0  1  0.26480260  0.48185769  0.87049774  1
  Pr  Pr1  1  0.73719106  0.50772441  0.13591118  1
  Pr  Pr2  1  0.76168573  0.00982806  0.86093849  1
  Pr  Pr3  1  0.23695852  0.99866067  0.14005726  1
  Mn  Mn4  1  0.29609213  0.49655974  0.61186629  1
  Mn  Mn5  1  0.69581884  0.51550658  0.37993427  1
  Mn  Mn6  1  0.00283646  0.00005899  0.00002115  1
  Mn  Mn7  1  0.80281126  0.98875334  0.61568733  1
  Mn  Mn8  1  0.19738130  0.97537009  0.38001257  1
  Mn  Mn9  1  0.50283386  0.47810232  0.99455969  1
  Sb  Sb10  1  0.89342342  0.00291623  0.45499565  1
  Sb  Sb11  1  0.11090170  0.97398162  0.55206245  1
  Sb  Sb12  1  0.03956455  0.49514379  0.81605749  1
  Sb  Sb13  1  0.96236811  0.52721835  0.18768227  1
  Sb  Sb14  1  0.39744612  0.49677198  0.45734085  1
  Sb  Sb15  1  0.60692906  0.49439184  0.54860739  1
  Sb  Sb16  1  0.53715969  0.00783215  0.81541914  1
  Sb  Sb17  1  0.46247291  0.00360215  0.18154740  1
  S  S18  1  0.93507130  0.98086711  0.79686971  1
  S  S19  1  0.06401576  0.99146497  0.19275479  1
  S  S20  1  0.40986353  0.00557816  0.97840853  1
  S  S21  1  0.59211753  0.99183011  0.01960330  1
  S  S22  1  0.17208198  0.99265413  0.89668790  1
  S  S23  1  0.82736112  0.01966286  0.10162514  1
  S  S24  1  0.08577641  0.46110464  0.64418475  1
  S  S25  1  0.91442718  0.48892164  0.36151638  1
  S  S26  1  0.74316963  0.94322719  0.29762740  1
  S  S27  1  0.25766779  0.00376301  0.70218012  1
  S  S28  1  0.16400172  0.48726790  0.44436674  1
  S  S29  1  0.83064516  0.48028888  0.54998277  1
  S  S30  1  0.43383983  0.51240052  0.80156242  1
  S  S31  1  0.56169250  0.52184088  0.19201598  1
  S  S32  1  0.90221930  0.49197283  0.97655896  1
  S  S33  1  0.08692007  0.48931430  0.01855449  1
  S  S34  1  0.66402507  0.50677384  0.89299476  1
  S  S35  1  0.33043165  0.52970556  0.10146849  1
  S  S36  1  0.58959167  0.00720423  0.64714798  1
  S  S37  1  0.41126577  0.96503287  0.35341075  1
  S  S38  1  0.24331320  0.48931766  0.30251100  1
  S  S39  1  0.76079681  0.49359614  0.69659492  1
  S  S40  1  0.67275199  0.01608709  0.46461094  1
  S  S41  1  0.33113687  0.98593095  0.54338287  1
