# generated using pymatgen
data_Pr2Mn3(SbS3)4
_symmetry_space_group_name_H-M   'P 1'
_cell_length_a   20.02960800
_cell_length_b   3.90410600
_cell_length_c   14.95364829
_cell_angle_alpha   90.00000000
_cell_angle_beta   126.33350609
_cell_angle_gamma   90.00000000
_symmetry_Int_Tables_number   1
_chemical_formula_structural   Pr2Mn3(SbS3)4
_chemical_formula_sum   'Pr4 Mn6 Sb8 S24'
_cell_volume   942.00006694
_cell_formula_units_Z   2
loop_
 _symmetry_equiv_pos_site_id
 _symmetry_equiv_pos_as_xyz
  1  'x, y, z'
loop_
 _atom_site_type_symbol
 _atom_site_label
 _atom_site_symmetry_multiplicity
 _atom_site_fract_x
 _atom_site_fract_y
 _atom_site_fract_z
 _atom_site_occupancy
  Pr  Pr0  1  0.26739032  0.48176923  0.88240910  1
  Pr  Pr1  1  0.73089071  0.50259505  0.13363957  1
  Pr  Pr2  1  0.76306896  0.03652368  0.86922126  1
  Pr  Pr3  1  0.23102330  0.91615387  0.12420612  1
  Mn  Mn4  1  0.29164563  0.42737726  0.59709837  1
  Mn  Mn5  1  0.69762297  0.50896428  0.36771606  1
  Mn  Mn6  1  0.00955621  0.96106073  0.01203917  1
  Mn  Mn7  1  0.80196977  0.96871873  0.63123498  1
  Mn  Mn8  1  0.20699883  0.05960425  0.39378741  1
  Mn  Mn9  1  0.48589748  0.48245199  0.98386912  1
  Sb  Sb10  1  0.89253078  0.92918278  0.45876872  1
  Sb  Sb11  1  0.11217746  0.99534133  0.55005171  1
  Sb  Sb12  1  0.03747377  0.50949966  0.82510792  1
  Sb  Sb13  1  0.96784434  0.47440648  0.20244769  1
  Sb  Sb14  1  0.40326325  0.56476400  0.45048212  1
  Sb  Sb15  1  0.60388712  0.51299826  0.53383540  1
  Sb  Sb16  1  0.52248253  0.96533803  0.78947771  1
  Sb  Sb17  1  0.47438820  0.02911988  0.18259940  1
  S  S18  1  0.93603815  0.02008576  0.79231130  1
  S  S19  1  0.05641907  0.96373578  0.19055143  1
  S  S20  1  0.41296199  0.94647174  0.97410001  1
  S  S21  1  0.58452387  0.97918392  0.00653239  1
  S  S22  1  0.17217042  0.98123167  0.90465454  1
  S  S23  1  0.82504130  0.01218056  0.10240681  1
  S  S24  1  0.10074569  0.51825854  0.65228072  1
  S  S25  1  0.89830223  0.44966280  0.35137161  1
  S  S26  1  0.73933709  0.00672933  0.31364744  1
  S  S27  1  0.26072958  0.90369098  0.68370874  1
  S  S28  1  0.15769987  0.52557717  0.43575245  1
  S  S29  1  0.81199863  0.44434030  0.54411432  1
  S  S30  1  0.43768624  0.44668958  0.79425235  1
  S  S31  1  0.56294576  0.51456087  0.18313324  1
  S  S32  1  0.91207033  0.52308365  0.98648428  1
  S  S33  1  0.08257696  0.46830982  0.02553021  1
  S  S34  1  0.66243746  0.51000585  0.89329397  1
  S  S35  1  0.33478090  0.45308437  0.11496525  1
  S  S36  1  0.60177725  0.01680676  0.64870756  1
  S  S37  1  0.39755726  0.05275696  0.33343705  1
  S  S38  1  0.24500934  0.56870237  0.32126107  1
  S  S39  1  0.76031998  0.48259219  0.68565524  1
  S  S40  1  0.66948461  0.97923309  0.45667897  1
  S  S41  1  0.32917855  0.94202607  0.54539986  1
