# generated using pymatgen
data_Pr2Mn3(SbS3)4
_symmetry_space_group_name_H-M   'P 1'
_cell_length_a   20.02960800
_cell_length_b   3.90410600
_cell_length_c   14.95364829
_cell_angle_alpha   90.00000000
_cell_angle_beta   126.33350609
_cell_angle_gamma   90.00000000
_symmetry_Int_Tables_number   1
_chemical_formula_structural   Pr2Mn3(SbS3)4
_chemical_formula_sum   'Pr4 Mn6 Sb8 S24'
_cell_volume   942.00006694
_cell_formula_units_Z   2
loop_
 _symmetry_equiv_pos_site_id
 _symmetry_equiv_pos_as_xyz
  1  'x, y, z'
loop_
 _atom_site_type_symbol
 _atom_site_label
 _atom_site_symmetry_multiplicity
 _atom_site_fract_x
 _atom_site_fract_y
 _atom_site_fract_z
 _atom_site_occupancy
  Pr  Pr0  1  0.26731979  0.48141800  0.88236681  1
  Pr  Pr1  1  0.73083468  0.50257400  0.13374461  1
  Pr  Pr2  1  0.76302839  0.03655012  0.86916386  1
  Pr  Pr3  1  0.23105093  0.91553254  0.12434015  1
  Mn  Mn4  1  0.29158121  0.42763902  0.59704605  1
  Mn  Mn5  1  0.69765726  0.50908629  0.36774178  1
  Mn  Mn6  1  0.00944385  0.96070757  0.01183348  1
  Mn  Mn7  1  0.80197051  0.96782277  0.63129011  1
  Mn  Mn8  1  0.20690144  0.05930397  0.39394459  1
  Mn  Mn9  1  0.48585456  0.48258766  0.98393140  1
  Sb  Sb10  1  0.89235290  0.92822250  0.45861998  1
  Sb  Sb11  1  0.11235125  0.99517862  0.55024066  1
  Sb  Sb12  1  0.03737101  0.50983859  0.82508541  1
  Sb  Sb13  1  0.96784469  0.47444026  0.20247760  1
  Sb  Sb14  1  0.40327055  0.56529870  0.45055286  1
  Sb  Sb15  1  0.60393145  0.51363206  0.53384404  1
  Sb  Sb16  1  0.52230658  0.96507728  0.78935306  1
  Sb  Sb17  1  0.47458448  0.02938818  0.18295724  1
  S  S18  1  0.93582176  0.02038770  0.79212711  1
  S  S19  1  0.05665403  0.96345413  0.19073960  1
  S  S20  1  0.41297151  0.94620643  0.97376995  1
  S  S21  1  0.58450574  0.97927246  0.00653962  1
  S  S22  1  0.17211149  0.98079846  0.90461210  1
  S  S23  1  0.82511964  0.01093928  0.10274850  1
  S  S24  1  0.10056196  0.51667984  0.65214793  1
  S  S25  1  0.89813664  0.44875655  0.35115112  1
  S  S26  1  0.73956016  0.00878989  0.31407897  1
  S  S27  1  0.26091870  0.90390729  0.68376853  1
  S  S28  1  0.15788047  0.52503178  0.43613082  1
  S  S29  1  0.81180769  0.44361285  0.54401459  1
  S  S30  1  0.43774602  0.44549880  0.79440147  1
  S  S31  1  0.56302672  0.51404590  0.18348001  1
  S  S32  1  0.91210498  0.52271275  0.98670473  1
  S  S33  1  0.08247320  0.46915396  0.02548261  1
  S  S34  1  0.66249803  0.51051066  0.89299201  1
  S  S35  1  0.33460489  0.45451894  0.11474655  1
  S  S36  1  0.60199486  0.01609832  0.64885232  1
  S  S37  1  0.39737951  0.05205616  0.33330545  1
  S  S38  1  0.24489632  0.56999149  0.32118175  1
  S  S39  1  0.76011999  0.48364679  0.68563542  1
  S  S40  1  0.66958476  0.97778109  0.45672033  1
  S  S41  1  0.32914618  0.94150036  0.54525007  1
