# generated using pymatgen
data_Pr2Mn3(SbS3)4
_symmetry_space_group_name_H-M   'P 1'
_cell_length_a   20.02960800
_cell_length_b   3.90410600
_cell_length_c   14.95364829
_cell_angle_alpha   90.00000000
_cell_angle_beta   126.33350609
_cell_angle_gamma   90.00000000
_symmetry_Int_Tables_number   1
_chemical_formula_structural   Pr2Mn3(SbS3)4
_chemical_formula_sum   'Pr4 Mn6 Sb8 S24'
_cell_volume   942.00006694
_cell_formula_units_Z   2
loop_
 _symmetry_equiv_pos_site_id
 _symmetry_equiv_pos_as_xyz
  1  'x, y, z'
loop_
 _atom_site_type_symbol
 _atom_site_label
 _atom_site_symmetry_multiplicity
 _atom_site_fract_x
 _atom_site_fract_y
 _atom_site_fract_z
 _atom_site_occupancy
  Pr  Pr0  1  0.26729304  0.48089081  0.88233379  1
  Pr  Pr1  1  0.73075268  0.50274876  0.13386296  1
  Pr  Pr2  1  0.76296509  0.03643793  0.86906696  1
  Pr  Pr3  1  0.23105665  0.91520528  0.12443645  1
  Mn  Mn4  1  0.29153717  0.42775121  0.59694726  1
  Mn  Mn5  1  0.69762384  0.50956689  0.36761537  1
  Mn  Mn6  1  0.00930170  0.96054572  0.01168717  1
  Mn  Mn7  1  0.80193738  0.96735649  0.63144397  1
  Mn  Mn8  1  0.20682076  0.05921322  0.39410665  1
  Mn  Mn9  1  0.48576006  0.48256441  0.98398073  1
  Sb  Sb10  1  0.89216373  0.92761620  0.45839480  1
  Sb  Sb11  1  0.11250555  0.99496417  0.55045188  1
  Sb  Sb12  1  0.03727106  0.51021982  0.82497543  1
  Sb  Sb13  1  0.96780530  0.47453507  0.20244792  1
  Sb  Sb14  1  0.40329191  0.56566066  0.45056440  1
  Sb  Sb15  1  0.60398166  0.51395264  0.53392631  1
  Sb  Sb16  1  0.52219711  0.96462269  0.78934907  1
  Sb  Sb17  1  0.47475062  0.02966638  0.18321814  1
  S  S18  1  0.93551853  0.02045506  0.79191864  1
  S  S19  1  0.05694653  0.96318154  0.19095352  1
  S  S20  1  0.41298750  0.94617949  0.97352161  1
  S  S21  1  0.58431609  0.97918636  0.00645090  1
  S  S22  1  0.17204362  0.98016513  0.90442323  1
  S  S23  1  0.82527010  0.00993700  0.10313404  1
  S  S24  1  0.10050679  0.51559166  0.65226429  1
  S  S25  1  0.89795063  0.44834250  0.35100538  1
  S  S26  1  0.73982467  0.01054925  0.31452194  1
  S  S27  1  0.26108556  0.90400350  0.68384516  1
  S  S28  1  0.15791247  0.52417636  0.43635288  1
  S  S29  1  0.81175039  0.44318239  0.54414088  1
  S  S30  1  0.43779880  0.44433872  0.79442725  1
  S  S31  1  0.56304075  0.51316775  0.18374103  1
  S  S32  1  0.91227160  0.52223073  0.98705343  1
  S  S33  1  0.08233607  0.46986019  0.02535143  1
  S  S34  1  0.66247609  0.51031183  0.89254902  1
  S  S35  1  0.33451067  0.45557913  0.11460502  1
  S  S36  1  0.60222493  0.01579069  0.64895631  1
  S  S37  1  0.39719841  0.05151064  0.33316994  1
  S  S38  1  0.24469966  0.57117612  0.32104232  1
  S  S39  1  0.76001582  0.48459763  0.68578975  1
  S  S40  1  0.66978133  0.97604421  0.45680896  1
  S  S41  1  0.32920854  0.94112119  0.54515631  1
