# generated using pymatgen
data_Pr2Mn3(SbS3)4
_symmetry_space_group_name_H-M   'P 1'
_cell_length_a   20.02960800
_cell_length_b   3.90410600
_cell_length_c   14.95364829
_cell_angle_alpha   90.00000000
_cell_angle_beta   126.33350609
_cell_angle_gamma   90.00000000
_symmetry_Int_Tables_number   1
_chemical_formula_structural   Pr2Mn3(SbS3)4
_chemical_formula_sum   'Pr4 Mn6 Sb8 S24'
_cell_volume   942.00006694
_cell_formula_units_Z   2
loop_
 _symmetry_equiv_pos_site_id
 _symmetry_equiv_pos_as_xyz
  1  'x, y, z'
loop_
 _atom_site_type_symbol
 _atom_site_label
 _atom_site_symmetry_multiplicity
 _atom_site_fract_x
 _atom_site_fract_y
 _atom_site_fract_z
 _atom_site_occupancy
  Pr  Pr0  1  0.26729847  0.48017393  0.88232740  1
  Pr  Pr1  1  0.73072791  0.50293315  0.13405330  1
  Pr  Pr2  1  0.76289350  0.03646296  0.86895913  1
  Pr  Pr3  1  0.23107192  0.91497354  0.12459057  1
  Mn  Mn4  1  0.29148842  0.42796088  0.59681648  1
  Mn  Mn5  1  0.69753163  0.50979370  0.36743321  1
  Mn  Mn6  1  0.00909171  0.96067324  0.01145401  1
  Mn  Mn7  1  0.80191697  0.96709266  0.63155921  1
  Mn  Mn8  1  0.20676901  0.05913226  0.39431139  1
  Mn  Mn9  1  0.48579230  0.48266488  0.98409152  1
  Sb  Sb10  1  0.89200538  0.92675756  0.45821371  1
  Sb  Sb11  1  0.11275639  0.99467211  0.55073585  1
  Sb  Sb12  1  0.03707154  0.51041978  0.82487738  1
  Sb  Sb13  1  0.96777961  0.47471423  0.20245749  1
  Sb  Sb14  1  0.40331436  0.56572010  0.45060313  1
  Sb  Sb15  1  0.60408788  0.51427855  0.53404587  1
  Sb  Sb16  1  0.52208387  0.96407891  0.78931582  1
  Sb  Sb17  1  0.47485608  0.02991550  0.18336583  1
  S  S18  1  0.93521785  0.02022102  0.79182453  1
  S  S19  1  0.05717954  0.96282939  0.19110908  1
  S  S20  1  0.41298918  0.94676627  0.97338299  1
  S  S21  1  0.58411971  0.97901427  0.00651730  1
  S  S22  1  0.17193941  0.97916049  0.90413996  1
  S  S23  1  0.82548433  0.00909350  0.10362461  1
  S  S24  1  0.10047592  0.51477368  0.65242115  1
  S  S25  1  0.89788684  0.44787529  0.35088487  1
  S  S26  1  0.74008479  0.01198609  0.31490143  1
  S  S27  1  0.26112481  0.90401801  0.68384580  1
  S  S28  1  0.15797245  0.52367683  0.43660289  1
  S  S29  1  0.81184051  0.44253360  0.54437117  1
  S  S30  1  0.43789170  0.44330226  0.79450445  1
  S  S31  1  0.56314848  0.51240164  0.18397119  1
  S  S32  1  0.91252778  0.52183194  0.98748250  1
  S  S33  1  0.08221755  0.47091054  0.02531540  1
  S  S34  1  0.66236834  0.50964893  0.89196547  1
  S  S35  1  0.33427168  0.45640794  0.11439009  1
  S  S36  1  0.60249809  0.01570420  0.64904989  1
  S  S37  1  0.39703951  0.05043006  0.33297274  1
  S  S38  1  0.24451632  0.57245654  0.32089384  1
  S  S39  1  0.75999386  0.48558802  0.68602382  1
  S  S40  1  0.66980634  0.97413857  0.45682384  1
  S  S41  1  0.32931153  0.94068111  0.54512632  1
