# generated using pymatgen
data_Pr2Mn3(SbS3)4
_symmetry_space_group_name_H-M   'P 1'
_cell_length_a   20.02960800
_cell_length_b   3.90410600
_cell_length_c   14.95364829
_cell_angle_alpha   90.00000000
_cell_angle_beta   126.33350609
_cell_angle_gamma   90.00000000
_symmetry_Int_Tables_number   1
_chemical_formula_structural   Pr2Mn3(SbS3)4
_chemical_formula_sum   'Pr4 Mn6 Sb8 S24'
_cell_volume   942.00006694
_cell_formula_units_Z   2
loop_
 _symmetry_equiv_pos_site_id
 _symmetry_equiv_pos_as_xyz
  1  'x, y, z'
loop_
 _atom_site_type_symbol
 _atom_site_label
 _atom_site_symmetry_multiplicity
 _atom_site_fract_x
 _atom_site_fract_y
 _atom_site_fract_z
 _atom_site_occupancy
  Pr  Pr0  1  0.26730511  0.47950422  0.88232150  1
  Pr  Pr1  1  0.73067497  0.50310294  0.13427971  1
  Pr  Pr2  1  0.76279034  0.03630508  0.86878768  1
  Pr  Pr3  1  0.23105982  0.91486629  0.12474614  1
  Mn  Mn4  1  0.29139754  0.42775427  0.59667515  1
  Mn  Mn5  1  0.69739345  0.51006389  0.36722084  1
  Mn  Mn6  1  0.00897232  0.96037236  0.01139375  1
  Mn  Mn7  1  0.80196697  0.96690664  0.63176299  1
  Mn  Mn8  1  0.20673894  0.05917492  0.39451854  1
  Mn  Mn9  1  0.48582558  0.48261286  0.98424488  1
  Sb  Sb10  1  0.89181226  0.92629876  0.45799610  1
  Sb  Sb11  1  0.11301747  0.99413425  0.55099922  1
  Sb  Sb12  1  0.03687715  0.51065390  0.82481327  1
  Sb  Sb13  1  0.96776164  0.47519226  0.20249137  1
  Sb  Sb14  1  0.40332066  0.56596405  0.45056521  1
  Sb  Sb15  1  0.60419661  0.51457846  0.53414147  1
  Sb  Sb16  1  0.52199816  0.96375172  0.78929417  1
  Sb  Sb17  1  0.47494561  0.02988987  0.18349532  1
  S  S18  1  0.93482995  0.01950189  0.79167785  1
  S  S19  1  0.05738929  0.96300052  0.19122683  1
  S  S20  1  0.41295248  0.94754319  0.97312807  1
  S  S21  1  0.58386659  0.97919410  0.00654353  1
  S  S22  1  0.17180033  0.97796057  0.90388591  1
  S  S23  1  0.82566157  0.00855629  0.10419652  1
  S  S24  1  0.10040201  0.51406947  0.65262826  1
  S  S25  1  0.89784160  0.44745754  0.35068916  1
  S  S26  1  0.74042099  0.01328168  0.31527535  1
  S  S27  1  0.26119573  0.90448064  0.68396031  1
  S  S28  1  0.15815077  0.52346657  0.43704512  1
  S  S29  1  0.81197060  0.44190104  0.54464267  1
  S  S30  1  0.43791991  0.44228567  0.79450637  1
  S  S31  1  0.56322354  0.51135733  0.18405346  1
  S  S32  1  0.91279543  0.52088910  0.98791768  1
  S  S33  1  0.08216349  0.47182831  0.02537560  1
  S  S34  1  0.66216543  0.50909463  0.89135338  1
  S  S35  1  0.33405683  0.45736915  0.11424169  1
  S  S36  1  0.60272919  0.01601766  0.64911215  1
  S  S37  1  0.39691485  0.04930431  0.33280335  1
  S  S38  1  0.24435724  0.57392341  0.32078118  1
  S  S39  1  0.75995519  0.48634123  0.68616858  1
  S  S40  1  0.66983892  0.97258965  0.45684356  1
  S  S41  1  0.32934388  0.93999282  0.54502734  1
