# generated using pymatgen
data_Pr2Mn3(SbS3)4
_symmetry_space_group_name_H-M   'P 1'
_cell_length_a   20.02960800
_cell_length_b   3.90410600
_cell_length_c   14.95364829
_cell_angle_alpha   90.00000000
_cell_angle_beta   126.33350609
_cell_angle_gamma   90.00000000
_symmetry_Int_Tables_number   1
_chemical_formula_structural   Pr2Mn3(SbS3)4
_chemical_formula_sum   'Pr4 Mn6 Sb8 S24'
_cell_volume   942.00006694
_cell_formula_units_Z   2
loop_
 _symmetry_equiv_pos_site_id
 _symmetry_equiv_pos_as_xyz
  1  'x, y, z'
loop_
 _atom_site_type_symbol
 _atom_site_label
 _atom_site_symmetry_multiplicity
 _atom_site_fract_x
 _atom_site_fract_y
 _atom_site_fract_z
 _atom_site_occupancy
  Pr  Pr0  1  0.26733906  0.47877323  0.88235750  1
  Pr  Pr1  1  0.73067584  0.50331405  0.13453725  1
  Pr  Pr2  1  0.76274325  0.03613152  0.86870390  1
  Pr  Pr3  1  0.23102195  0.91462636  0.12493072  1
  Mn  Mn4  1  0.29131141  0.42768573  0.59655594  1
  Mn  Mn5  1  0.69729920  0.51025162  0.36707190  1
  Mn  Mn6  1  0.00887197  0.96050518  0.01126587  1
  Mn  Mn7  1  0.80198628  0.96671397  0.63188923  1
  Mn  Mn8  1  0.20662363  0.05931002  0.39466872  1
  Mn  Mn9  1  0.48585498  0.48267621  0.98425450  1
  Sb  Sb10  1  0.89163652  0.92572182  0.45780360  1
  Sb  Sb11  1  0.11324427  0.99383533  0.55116802  1
  Sb  Sb12  1  0.03672113  0.51071984  0.82474119  1
  Sb  Sb13  1  0.96773105  0.47561007  0.20253986  1
  Sb  Sb14  1  0.40336587  0.56614887  0.45061153  1
  Sb  Sb15  1  0.60430278  0.51511386  0.53426748  1
  Sb  Sb16  1  0.52189927  0.96366265  0.78930327  1
  Sb  Sb17  1  0.47504090  0.02973509  0.18362532  1
  S  S18  1  0.93442445  0.01875485  0.79153745  1
  S  S19  1  0.05765342  0.96342409  0.19140414  1
  S  S20  1  0.41293392  0.94813549  0.97302925  1
  S  S21  1  0.58370496  0.97981344  0.00651295  1
  S  S22  1  0.17177847  0.97719516  0.90375737  1
  S  S23  1  0.82588173  0.00859103  0.10473687  1
  S  S24  1  0.10042084  0.51332463  0.65296496  1
  S  S25  1  0.89786861  0.44736255  0.35048933  1
  S  S26  1  0.74064452  0.01456883  0.31546987  1
  S  S27  1  0.26123645  0.90523815  0.68416877  1
  S  S28  1  0.15834285  0.52366176  0.43734544  1
  S  S29  1  0.81208881  0.44152764  0.54493975  1
  S  S30  1  0.43805089  0.44084651  0.79460835  1
  S  S31  1  0.56325376  0.51062897  0.18407015  1
  S  S32  1  0.91313050  0.52036472  0.98844566  1
  S  S33  1  0.08200194  0.47281113  0.02540025  1
  S  S34  1  0.66201402  0.50889031  0.89080313  1
  S  S35  1  0.33386388  0.45807277  0.11406049  1
  S  S36  1  0.60295126  0.01608411  0.64920803  1
  S  S37  1  0.39685622  0.04924334  0.33246362  1
  S  S38  1  0.24418757  0.57543636  0.32056787  1
  S  S39  1  0.75977812  0.48706013  0.68607929  1
  S  S40  1  0.66977386  0.97136230  0.45674519  1
  S  S41  1  0.32928446  0.93944837  0.54487754  1
