# generated using pymatgen
data_Pr2Mn3(SbS3)4
_symmetry_space_group_name_H-M   'P 1'
_cell_length_a   20.02960800
_cell_length_b   3.90410600
_cell_length_c   14.95364829
_cell_angle_alpha   90.00000000
_cell_angle_beta   126.33350609
_cell_angle_gamma   90.00000000
_symmetry_Int_Tables_number   1
_chemical_formula_structural   Pr2Mn3(SbS3)4
_chemical_formula_sum   'Pr4 Mn6 Sb8 S24'
_cell_volume   942.00006694
_cell_formula_units_Z   2
loop_
 _symmetry_equiv_pos_site_id
 _symmetry_equiv_pos_as_xyz
  1  'x, y, z'
loop_
 _atom_site_type_symbol
 _atom_site_label
 _atom_site_symmetry_multiplicity
 _atom_site_fract_x
 _atom_site_fract_y
 _atom_site_fract_z
 _atom_site_occupancy
  Pr  Pr0  1  0.26742233  0.47818730  0.88245954  1
  Pr  Pr1  1  0.73066989  0.50366879  0.13477930  1
  Pr  Pr2  1  0.76267594  0.03593368  0.86860189  1
  Pr  Pr3  1  0.23096066  0.91449172  0.12508001  1
  Mn  Mn4  1  0.29122833  0.42762353  0.59653293  1
  Mn  Mn5  1  0.69723409  0.51072593  0.36699750  1
  Mn  Mn6  1  0.00877019  0.96034913  0.01116291  1
  Mn  Mn7  1  0.80209672  0.96666130  0.63212900  1
  Mn  Mn8  1  0.20665993  0.05952842  0.39489254  1
  Mn  Mn9  1  0.48589833  0.48299494  0.98432103  1
  Sb  Sb10  1  0.89146272  0.92487224  0.45763211  1
  Sb  Sb11  1  0.11347210  0.99367000  0.55132485  1
  Sb  Sb12  1  0.03658215  0.51082594  0.82473817  1
  Sb  Sb13  1  0.96774918  0.47565646  0.20269385  1
  Sb  Sb14  1  0.40344191  0.56603780  0.45071692  1
  Sb  Sb15  1  0.60440100  0.51562178  0.53435341  1
  Sb  Sb16  1  0.52189642  0.96371249  0.78936982  1
  Sb  Sb17  1  0.47508284  0.02973942  0.18369086  1
  S  S18  1  0.93408605  0.01797439  0.79134861  1
  S  S19  1  0.05797909  0.96363540  0.19161184  1
  S  S20  1  0.41292709  0.94880357  0.97302995  1
  S  S21  1  0.58360274  0.98036842  0.00648486  1
  S  S22  1  0.17177791  0.97648509  0.90363636  1
  S  S23  1  0.82598352  0.00898827  0.10517776  1
  S  S24  1  0.10048603  0.51239846  0.65333912  1
  S  S25  1  0.89792033  0.44700430  0.35006874  1
  S  S26  1  0.74077185  0.01569129  0.31550741  1
  S  S27  1  0.26121619  0.90649622  0.68435517  1
  S  S28  1  0.15851532  0.52393189  0.43758133  1
  S  S29  1  0.81212508  0.44102405  0.54503315  1
  S  S30  1  0.43803804  0.43942961  0.79455200  1
  S  S31  1  0.56336704  0.50960255  0.18409337  1
  S  S32  1  0.91345944  0.52038441  0.98895775  1
  S  S33  1  0.08206747  0.47360342  0.02556153  1
  S  S34  1  0.66189922  0.50919219  0.89022058  1
  S  S35  1  0.33371519  0.45849076  0.11391424  1
  S  S36  1  0.60303297  0.01583470  0.64917133  1
  S  S37  1  0.39679575  0.04908752  0.33215482  1
  S  S38  1  0.24398993  0.57719598  0.32019940  1
  S  S39  1  0.75960354  0.48789318  0.68594454  1
  S  S40  1  0.66973788  0.97008146  0.45676026  1
  S  S41  1  0.32932851  0.93905081  0.54475486  1
