# generated using pymatgen
data_Pr2Mn3(SbS3)4
_symmetry_space_group_name_H-M   'P 1'
_cell_length_a   20.02960800
_cell_length_b   3.90410600
_cell_length_c   14.95364829
_cell_angle_alpha   90.00000000
_cell_angle_beta   126.33350609
_cell_angle_gamma   90.00000000
_symmetry_Int_Tables_number   1
_chemical_formula_structural   Pr2Mn3(SbS3)4
_chemical_formula_sum   'Pr4 Mn6 Sb8 S24'
_cell_volume   942.00006694
_cell_formula_units_Z   2
loop_
 _symmetry_equiv_pos_site_id
 _symmetry_equiv_pos_as_xyz
  1  'x, y, z'
loop_
 _atom_site_type_symbol
 _atom_site_label
 _atom_site_symmetry_multiplicity
 _atom_site_fract_x
 _atom_site_fract_y
 _atom_site_fract_z
 _atom_site_occupancy
  Pr  Pr0  1  0.26746535  0.47773082  0.88254247  1
  Pr  Pr1  1  0.73063665  0.50388275  0.13495925  1
  Pr  Pr2  1  0.76262512  0.03554055  0.86853950  1
  Pr  Pr3  1  0.23090049  0.91422594  0.12522393  1
  Mn  Mn4  1  0.29100780  0.42733355  0.59638772  1
  Mn  Mn5  1  0.69726333  0.51109391  0.36690093  1
  Mn  Mn6  1  0.00875779  0.96013312  0.01113958  1
  Mn  Mn7  1  0.80218282  0.96656531  0.63231446  1
  Mn  Mn8  1  0.20669650  0.05943491  0.39516273  1
  Mn  Mn9  1  0.48588876  0.48329248  0.98436199  1
  Sb  Sb10  1  0.89131485  0.92394832  0.45750451  1
  Sb  Sb11  1  0.11364603  0.99339232  0.55140290  1
  Sb  Sb12  1  0.03648063  0.51105931  0.82473834  1
  Sb  Sb13  1  0.96778701  0.47550227  0.20291007  1
  Sb  Sb14  1  0.40346640  0.56602490  0.45082450  1
  Sb  Sb15  1  0.60451150  0.51616337  0.53444067  1
  Sb  Sb16  1  0.52190545  0.96375480  0.78939370  1
  Sb  Sb17  1  0.47523105  0.02963037  0.18391939  1
  S  S18  1  0.93371554  0.01650292  0.79110451  1
  S  S19  1  0.05819327  0.96399921  0.19181839  1
  S  S20  1  0.41287323  0.94909781  0.97302069  1
  S  S21  1  0.58361717  0.98088190  0.00661407  1
  S  S22  1  0.17169342  0.97621743  0.90351220  1
  S  S23  1  0.82595342  0.00959477  0.10550669  1
  S  S24  1  0.10054989  0.51144782  0.65369932  1
  S  S25  1  0.89794349  0.44718532  0.34971323  1
  S  S26  1  0.74081359  0.01717990  0.31534602  1
  S  S27  1  0.26124358  0.90781854  0.68435870  1
  S  S28  1  0.15877486  0.52420012  0.43784677  1
  S  S29  1  0.81229288  0.44046632  0.54513619  1
  S  S30  1  0.43812090  0.43815072  0.79455076  1
  S  S31  1  0.56344855  0.50893533  0.18402236  1
  S  S32  1  0.91361117  0.52013618  0.98918530  1
  S  S33  1  0.08214015  0.47465179  0.02575600  1
  S  S34  1  0.66172062  0.50953036  0.88954900  1
  S  S35  1  0.33344725  0.45863858  0.11367738  1
  S  S36  1  0.60306388  0.01560538  0.64898814  1
  S  S37  1  0.39682399  0.04909080  0.33189129  1
  S  S38  1  0.24378759  0.57846904  0.31988533  1
  S  S39  1  0.75940229  0.48890606  0.68579324  1
  S  S40  1  0.66975863  0.96888799  0.45680414  1
  S  S41  1  0.32942172  0.93873791  0.54479149  1
