# generated using pymatgen
data_Pr2Mn3(SbS3)4
_symmetry_space_group_name_H-M   'P 1'
_cell_length_a   20.02960800
_cell_length_b   3.90410600
_cell_length_c   14.95364829
_cell_angle_alpha   90.00000000
_cell_angle_beta   126.33350609
_cell_angle_gamma   90.00000000
_symmetry_Int_Tables_number   1
_chemical_formula_structural   Pr2Mn3(SbS3)4
_chemical_formula_sum   'Pr4 Mn6 Sb8 S24'
_cell_volume   942.00006694
_cell_formula_units_Z   2
loop_
 _symmetry_equiv_pos_site_id
 _symmetry_equiv_pos_as_xyz
  1  'x, y, z'
loop_
 _atom_site_type_symbol
 _atom_site_label
 _atom_site_symmetry_multiplicity
 _atom_site_fract_x
 _atom_site_fract_y
 _atom_site_fract_z
 _atom_site_occupancy
  Pr  Pr0  1  0.26753001  0.47722223  0.88263881  1
  Pr  Pr1  1  0.73061291  0.50414103  0.13514687  1
  Pr  Pr2  1  0.76250850  0.03525508  0.86847056  1
  Pr  Pr3  1  0.23083773  0.91377350  0.12530818  1
  Mn  Mn4  1  0.29087268  0.42709857  0.59627281  1
  Mn  Mn5  1  0.69737519  0.51158949  0.36692226  1
  Mn  Mn6  1  0.00875591  0.95990157  0.01122989  1
  Mn  Mn7  1  0.80228439  0.96626554  0.63242894  1
  Mn  Mn8  1  0.20680159  0.05945158  0.39544080  1
  Mn  Mn9  1  0.48593569  0.48341634  0.98452374  1
  Sb  Sb10  1  0.89121753  0.92338068  0.45735767  1
  Sb  Sb11  1  0.11382633  0.99326567  0.55146224  1
  Sb  Sb12  1  0.03642186  0.51142130  0.82474213  1
  Sb  Sb13  1  0.96782689  0.47556150  0.20321960  1
  Sb  Sb14  1  0.40348537  0.56619878  0.45091685  1
  Sb  Sb15  1  0.60458240  0.51678037  0.53455287  1
  Sb  Sb16  1  0.52189281  0.96408668  0.78933632  1
  Sb  Sb17  1  0.47538130  0.02943905  0.18422203  1
  S  S18  1  0.93332811  0.01534821  0.79088524  1
  S  S19  1  0.05844546  0.96428345  0.19200368  1
  S  S20  1  0.41297767  0.94961512  0.97319352  1
  S  S21  1  0.58378797  0.98139984  0.00678263  1
  S  S22  1  0.17159438  0.97552443  0.90328390  1
  S  S23  1  0.82590594  0.00990672  0.10573397  1
  S  S24  1  0.10057006  0.51041603  0.65412094  1
  S  S25  1  0.89799210  0.44724746  0.34951245  1
  S  S26  1  0.74091468  0.01845101  0.31524545  1
  S  S27  1  0.26126749  0.90897456  0.68424546  1
  S  S28  1  0.15898099  0.52491353  0.43800994  1
  S  S29  1  0.81246522  0.44006624  0.54517158  1
  S  S30  1  0.43832056  0.43744173  0.79461737  1
  S  S31  1  0.56345851  0.50840387  0.18383344  1
  S  S32  1  0.91373898  0.51983964  0.98943036  1
  S  S33  1  0.08222518  0.47557431  0.02592479  1
  S  S34  1  0.66155992  0.50959354  0.88904003  1
  S  S35  1  0.33311255  0.45881298  0.11329205  1
  S  S36  1  0.60294245  0.01489464  0.64873952  1
  S  S37  1  0.39688763  0.04974303  0.33183118  1
  S  S38  1  0.24355512  0.57980118  0.31954060  1
  S  S39  1  0.75924599  0.48996797  0.68563265  1
  S  S40  1  0.66977193  0.96785195  0.45676955  1
  S  S41  1  0.32946247  0.93814281  0.54483405  1
