# generated using pymatgen
data_Pr2Mn3(SbS3)4
_symmetry_space_group_name_H-M   'P 1'
_cell_length_a   20.02960800
_cell_length_b   3.90410600
_cell_length_c   14.95364829
_cell_angle_alpha   90.00000000
_cell_angle_beta   126.33350609
_cell_angle_gamma   90.00000000
_symmetry_Int_Tables_number   1
_chemical_formula_structural   Pr2Mn3(SbS3)4
_chemical_formula_sum   'Pr4 Mn6 Sb8 S24'
_cell_volume   942.00006694
_cell_formula_units_Z   2
loop_
 _symmetry_equiv_pos_site_id
 _symmetry_equiv_pos_as_xyz
  1  'x, y, z'
loop_
 _atom_site_type_symbol
 _atom_site_label
 _atom_site_symmetry_multiplicity
 _atom_site_fract_x
 _atom_site_fract_y
 _atom_site_fract_z
 _atom_site_occupancy
  Pr  Pr0  1  0.26755902  0.47667404  0.88272007  1
  Pr  Pr1  1  0.73056464  0.50447626  0.13531944  1
  Pr  Pr2  1  0.76240251  0.03524055  0.86832836  1
  Pr  Pr3  1  0.23080098  0.91325557  0.12537573  1
  Mn  Mn4  1  0.29078421  0.42716534  0.59627797  1
  Mn  Mn5  1  0.69749406  0.51198342  0.36698624  1
  Mn  Mn6  1  0.00871031  0.95953318  0.01137566  1
  Mn  Mn7  1  0.80235074  0.96618111  0.63241651  1
  Mn  Mn8  1  0.20699089  0.05985644  0.39572467  1
  Mn  Mn9  1  0.48599579  0.48354996  0.98472025  1
  Sb  Sb10  1  0.89111868  0.92287621  0.45723282  1
  Sb  Sb11  1  0.11399686  0.99292577  0.55156094  1
  Sb  Sb12  1  0.03637366  0.51183446  0.82472335  1
  Sb  Sb13  1  0.96784225  0.47581547  0.20347117  1
  Sb  Sb14  1  0.40350918  0.56635890  0.45097608  1
  Sb  Sb15  1  0.60471374  0.51751577  0.53471316  1
  Sb  Sb16  1  0.52183228  0.96465418  0.78924977  1
  Sb  Sb17  1  0.47548398  0.02922218  0.18448172  1
  S  S18  1  0.93306349  0.01432961  0.79094832  1
  S  S19  1  0.05860556  0.96456392  0.19209495  1
  S  S20  1  0.41301398  0.95057492  0.97330179  1
  S  S21  1  0.58401472  0.98127246  0.00699546  1
  S  S22  1  0.17163130  0.97473931  0.90317288  1
  S  S23  1  0.82595829  0.01045646  0.10599629  1
  S  S24  1  0.10086725  0.50954506  0.65467793  1
  S  S25  1  0.89794532  0.44707064  0.34918080  1
  S  S26  1  0.74098864  0.01932521  0.31531201  1
  S  S27  1  0.26129441  0.90977451  0.68420919  1
  S  S28  1  0.15924794  0.52580848  0.43829925  1
  S  S29  1  0.81265393  0.44023272  0.54522748  1
  S  S30  1  0.43849160  0.43727427  0.79465487  1
  S  S31  1  0.56344085  0.50811659  0.18359287  1
  S  S32  1  0.91382435  0.51936271  0.98978249  1
  S  S33  1  0.08237585  0.47683748  0.02611985  1
  S  S34  1  0.66155255  0.51017426  0.88879497  1
  S  S35  1  0.33281384  0.45872177  0.11287350  1
  S  S36  1  0.60291471  0.01419535  0.64854014  1
  S  S37  1  0.39706710  0.05066655  0.33173826  1
  S  S38  1  0.24338958  0.58088968  0.31921858  1
  S  S39  1  0.75916919  0.49101207  0.68545522  1
  S  S40  1  0.66971077  0.96675239  0.45666540  1
  S  S41  1  0.32937421  0.93727224  0.54478653  1
