# generated using pymatgen
data_Pr2Mn3(SbS3)4
_symmetry_space_group_name_H-M   'P 1'
_cell_length_a   20.02960800
_cell_length_b   3.90410600
_cell_length_c   14.95364829
_cell_angle_alpha   90.00000000
_cell_angle_beta   126.33350609
_cell_angle_gamma   90.00000000
_symmetry_Int_Tables_number   1
_chemical_formula_structural   Pr2Mn3(SbS3)4
_chemical_formula_sum   'Pr4 Mn6 Sb8 S24'
_cell_volume   942.00006694
_cell_formula_units_Z   2
loop_
 _symmetry_equiv_pos_site_id
 _symmetry_equiv_pos_as_xyz
  1  'x, y, z'
loop_
 _atom_site_type_symbol
 _atom_site_label
 _atom_site_symmetry_multiplicity
 _atom_site_fract_x
 _atom_site_fract_y
 _atom_site_fract_z
 _atom_site_occupancy
  Pr  Pr0  1  0.26034078  0.49929903  0.86328887  1
  Pr  Pr1  1  0.74036904  0.49843675  0.13714313  1
  Pr  Pr2  1  0.76001911  0.00338060  0.86250800  1
  Pr  Pr3  1  0.24033368  0.99595817  0.13745360  1
  Mn  Mn4  1  0.30058225  0.50337766  0.62094435  1
  Mn  Mn5  1  0.69846666  0.50079645  0.37923170  1
  Mn  Mn6  1  0.99965202  0.99820265  0.99996635  1
  Mn  Mn7  1  0.80125379  0.99927084  0.62024252  1
  Mn  Mn8  1  0.19906737  0.99627307  0.37921184  1
  Mn  Mn9  1  0.50002149  0.49436699  0.00100710  1
  Sb  Sb10  1  0.89431057  0.00051888  0.45312486  1
  Sb  Sb11  1  0.10686665  0.99890211  0.54883048  1
  Sb  Sb12  1  0.03816435  0.49665966  0.81442960  1
  Sb  Sb13  1  0.96218010  0.49714674  0.18626769  1
  Sb  Sb14  1  0.39411989  0.49888720  0.45377510  1
  Sb  Sb15  1  0.60568418  0.49888954  0.54709074  1
  Sb  Sb16  1  0.53910239  0.99806272  0.81523323  1
  Sb  Sb17  1  0.46198831  0.99986361  0.18553244  1
  S  S18  1  0.94102619  0.99757404  0.80070843  1
  S  S19  1  0.05786888  0.99717730  0.19677014  1
  S  S20  1  0.40143243  0.99490314  0.98018447  1
  S  S21  1  0.59943496  0.99887355  0.02008589  1
  S  S22  1  0.16826152  0.99322911  0.89648439  1
  S  S23  1  0.83062770  0.00073381  0.10296351  1
  S  S24  1  0.08971005  0.49905296  0.65082277  1
  S  S25  1  0.91065869  0.49755424  0.34947908  1
  S  S26  1  0.74291845  0.99523429  0.29394780  1
  S  S27  1  0.25734750  0.00396787  0.70549713  1
  S  S28  1  0.15668869  0.49474970  0.45138266  1
  S  S29  1  0.84300985  0.50184286  0.54798355  1
  S  S30  1  0.44259410  0.49785502  0.80142562  1
  S  S31  1  0.55901901  0.50012137  0.19875235  1
  S  S32  1  0.90158160  0.49597368  0.97990397  1
  S  S33  1  0.09892203  0.49481710  0.02134755  1
  S  S34  1  0.66673888  0.50515590  0.89472387  1
  S  S35  1  0.33386964  0.49905953  0.10575618  1
  S  S36  1  0.58769267  0.00433491  0.64789892  1
  S  S37  1  0.41231902  0.99668665  0.35156488  1
  S  S38  1  0.24374505  0.49342842  0.29349875  1
  S  S39  1  0.75901772  0.49976703  0.70806659  1
  S  S40  1  0.65718481  0.99795987  0.45277728  1
  S  S41  1  0.34307489  0.99633349  0.54673897  1
