# generated using pymatgen
data_Pr2Mn3(SbS3)4
_symmetry_space_group_name_H-M   'P 1'
_cell_length_a   20.02960800
_cell_length_b   3.90410600
_cell_length_c   14.95364829
_cell_angle_alpha   90.00000000
_cell_angle_beta   126.33350609
_cell_angle_gamma   90.00000000
_symmetry_Int_Tables_number   1
_chemical_formula_structural   Pr2Mn3(SbS3)4
_chemical_formula_sum   'Pr4 Mn6 Sb8 S24'
_cell_volume   942.00006694
_cell_formula_units_Z   2
loop_
 _symmetry_equiv_pos_site_id
 _symmetry_equiv_pos_as_xyz
  1  'x, y, z'
loop_
 _atom_site_type_symbol
 _atom_site_label
 _atom_site_symmetry_multiplicity
 _atom_site_fract_x
 _atom_site_fract_y
 _atom_site_fract_z
 _atom_site_occupancy
  Pr  Pr0  1  0.26478797  0.48181211  0.87055373  1
  Pr  Pr1  1  0.73724945  0.50801967  0.13601477  1
  Pr  Pr2  1  0.76156915  0.00979288  0.86080458  1
  Pr  Pr3  1  0.23691564  0.99877049  0.13996553  1
  Mn  Mn4  1  0.29595320  0.49628953  0.61143304  1
  Mn  Mn5  1  0.69568819  0.51642386  0.37976483  1
  Mn  Mn6  1  0.00308642  0.00077406  0.00020768  1
  Mn  Mn7  1  0.80273169  0.98845217  0.61569586  1
  Mn  Mn8  1  0.19714296  0.97589327  0.37988901  1
  Mn  Mn9  1  0.50293834  0.47805015  0.99478732  1
  Sb  Sb10  1  0.89337979  0.00308750  0.45493153  1
  Sb  Sb11  1  0.11118145  0.97352616  0.55222093  1
  Sb  Sb12  1  0.03963544  0.49595221  0.81602996  1
  Sb  Sb13  1  0.96240913  0.52811094  0.18774618  1
  Sb  Sb14  1  0.39752097  0.49717752  0.45727750  1
  Sb  Sb15  1  0.60683075  0.49365509  0.54843142  1
  Sb  Sb16  1  0.53700421  0.00774991  0.81517466  1
  Sb  Sb17  1  0.46247550  0.00392643  0.18167024  1
  S  S18  1  0.93518276  0.98098970  0.79679349  1
  S  S19  1  0.06415515  0.99116436  0.19282387  1
  S  S20  1  0.40996839  0.00599146  0.97850620  1
  S  S21  1  0.59213491  0.99174264  0.02009972  1
  S  S22  1  0.17207039  0.99245797  0.89667199  1
  S  S23  1  0.82720604  0.02022692  0.10149333  1
  S  S24  1  0.08575288  0.45993470  0.64425285  1
  S  S25  1  0.91428117  0.48979426  0.36134050  1
  S  S26  1  0.74328695  0.94335027  0.29824742  1
  S  S27  1  0.25766072  0.00361290  0.70205082  1
  S  S28  1  0.16404229  0.48625688  0.44421102  1
  S  S29  1  0.83066379  0.47942726  0.54999613  1
  S  S30  1  0.43356078  0.51188322  0.80145579  1
  S  S31  1  0.56175219  0.52215968  0.19202938  1
  S  S32  1  0.90223306  0.49230702  0.97664363  1
  S  S33  1  0.08690464  0.48932811  0.01865767  1
  S  S34  1  0.66403767  0.50669343  0.89279285  1
  S  S35  1  0.33023749  0.52980555  0.10138840  1
  S  S36  1  0.58941497  0.00644419  0.64697586  1
  S  S37  1  0.41094394  0.96475501  0.35297975  1
  S  S38  1  0.24340781  0.48914917  0.30278071  1
  S  S39  1  0.76080700  0.49373292  0.69670777  1
  S  S40  1  0.67275302  0.01534441  0.46449238  1
  S  S41  1  0.33111925  0.98632689  0.54321742  1
