# generated using pymatgen
data_Pr2Mn3(SbS3)4
_symmetry_space_group_name_H-M   'P 1'
_cell_length_a   20.02960800
_cell_length_b   3.90410600
_cell_length_c   14.95364829
_cell_angle_alpha   90.00000000
_cell_angle_beta   126.33350609
_cell_angle_gamma   90.00000000
_symmetry_Int_Tables_number   1
_chemical_formula_structural   Pr2Mn3(SbS3)4
_chemical_formula_sum   'Pr4 Mn6 Sb8 S24'
_cell_volume   942.00006694
_cell_formula_units_Z   2
loop_
 _symmetry_equiv_pos_site_id
 _symmetry_equiv_pos_as_xyz
  1  'x, y, z'
loop_
 _atom_site_type_symbol
 _atom_site_label
 _atom_site_symmetry_multiplicity
 _atom_site_fract_x
 _atom_site_fract_y
 _atom_site_fract_z
 _atom_site_occupancy
  Pr  Pr0  1  0.26757180  0.47634480  0.88278249  1
  Pr  Pr1  1  0.73048912  0.50495741  0.13542663  1
  Pr  Pr2  1  0.76232243  0.03517617  0.86823843  1
  Pr  Pr3  1  0.23073162  0.91285136  0.12544723  1
  Mn  Mn4  1  0.29070308  0.42720340  0.59629298  1
  Mn  Mn5  1  0.69752840  0.51204422  0.36695817  1
  Mn  Mn6  1  0.00863835  0.95937419  0.01148763  1
  Mn  Mn7  1  0.80230962  0.96632648  0.63240952  1
  Mn  Mn8  1  0.20709068  0.06018489  0.39584264  1
  Mn  Mn9  1  0.48597049  0.48342442  0.98472836  1
  Sb  Sb10  1  0.89095104  0.92246759  0.45706579  1
  Sb  Sb11  1  0.11417410  0.99260932  0.55166271  1
  Sb  Sb12  1  0.03634832  0.51218559  0.82468484  1
  Sb  Sb13  1  0.96791590  0.47587908  0.20371405  1
  Sb  Sb14  1  0.40353378  0.56650321  0.45104504  1
  Sb  Sb15  1  0.60478202  0.51801208  0.53485093  1
  Sb  Sb16  1  0.52177694  0.96494949  0.78914446  1
  Sb  Sb17  1  0.47565861  0.02899490  0.18490808  1
  S  S18  1  0.93297089  0.01310235  0.79122581  1
  S  S19  1  0.05867320  0.96479096  0.19209052  1
  S  S20  1  0.41300362  0.95173975  0.97344155  1
  S  S21  1  0.58438581  0.98152148  0.00743857  1
  S  S22  1  0.17175105  0.97420818  0.90312029  1
  S  S23  1  0.82592835  0.01099760  0.10624023  1
  S  S24  1  0.10107202  0.50866723  0.65526431  1
  S  S25  1  0.89790109  0.44703448  0.34874150  1
  S  S26  1  0.74106721  0.02009095  0.31539052  1
  S  S27  1  0.26126084  0.91062078  0.68413572  1
  S  S28  1  0.15956457  0.52660715  0.43844381  1
  S  S29  1  0.81289486  0.44110414  0.54526393  1
  S  S30  1  0.43859267  0.43684681  0.79475877  1
  S  S31  1  0.56336363  0.50774439  0.18324115  1
  S  S32  1  0.91396453  0.51884913  0.99013270  1
  S  S33  1  0.08249442  0.47775534  0.02629711  1
  S  S34  1  0.66162410  0.51116835  0.88875965  1
  S  S35  1  0.33261138  0.45887667  0.11246557  1
  S  S36  1  0.60279528  0.01315369  0.64832314  1
  S  S37  1  0.39728207  0.05147779  0.33184965  1
  S  S38  1  0.24329621  0.58160406  0.31904471  1
  S  S39  1  0.75906415  0.49208863  0.68524790  1
  S  S40  1  0.66955452  0.96587766  0.45644770  1
  S  S41  1  0.32920091  0.93622267  0.54473455  1
