# generated using pymatgen
data_Pr2Mn3(SbS3)4
_symmetry_space_group_name_H-M   'P 1'
_cell_length_a   20.02960800
_cell_length_b   3.90410600
_cell_length_c   14.95364829
_cell_angle_alpha   90.00000000
_cell_angle_beta   126.33350609
_cell_angle_gamma   90.00000000
_symmetry_Int_Tables_number   1
_chemical_formula_structural   Pr2Mn3(SbS3)4
_chemical_formula_sum   'Pr4 Mn6 Sb8 S24'
_cell_volume   942.00006694
_cell_formula_units_Z   2
loop_
 _symmetry_equiv_pos_site_id
 _symmetry_equiv_pos_as_xyz
  1  'x, y, z'
loop_
 _atom_site_type_symbol
 _atom_site_label
 _atom_site_symmetry_multiplicity
 _atom_site_fract_x
 _atom_site_fract_y
 _atom_site_fract_z
 _atom_site_occupancy
  Pr  Pr0  1  0.26752682  0.47636792  0.88280893  1
  Pr  Pr1  1  0.73045234  0.50535571  0.13555594  1
  Pr  Pr2  1  0.76225224  0.03530443  0.86815772  1
  Pr  Pr3  1  0.23066304  0.91259556  0.12544785  1
  Mn  Mn4  1  0.29055958  0.42728211  0.59621865  1
  Mn  Mn5  1  0.69757053  0.51227834  0.36703048  1
  Mn  Mn6  1  0.00848046  0.95909945  0.01148632  1
  Mn  Mn7  1  0.80237776  0.96631771  0.63251355  1
  Mn  Mn8  1  0.20723874  0.06060830  0.39598099  1
  Mn  Mn9  1  0.48594499  0.48346994  0.98464457  1
  Sb  Sb10  1  0.89078046  0.92192520  0.45693739  1
  Sb  Sb11  1  0.11427222  0.99253194  0.55168079  1
  Sb  Sb12  1  0.03630032  0.51260901  0.82458872  1
  Sb  Sb13  1  0.96802374  0.47587997  0.20394806  1
  Sb  Sb14  1  0.40359596  0.56668375  0.45112172  1
  Sb  Sb15  1  0.60486629  0.51864688  0.53495954  1
  Sb  Sb16  1  0.52173065  0.96521450  0.78912212  1
  Sb  Sb17  1  0.47583384  0.02863995  0.18522397  1
  S  S18  1  0.93288035  0.01183524  0.79137379  1
  S  S19  1  0.05882984  0.96450264  0.19221634  1
  S  S20  1  0.41304311  0.95292399  0.97366740  1
  S  S21  1  0.58467946  0.98111447  0.00787235  1
  S  S22  1  0.17185589  0.97399902  0.90314845  1
  S  S23  1  0.82581735  0.01203572  0.10654823  1
  S  S24  1  0.10126664  0.50814785  0.65571319  1
  S  S25  1  0.89787637  0.44668406  0.34835962  1
  S  S26  1  0.74106701  0.02068771  0.31548879  1
  S  S27  1  0.26120344  0.91209289  0.68405854  1
  S  S28  1  0.15974908  0.52749112  0.43845447  1
  S  S29  1  0.81306976  0.44204355  0.54531881  1
  S  S30  1  0.43864098  0.43679367  0.79487081  1
  S  S31  1  0.56341397  0.50729852  0.18303382  1
  S  S32  1  0.91394662  0.51844974  0.99021495  1
  S  S33  1  0.08260134  0.47888662  0.02639713  1
  S  S34  1  0.66168171  0.51222369  0.88873747  1
  S  S35  1  0.33258043  0.45844241  0.11221177  1
  S  S36  1  0.60273868  0.01257568  0.64824095  1
  S  S37  1  0.39756214  0.05244958  0.33202877  1
  S  S38  1  0.24303014  0.58194599  0.31885714  1
  S  S39  1  0.75896471  0.49324627  0.68494280  1
  S  S40  1  0.66933702  0.96476021  0.45617814  1
  S  S41  1  0.32898262  0.93500785  0.54467655  1
