# generated using pymatgen
data_Pr2Mn3(SbS3)4
_symmetry_space_group_name_H-M   'P 1'
_cell_length_a   20.02960800
_cell_length_b   3.90410600
_cell_length_c   14.95364829
_cell_angle_alpha   90.00000000
_cell_angle_beta   126.33350609
_cell_angle_gamma   90.00000000
_symmetry_Int_Tables_number   1
_chemical_formula_structural   Pr2Mn3(SbS3)4
_chemical_formula_sum   'Pr4 Mn6 Sb8 S24'
_cell_volume   942.00006694
_cell_formula_units_Z   2
loop_
 _symmetry_equiv_pos_site_id
 _symmetry_equiv_pos_as_xyz
  1  'x, y, z'
loop_
 _atom_site_type_symbol
 _atom_site_label
 _atom_site_symmetry_multiplicity
 _atom_site_fract_x
 _atom_site_fract_y
 _atom_site_fract_z
 _atom_site_occupancy
  Pr  Pr0  1  0.26751266  0.47639523  0.88285453  1
  Pr  Pr1  1  0.73047650  0.50563313  0.13567892  1
  Pr  Pr2  1  0.76222236  0.03543738  0.86810986  1
  Pr  Pr3  1  0.23061219  0.91250749  0.12541468  1
  Mn  Mn4  1  0.29039658  0.42710699  0.59603863  1
  Mn  Mn5  1  0.69765785  0.51255936  0.36707341  1
  Mn  Mn6  1  0.00827519  0.95922149  0.01144600  1
  Mn  Mn7  1  0.80246494  0.96640885  0.63266993  1
  Mn  Mn8  1  0.20737796  0.06107416  0.39605794  1
  Mn  Mn9  1  0.48590463  0.48377535  0.98453249  1
  Sb  Sb10  1  0.89066311  0.92140490  0.45690435  1
  Sb  Sb11  1  0.11437278  0.99250634  0.55168050  1
  Sb  Sb12  1  0.03622678  0.51305054  0.82442380  1
  Sb  Sb13  1  0.96811227  0.47595395  0.20415186  1
  Sb  Sb14  1  0.40366004  0.56701767  0.45111530  1
  Sb  Sb15  1  0.60496993  0.51922281  0.53507817  1
  Sb  Sb16  1  0.52167888  0.96531034  0.78907386  1
  Sb  Sb17  1  0.47607262  0.02838699  0.18554306  1
  S  S18  1  0.93286321  0.01137117  0.79161459  1
  S  S19  1  0.05888406  0.96480946  0.19227765  1
  S  S20  1  0.41306863  0.95421450  0.97372776  1
  S  S21  1  0.58482230  0.98066083  0.00818071  1
  S  S22  1  0.17190772  0.97391621  0.90304247  1
  S  S23  1  0.82577689  0.01293543  0.10682720  1
  S  S24  1  0.10152514  0.50780926  0.65597550  1
  S  S25  1  0.89779060  0.44636832  0.34798602  1
  S  S26  1  0.74114315  0.02105867  0.31566376  1
  S  S27  1  0.26117051  0.91342981  0.68411689  1
  S  S28  1  0.15997227  0.52894143  0.43841472  1
  S  S29  1  0.81323390  0.44323939  0.54538007  1
  S  S30  1  0.43879193  0.43722089  0.79514160  1
  S  S31  1  0.56346912  0.50716948  0.18280986  1
  S  S32  1  0.91387432  0.51825258  0.99022873  1
  S  S33  1  0.08267678  0.48000405  0.02635472  1
  S  S34  1  0.66183034  0.51281754  0.88888794  1
  S  S35  1  0.33259450  0.45784219  0.11199850  1
  S  S36  1  0.60281607  0.01180160  0.64820681  1
  S  S37  1  0.39778843  0.05323816  0.33222098  1
  S  S38  1  0.24288412  0.58213799  0.31861996  1
  S  S39  1  0.75888884  0.49396456  0.68481327  1
  S  S40  1  0.66922997  0.96357572  0.45595410  1
  S  S41  1  0.32871759  0.93396350  0.54456382  1
