# generated using pymatgen
data_Pr2Mn3(SbS3)4
_symmetry_space_group_name_H-M   'P 1'
_cell_length_a   20.02960800
_cell_length_b   3.90410600
_cell_length_c   14.95364829
_cell_angle_alpha   90.00000000
_cell_angle_beta   126.33350609
_cell_angle_gamma   90.00000000
_symmetry_Int_Tables_number   1
_chemical_formula_structural   Pr2Mn3(SbS3)4
_chemical_formula_sum   'Pr4 Mn6 Sb8 S24'
_cell_volume   942.00006694
_cell_formula_units_Z   2
loop_
 _symmetry_equiv_pos_site_id
 _symmetry_equiv_pos_as_xyz
  1  'x, y, z'
loop_
 _atom_site_type_symbol
 _atom_site_label
 _atom_site_symmetry_multiplicity
 _atom_site_fract_x
 _atom_site_fract_y
 _atom_site_fract_z
 _atom_site_occupancy
  Pr  Pr0  1  0.26755272  0.47636914  0.88296075  1
  Pr  Pr1  1  0.73051651  0.50611314  0.13577943  1
  Pr  Pr2  1  0.76218650  0.03545058  0.86798468  1
  Pr  Pr3  1  0.23054769  0.91236219  0.12539233  1
  Mn  Mn4  1  0.29023752  0.42682822  0.59587225  1
  Mn  Mn5  1  0.69774823  0.51281394  0.36709861  1
  Mn  Mn6  1  0.00818382  0.95924591  0.01149829  1
  Mn  Mn7  1  0.80251876  0.96647758  0.63274908  1
  Mn  Mn8  1  0.20757057  0.06134665  0.39625435  1
  Mn  Mn9  1  0.48585470  0.48422180  0.98450407  1
  Sb  Sb10  1  0.89052808  0.92115322  0.45688427  1
  Sb  Sb11  1  0.11455069  0.99256719  0.55179508  1
  Sb  Sb12  1  0.03617835  0.51334314  0.82430345  1
  Sb  Sb13  1  0.96810528  0.47617273  0.20428017  1
  Sb  Sb14  1  0.40368882  0.56726536  0.45109656  1
  Sb  Sb15  1  0.60502880  0.51974065  0.53516513  1
  Sb  Sb16  1  0.52162208  0.96548532  0.78898910  1
  Sb  Sb17  1  0.47629103  0.02818244  0.18586102  1
  S  S18  1  0.93279218  0.01128336  0.79162193  1
  S  S19  1  0.05888001  0.96531057  0.19238062  1
  S  S20  1  0.41306586  0.95538871  0.97375590  1
  S  S21  1  0.58491637  0.97954409  0.00843785  1
  S  S22  1  0.17197560  0.97351886  0.90282631  1
  S  S23  1  0.82575765  0.01340638  0.10697197  1
  S  S24  1  0.10177408  0.50719571  0.65638175  1
  S  S25  1  0.89764215  0.44598729  0.34753377  1
  S  S26  1  0.74131813  0.02159490  0.31589809  1
  S  S27  1  0.26110029  0.91508559  0.68409771  1
  S  S28  1  0.16012313  0.53000812  0.43847874  1
  S  S29  1  0.81340868  0.44457878  0.54550402  1
  S  S30  1  0.43893779  0.43736628  0.79537891  1
  S  S31  1  0.56352354  0.50689938  0.18265644  1
  S  S32  1  0.91392111  0.51821057  0.99040430  1
  S  S33  1  0.08289851  0.48132226  0.02638461  1
  S  S34  1  0.66199153  0.51327581  0.88894147  1
  S  S35  1  0.33275094  0.45758566  0.11188497  1
  S  S36  1  0.60288669  0.01079355  0.64812217  1
  S  S37  1  0.39799037  0.05398867  0.33235395  1
  S  S38  1  0.24276533  0.58205255  0.31830759  1
  S  S39  1  0.75872127  0.49510904  0.68458530  1
  S  S40  1  0.66902290  0.96260859  0.45573982  1
  S  S41  1  0.32860141  0.93339369  0.54461607  1
