# generated using pymatgen
data_Pr2Mn3(SbS3)4
_symmetry_space_group_name_H-M   'P 1'
_cell_length_a   20.02960800
_cell_length_b   3.90410600
_cell_length_c   14.95364829
_cell_angle_alpha   90.00000000
_cell_angle_beta   126.33350609
_cell_angle_gamma   90.00000000
_symmetry_Int_Tables_number   1
_chemical_formula_structural   Pr2Mn3(SbS3)4
_chemical_formula_sum   'Pr4 Mn6 Sb8 S24'
_cell_volume   942.00006694
_cell_formula_units_Z   2
loop_
 _symmetry_equiv_pos_site_id
 _symmetry_equiv_pos_as_xyz
  1  'x, y, z'
loop_
 _atom_site_type_symbol
 _atom_site_label
 _atom_site_symmetry_multiplicity
 _atom_site_fract_x
 _atom_site_fract_y
 _atom_site_fract_z
 _atom_site_occupancy
  Pr  Pr0  1  0.26753172  0.47618779  0.88302582  1
  Pr  Pr1  1  0.73057328  0.50660690  0.13598914  1
  Pr  Pr2  1  0.76220255  0.03554288  0.86789211  1
  Pr  Pr3  1  0.23042796  0.91235824  0.12539728  1
  Mn  Mn4  1  0.29008054  0.42659088  0.59556205  1
  Mn  Mn5  1  0.69783025  0.51338112  0.36713446  1
  Mn  Mn6  1  0.00802924  0.95920041  0.01146362  1
  Mn  Mn7  1  0.80260628  0.96694375  0.63280257  1
  Mn  Mn8  1  0.20776657  0.06183213  0.39645135  1
  Mn  Mn9  1  0.48581476  0.48476114  0.98454365  1
  Sb  Sb10  1  0.89040878  0.92116056  0.45690139  1
  Sb  Sb11  1  0.11468842  0.99268177  0.55189089  1
  Sb  Sb12  1  0.03615095  0.51346855  0.82424118  1
  Sb  Sb13  1  0.96807487  0.47600231  0.20440274  1
  Sb  Sb14  1  0.40373235  0.56727038  0.45110791  1
  Sb  Sb15  1  0.60505416  0.52015893  0.53517885  1
  Sb  Sb16  1  0.52158055  0.96559902  0.78889265  1
  Sb  Sb17  1  0.47643806  0.02808357  0.18609703  1
  S  S18  1  0.93282904  0.01118703  0.79173683  1
  S  S19  1  0.05883823  0.96619993  0.19258190  1
  S  S20  1  0.41310385  0.95634976  0.97388345  1
  S  S21  1  0.58495733  0.97877711  0.00866112  1
  S  S22  1  0.17209722  0.97320030  0.90249190  1
  S  S23  1  0.82563145  0.01340989  0.10716217  1
  S  S24  1  0.10197964  0.50638393  0.65667143  1
  S  S25  1  0.89746802  0.44561845  0.34711070  1
  S  S26  1  0.74153631  0.02201098  0.31598931  1
  S  S27  1  0.26110660  0.91664080  0.68406743  1
  S  S28  1  0.16027799  0.53066517  0.43837275  1
  S  S29  1  0.81343448  0.44570641  0.54538744  1
  S  S30  1  0.43915780  0.43766919  0.79573737  1
  S  S31  1  0.56356746  0.50672963  0.18243067  1
  S  S32  1  0.91399466  0.51774309  0.99056963  1
  S  S33  1  0.08316469  0.48240324  0.02647856  1
  S  S34  1  0.66209409  0.51368806  0.88897625  1
  S  S35  1  0.33292469  0.45759384  0.11173630  1
  S  S36  1  0.60294198  0.00994631  0.64797991  1
  S  S37  1  0.39814125  0.05491852  0.33251914  1
  S  S38  1  0.24262027  0.58239073  0.31787467  1
  S  S39  1  0.75858863  0.49551357  0.68433058  1
  S  S40  1  0.66885047  0.96229922  0.45544274  1
  S  S41  1  0.32848190  0.93317001  0.54461693  1
