# generated using pymatgen
data_Pr2Mn3(SbS3)4
_symmetry_space_group_name_H-M   'P 1'
_cell_length_a   20.02960800
_cell_length_b   3.90410600
_cell_length_c   14.95364829
_cell_angle_alpha   90.00000000
_cell_angle_beta   126.33350609
_cell_angle_gamma   90.00000000
_symmetry_Int_Tables_number   1
_chemical_formula_structural   Pr2Mn3(SbS3)4
_chemical_formula_sum   'Pr4 Mn6 Sb8 S24'
_cell_volume   942.00006694
_cell_formula_units_Z   2
loop_
 _symmetry_equiv_pos_site_id
 _symmetry_equiv_pos_as_xyz
  1  'x, y, z'
loop_
 _atom_site_type_symbol
 _atom_site_label
 _atom_site_symmetry_multiplicity
 _atom_site_fract_x
 _atom_site_fract_y
 _atom_site_fract_z
 _atom_site_occupancy
  Pr  Pr0  1  0.26747460  0.47588615  0.88308212  1
  Pr  Pr1  1  0.73056794  0.50696936  0.13616548  1
  Pr  Pr2  1  0.76220328  0.03581452  0.86785306  1
  Pr  Pr3  1  0.23034809  0.91239064  0.12543525  1
  Mn  Mn4  1  0.28989892  0.42623669  0.59524282  1
  Mn  Mn5  1  0.69794274  0.51402347  0.36722874  1
  Mn  Mn6  1  0.00798685  0.95902918  0.01133733  1
  Mn  Mn7  1  0.80259410  0.96711243  0.63273166  1
  Mn  Mn8  1  0.20783856  0.06226993  0.39652352  1
  Mn  Mn9  1  0.48573458  0.48537212  0.98459451  1
  Sb  Sb10  1  0.89030880  0.92115487  0.45687929  1
  Sb  Sb11  1  0.11484657  0.99280869  0.55200451  1
  Sb  Sb12  1  0.03608816  0.51347833  0.82415987  1
  Sb  Sb13  1  0.96809158  0.47562782  0.20458190  1
  Sb  Sb14  1  0.40378442  0.56737030  0.45109721  1
  Sb  Sb15  1  0.60506150  0.52049005  0.53523328  1
  Sb  Sb16  1  0.52149360  0.96581163  0.78873907  1
  Sb  Sb17  1  0.47654291  0.02776440  0.18630946  1
  S  S18  1  0.93283125  0.01131008  0.79178555  1
  S  S19  1  0.05872229  0.96706962  0.19276032  1
  S  S20  1  0.41312674  0.95694265  0.97393218  1
  S  S21  1  0.58497885  0.97804616  0.00877452  1
  S  S22  1  0.17223317  0.97310008  0.90213478  1
  S  S23  1  0.82556733  0.01314612  0.10739726  1
  S  S24  1  0.10210283  0.50589450  0.65677876  1
  S  S25  1  0.89733887  0.44517139  0.34676669  1
  S  S26  1  0.74164562  0.02262357  0.31596770  1
  S  S27  1  0.26121650  0.91802472  0.68413941  1
  S  S28  1  0.16048198  0.53140660  0.43837921  1
  S  S29  1  0.81355928  0.44661248  0.54538277  1
  S  S30  1  0.43933319  0.43790761  0.79608737  1
  S  S31  1  0.56360889  0.50674545  0.18217393  1
  S  S32  1  0.91395290  0.51732791  0.99049882  1
  S  S33  1  0.08337258  0.48302750  0.02653320  1
  S  S34  1  0.66223956  0.51465893  0.88903647  1
  S  S35  1  0.33313090  0.45781762  0.11165019  1
  S  S36  1  0.60305568  0.00885392  0.64777683  1
  S  S37  1  0.39817968  0.05594847  0.33242121  1
  S  S38  1  0.24249095  0.58242228  0.31756584  1
  S  S39  1  0.75837961  0.49566139  0.68393279  1
  S  S40  1  0.66866232  0.96205387  0.45515241  1
  S  S41  1  0.32835516  0.93323768  0.54461051  1
