# generated using pymatgen
data_Pr2Mn3(SbS3)4
_symmetry_space_group_name_H-M   'P 1'
_cell_length_a   20.02960800
_cell_length_b   3.90410600
_cell_length_c   14.95364829
_cell_angle_alpha   90.00000000
_cell_angle_beta   126.33350609
_cell_angle_gamma   90.00000000
_symmetry_Int_Tables_number   1
_chemical_formula_structural   Pr2Mn3(SbS3)4
_chemical_formula_sum   'Pr4 Mn6 Sb8 S24'
_cell_volume   942.00006694
_cell_formula_units_Z   2
loop_
 _symmetry_equiv_pos_site_id
 _symmetry_equiv_pos_as_xyz
  1  'x, y, z'
loop_
 _atom_site_type_symbol
 _atom_site_label
 _atom_site_symmetry_multiplicity
 _atom_site_fract_x
 _atom_site_fract_y
 _atom_site_fract_z
 _atom_site_occupancy
  Pr  Pr0  1  0.26736693  0.47534851  0.88301563  1
  Pr  Pr1  1  0.73050465  0.50715998  0.13632142  1
  Pr  Pr2  1  0.76220556  0.03597596  0.86784029  1
  Pr  Pr3  1  0.23026265  0.91208116  0.12548528  1
  Mn  Mn4  1  0.28965362  0.42575513  0.59483304  1
  Mn  Mn5  1  0.69801405  0.51443002  0.36719371  1
  Mn  Mn6  1  0.00802925  0.95864730  0.01136457  1
  Mn  Mn7  1  0.80258314  0.96745137  0.63266228  1
  Mn  Mn8  1  0.20791984  0.06269112  0.39657472  1
  Mn  Mn9  1  0.48569670  0.48565544  0.98457206  1
  Sb  Sb10  1  0.89019748  0.92099700  0.45689453  1
  Sb  Sb11  1  0.11494931  0.99275089  0.55198589  1
  Sb  Sb12  1  0.03605650  0.51371838  0.82413177  1
  Sb  Sb13  1  0.96811102  0.47504832  0.20478056  1
  Sb  Sb14  1  0.40381806  0.56732213  0.45109359  1
  Sb  Sb15  1  0.60511261  0.52060659  0.53529360  1
  Sb  Sb16  1  0.52136089  0.96604320  0.78857968  1
  Sb  Sb17  1  0.47662683  0.02727803  0.18640696  1
  S  S18  1  0.93292328  0.01169082  0.79189448  1
  S  S19  1  0.05869384  0.96755188  0.19297719  1
  S  S20  1  0.41314198  0.95790085  0.97394811  1
  S  S21  1  0.58506247  0.97748588  0.00895993  1
  S  S22  1  0.17249021  0.97295516  0.90196851  1
  S  S23  1  0.82545505  0.01270510  0.10751164  1
  S  S24  1  0.10226433  0.50569122  0.65686242  1
  S  S25  1  0.89713681  0.44554460  0.34631952  1
  S  S26  1  0.74170647  0.02317597  0.31593860  1
  S  S27  1  0.26133128  0.91927643  0.68424288  1
  S  S28  1  0.16054558  0.53186245  0.43814491  1
  S  S29  1  0.81378061  0.44794235  0.54533518  1
  S  S30  1  0.43942833  0.43825695  0.79639384  1
  S  S31  1  0.56364855  0.50698181  0.18196861  1
  S  S32  1  0.91393865  0.51678796  0.99055394  1
  S  S33  1  0.08351997  0.48391751  0.02656793  1
  S  S34  1  0.66236278  0.51578831  0.88904884  1
  S  S35  1  0.33329216  0.45842205  0.11148696  1
  S  S36  1  0.60309039  0.00807836  0.64763919  1
  S  S37  1  0.39827740  0.05685765  0.33225763  1
  S  S38  1  0.24235399  0.58213054  0.31743368  1
  S  S39  1  0.75829234  0.49511441  0.68359273  1
  S  S40  1  0.66845856  0.96152784  0.45492218  1
  S  S41  1  0.32814516  0.93363589  0.54458817  1
