# generated using pymatgen
data_Pr2Mn3(SbS3)4
_symmetry_space_group_name_H-M   'P 1'
_cell_length_a   20.02960800
_cell_length_b   3.90410600
_cell_length_c   14.95364829
_cell_angle_alpha   90.00000000
_cell_angle_beta   126.33350609
_cell_angle_gamma   90.00000000
_symmetry_Int_Tables_number   1
_chemical_formula_structural   Pr2Mn3(SbS3)4
_chemical_formula_sum   'Pr4 Mn6 Sb8 S24'
_cell_volume   942.00006694
_cell_formula_units_Z   2
loop_
 _symmetry_equiv_pos_site_id
 _symmetry_equiv_pos_as_xyz
  1  'x, y, z'
loop_
 _atom_site_type_symbol
 _atom_site_label
 _atom_site_symmetry_multiplicity
 _atom_site_fract_x
 _atom_site_fract_y
 _atom_site_fract_z
 _atom_site_occupancy
  Pr  Pr0  1  0.26730445  0.47490960  0.88302043  1
  Pr  Pr1  1  0.73045922  0.50732503  0.13645885  1
  Pr  Pr2  1  0.76218032  0.03608155  0.86779914  1
  Pr  Pr3  1  0.23018512  0.91188027  0.12553902  1
  Mn  Mn4  1  0.28942513  0.42527730  0.59444853  1
  Mn  Mn5  1  0.69797028  0.51469533  0.36703873  1
  Mn  Mn6  1  0.00811910  0.95817655  0.01154726  1
  Mn  Mn7  1  0.80257815  0.96796770  0.63264655  1
  Mn  Mn8  1  0.20789637  0.06304329  0.39651145  1
  Mn  Mn9  1  0.48573351  0.48568300  0.98473238  1
  Sb  Sb10  1  0.89010893  0.92087436  0.45690866  1
  Sb  Sb11  1  0.11505402  0.99253084  0.55200116  1
  Sb  Sb12  1  0.03607316  0.51358036  0.82418509  1
  Sb  Sb13  1  0.96813548  0.47439512  0.20496367  1
  Sb  Sb14  1  0.40380300  0.56725232  0.45100131  1
  Sb  Sb15  1  0.60512330  0.52068491  0.53530247  1
  Sb  Sb16  1  0.52124085  0.96588744  0.78841221  1
  Sb  Sb17  1  0.47671494  0.02683931  0.18651285  1
  S  S18  1  0.93301186  0.01188049  0.79206072  1
  S  S19  1  0.05872726  0.96788455  0.19333168  1
  S  S20  1  0.41315368  0.95915763  0.97387873  1
  S  S21  1  0.58512463  0.97692202  0.00917616  1
  S  S22  1  0.17276920  0.97260971  0.90173278  1
  S  S23  1  0.82551671  0.01261711  0.10775877  1
  S  S24  1  0.10232673  0.50537856  0.65673532  1
  S  S25  1  0.89686734  0.44613386  0.34586760  1
  S  S26  1  0.74171335  0.02385144  0.31590217  1
  S  S27  1  0.26148593  0.91959794  0.68428705  1
  S  S28  1  0.16067499  0.53225156  0.43809883  1
  S  S29  1  0.81400858  0.44896802  0.54523138  1
  S  S30  1  0.43956085  0.43879111  0.79667879  1
  S  S31  1  0.56372414  0.50691009  0.18184945  1
  S  S32  1  0.91381150  0.51621129  0.99056690  1
  S  S33  1  0.08367274  0.48439481  0.02667647  1
  S  S34  1  0.66253828  0.51731533  0.88900121  1
  S  S35  1  0.33347128  0.45921590  0.11143980  1
  S  S36  1  0.60315554  0.00807095  0.64744382  1
  S  S37  1  0.39832506  0.05778148  0.33204017  1
  S  S38  1  0.24227808  0.58162240  0.31740844  1
  S  S39  1  0.75828428  0.49445367  0.68342682  1
  S  S40  1  0.66826523  0.96108685  0.45474475  1
  S  S41  1  0.32799014  0.93387522  0.54466216  1
