# generated using pymatgen
data_Pr2Mn3(SbS3)4
_symmetry_space_group_name_H-M   'P 1'
_cell_length_a   20.02960800
_cell_length_b   3.90410600
_cell_length_c   14.95364829
_cell_angle_alpha   90.00000000
_cell_angle_beta   126.33350609
_cell_angle_gamma   90.00000000
_symmetry_Int_Tables_number   1
_chemical_formula_structural   Pr2Mn3(SbS3)4
_chemical_formula_sum   'Pr4 Mn6 Sb8 S24'
_cell_volume   942.00006694
_cell_formula_units_Z   2
loop_
 _symmetry_equiv_pos_site_id
 _symmetry_equiv_pos_as_xyz
  1  'x, y, z'
loop_
 _atom_site_type_symbol
 _atom_site_label
 _atom_site_symmetry_multiplicity
 _atom_site_fract_x
 _atom_site_fract_y
 _atom_site_fract_z
 _atom_site_occupancy
  Pr  Pr0  1  0.26725831  0.47462021  0.88305055  1
  Pr  Pr1  1  0.73043710  0.50735335  0.13657055  1
  Pr  Pr2  1  0.76218472  0.03644694  0.86773333  1
  Pr  Pr3  1  0.23013127  0.91170301  0.12555997  1
  Mn  Mn4  1  0.28915020  0.42503914  0.59401367  1
  Mn  Mn5  1  0.69792298  0.51500759  0.36692399  1
  Mn  Mn6  1  0.00819567  0.95755516  0.01165329  1
  Mn  Mn7  1  0.80255178  0.96860893  0.63261831  1
  Mn  Mn8  1  0.20790860  0.06385093  0.39657097  1
  Mn  Mn9  1  0.48575543  0.48570446  0.98494165  1
  Sb  Sb10  1  0.89002348  0.92082859  0.45696878  1
  Sb  Sb11  1  0.11513234  0.99224751  0.55192261  1
  Sb  Sb12  1  0.03607165  0.51345175  0.82425159  1
  Sb  Sb13  1  0.96811718  0.47390139  0.20509587  1
  Sb  Sb14  1  0.40378416  0.56712549  0.45089536  1
  Sb  Sb15  1  0.60510562  0.52080043  0.53528617  1
  Sb  Sb16  1  0.52111181  0.96566804  0.78822248  1
  Sb  Sb17  1  0.47681162  0.02653439  0.18666655  1
  S  S18  1  0.93312106  0.01202728  0.79223745  1
  S  S19  1  0.05873808  0.96788888  0.19364118  1
  S  S20  1  0.41305739  0.96040627  0.97375222  1
  S  S21  1  0.58511690  0.97696806  0.00933156  1
  S  S22  1  0.17303019  0.97233732  0.90151010  1
  S  S23  1  0.82564074  0.01243135  0.10798745  1
  S  S24  1  0.10230735  0.50469363  0.65656165  1
  S  S25  1  0.89658832  0.44686379  0.34558506  1
  S  S26  1  0.74166498  0.02393563  0.31574480  1
  S  S27  1  0.26161679  0.91977007  0.68431988  1
  S  S28  1  0.16077372  0.53268885  0.43793652  1
  S  S29  1  0.81421727  0.44930593  0.54501029  1
  S  S30  1  0.43972967  0.43977237  0.79705197  1
  S  S31  1  0.56387130  0.50695936  0.18167666  1
  S  S32  1  0.91371002  0.51534116  0.99048347  1
  S  S33  1  0.08387243  0.48497742  0.02673677  1
  S  S34  1  0.66266837  0.51838527  0.88889247  1
  S  S35  1  0.33378285  0.46028774  0.11149905  1
  S  S36  1  0.60331277  0.00854701  0.64735306  1
  S  S37  1  0.39834107  0.05832789  0.33189996  1
  S  S38  1  0.24213424  0.58134732  0.31736850  1
  S  S39  1  0.75827991  0.49351480  0.68341005  1
  S  S40  1  0.66822199  0.96123917  0.45464716  1
  S  S41  1  0.32795321  0.93455854  0.54470626  1
