# generated using pymatgen
data_Pr2Mn3(SbS3)4
_symmetry_space_group_name_H-M   'P 1'
_cell_length_a   20.02960800
_cell_length_b   3.90410600
_cell_length_c   14.95364829
_cell_angle_alpha   90.00000000
_cell_angle_beta   126.33350609
_cell_angle_gamma   90.00000000
_symmetry_Int_Tables_number   1
_chemical_formula_structural   Pr2Mn3(SbS3)4
_chemical_formula_sum   'Pr4 Mn6 Sb8 S24'
_cell_volume   942.00006694
_cell_formula_units_Z   2
loop_
 _symmetry_equiv_pos_site_id
 _symmetry_equiv_pos_as_xyz
  1  'x, y, z'
loop_
 _atom_site_type_symbol
 _atom_site_label
 _atom_site_symmetry_multiplicity
 _atom_site_fract_x
 _atom_site_fract_y
 _atom_site_fract_z
 _atom_site_occupancy
  Pr  Pr0  1  0.26721374  0.47448500  0.88305130  1
  Pr  Pr1  1  0.73046178  0.50734842  0.13669059  1
  Pr  Pr2  1  0.76228786  0.03668452  0.86772225  1
  Pr  Pr3  1  0.23006909  0.91153373  0.12559118  1
  Mn  Mn4  1  0.28887792  0.42471635  0.59370632  1
  Mn  Mn5  1  0.69783729  0.51543879  0.36680672  1
  Mn  Mn6  1  0.00823612  0.95715037  0.01175520  1
  Mn  Mn7  1  0.80243085  0.96908527  0.63245371  1
  Mn  Mn8  1  0.20793472  0.06431911  0.39656695  1
  Mn  Mn9  1  0.48574807  0.48578888  0.98519265  1
  Sb  Sb10  1  0.88996240  0.92050198  0.45703224  1
  Sb  Sb11  1  0.11519796  0.99190490  0.55182228  1
  Sb  Sb12  1  0.03609951  0.51325277  0.82438043  1
  Sb  Sb13  1  0.96811772  0.47346943  0.20529810  1
  Sb  Sb14  1  0.40380407  0.56708055  0.45085807  1
  Sb  Sb15  1  0.60511172  0.52105681  0.53531859  1
  Sb  Sb16  1  0.52108519  0.96576642  0.78820833  1
  Sb  Sb17  1  0.47694162  0.02624205  0.18690596  1
  S  S18  1  0.93325696  0.01192223  0.79259301  1
  S  S19  1  0.05876321  0.96760391  0.19389088  1
  S  S20  1  0.41289969  0.96151653  0.97331137  1
  S  S21  1  0.58490045  0.97717819  0.00942174  1
  S  S22  1  0.17331207  0.97240792  0.90125682  1
  S  S23  1  0.82584077  0.01184957  0.10827283  1
  S  S24  1  0.10227475  0.50410323  0.65653726  1
  S  S25  1  0.89642363  0.44720592  0.34549153  1
  S  S26  1  0.74170637  0.02406408  0.31563437  1
  S  S27  1  0.26158193  0.91963625  0.68438540  1
  S  S28  1  0.16081480  0.53332334  0.43778914  1
  S  S29  1  0.81452444  0.44961274  0.54490306  1
  S  S30  1  0.43985382  0.44052178  0.79732057  1
  S  S31  1  0.56413612  0.50688863  0.18160769  1
  S  S32  1  0.91374102  0.51424578  0.99048502  1
  S  S33  1  0.08417932  0.48569190  0.02688794  1
  S  S34  1  0.66273745  0.51930631  0.88882692  1
  S  S35  1  0.33401290  0.46107978  0.11155304  1
  S  S36  1  0.60336161  0.00893938  0.64721584  1
  S  S37  1  0.39833828  0.05904629  0.33187323  1
  S  S38  1  0.24200238  0.58080609  0.31751128  1
  S  S39  1  0.75836250  0.49353244  0.68361557  1
  S  S40  1  0.66818374  0.96103447  0.45458193  1
  S  S41  1  0.32795750  0.93539741  0.54498423  1
