# generated using pymatgen
data_Pr2Mn3(SbS3)4
_symmetry_space_group_name_H-M   'P 1'
_cell_length_a   20.02960800
_cell_length_b   3.90410600
_cell_length_c   14.95364829
_cell_angle_alpha   90.00000000
_cell_angle_beta   126.33350609
_cell_angle_gamma   90.00000000
_symmetry_Int_Tables_number   1
_chemical_formula_structural   Pr2Mn3(SbS3)4
_chemical_formula_sum   'Pr4 Mn6 Sb8 S24'
_cell_volume   942.00006694
_cell_formula_units_Z   2
loop_
 _symmetry_equiv_pos_site_id
 _symmetry_equiv_pos_as_xyz
  1  'x, y, z'
loop_
 _atom_site_type_symbol
 _atom_site_label
 _atom_site_symmetry_multiplicity
 _atom_site_fract_x
 _atom_site_fract_y
 _atom_site_fract_z
 _atom_site_occupancy
  Pr  Pr0  1  0.26478890  0.48179741  0.87060984  1
  Pr  Pr1  1  0.73727266  0.50846458  0.13607617  1
  Pr  Pr2  1  0.76146396  0.00981313  0.86075422  1
  Pr  Pr3  1  0.23692316  0.99889638  0.13997650  1
  Mn  Mn4  1  0.29578188  0.49596213  0.61105129  1
  Mn  Mn5  1  0.69559730  0.51745146  0.37969292  1
  Mn  Mn6  1  0.00326588  0.00138219  0.00051026  1
  Mn  Mn7  1  0.80269559  0.98829846  0.61565825  1
  Mn  Mn8  1  0.19701550  0.97619598  0.37976097  1
  Mn  Mn9  1  0.50301219  0.47780017  0.99497657  1
  Sb  Sb10  1  0.89335326  0.00321108  0.45486113  1
  Sb  Sb11  1  0.11150544  0.97303326  0.55243871  1
  Sb  Sb12  1  0.03969768  0.49690152  0.81605871  1
  Sb  Sb13  1  0.96245254  0.52896164  0.18778297  1
  Sb  Sb14  1  0.39758451  0.49762404  0.45720445  1
  Sb  Sb15  1  0.60673121  0.49295093  0.54832413  1
  Sb  Sb16  1  0.53681856  0.00777660  0.81494303  1
  Sb  Sb17  1  0.46241687  0.00425673  0.18170608  1
  S  S18  1  0.93529620  0.98040101  0.79674394  1
  S  S19  1  0.06432977  0.99089297  0.19289084  1
  S  S20  1  0.41001139  0.00634400  0.97870065  1
  S  S21  1  0.59209751  0.99166628  0.02059571  1
  S  S22  1  0.17214194  0.99135376  0.89675601  1
  S  S23  1  0.82714753  0.02016110  0.10144519  1
  S  S24  1  0.08575599  0.45869358  0.64444706  1
  S  S25  1  0.91410646  0.49038408  0.36116445  1
  S  S26  1  0.74331814  0.94358818  0.29860967  1
  S  S27  1  0.25767828  0.00343081  0.70191044  1
  S  S28  1  0.16420930  0.48563048  0.44402864  1
  S  S29  1  0.83060108  0.47816977  0.54997289  1
  S  S30  1  0.43322507  0.51139641  0.80129659  1
  S  S31  1  0.56180640  0.52276510  0.19204206  1
  S  S32  1  0.90219840  0.49249541  0.97653864  1
  S  S33  1  0.08690179  0.48994481  0.01859679  1
  S  S34  1  0.66398115  0.50683329  0.89258786  1
  S  S35  1  0.33006171  0.52983023  0.10139672  1
  S  S36  1  0.58930643  0.00549661  0.64677130  1
  S  S37  1  0.41062908  0.96382459  0.35265705  1
  S  S38  1  0.24344965  0.48880497  0.30308512  1
  S  S39  1  0.76070975  0.49420896  0.69696619  1
  S  S40  1  0.67275075  0.01463341  0.46442948  1
  S  S41  1  0.33113953  0.98658695  0.54302894  1
