# generated using pymatgen
data_Pr2Mn3(SbS3)4
_symmetry_space_group_name_H-M   'P 1'
_cell_length_a   20.02960800
_cell_length_b   3.90410600
_cell_length_c   14.95364829
_cell_angle_alpha   90.00000000
_cell_angle_beta   126.33350609
_cell_angle_gamma   90.00000000
_symmetry_Int_Tables_number   1
_chemical_formula_structural   Pr2Mn3(SbS3)4
_chemical_formula_sum   'Pr4 Mn6 Sb8 S24'
_cell_volume   942.00006694
_cell_formula_units_Z   2
loop_
 _symmetry_equiv_pos_site_id
 _symmetry_equiv_pos_as_xyz
  1  'x, y, z'
loop_
 _atom_site_type_symbol
 _atom_site_label
 _atom_site_symmetry_multiplicity
 _atom_site_fract_x
 _atom_site_fract_y
 _atom_site_fract_z
 _atom_site_occupancy
  Pr  Pr0  1  0.26721565  0.47421738  0.88305115  1
  Pr  Pr1  1  0.73046073  0.50732426  0.13675410  1
  Pr  Pr2  1  0.76232084  0.03714240  0.86771559  1
  Pr  Pr3  1  0.22998810  0.91158691  0.12558253  1
  Mn  Mn4  1  0.28860579  0.42393207  0.59345682  1
  Mn  Mn5  1  0.69780222  0.51592455  0.36668220  1
  Mn  Mn6  1  0.00828328  0.95670518  0.01188234  1
  Mn  Mn7  1  0.80226179  0.96932829  0.63215463  1
  Mn  Mn8  1  0.20787741  0.06491083  0.39653579  1
  Mn  Mn9  1  0.48572110  0.48560062  0.98543010  1
  Sb  Sb10  1  0.88992750  0.91998313  0.45715267  1
  Sb  Sb11  1  0.11533851  0.99175425  0.55176257  1
  Sb  Sb12  1  0.03608225  0.51319510  0.82441239  1
  Sb  Sb13  1  0.96812511  0.47301369  0.20547652  1
  Sb  Sb14  1  0.40383736  0.56713218  0.45080780  1
  Sb  Sb15  1  0.60512218  0.52132318  0.53541678  1
  Sb  Sb16  1  0.52102864  0.96578670  0.78809440  1
  Sb  Sb17  1  0.47697466  0.02609251  0.18701800  1
  S  S18  1  0.93342937  0.01160038  0.79289084  1
  S  S19  1  0.05897741  0.96757569  0.19418584  1
  S  S20  1  0.41287287  0.96248610  0.97307824  1
  S  S21  1  0.58460557  0.97824694  0.00948306  1
  S  S22  1  0.17362384  0.97201050  0.90118447  1
  S  S23  1  0.82593587  0.01127004  0.10831617  1
  S  S24  1  0.10231630  0.50362307  0.65662033  1
  S  S25  1  0.89637297  0.44774704  0.34560337  1
  S  S26  1  0.74172456  0.02448473  0.31538005  1
  S  S27  1  0.26156499  0.91909140  0.68451365  1
  S  S28  1  0.16090262  0.53393224  0.43770689  1
  S  S29  1  0.81479420  0.44988845  0.54469397  1
  S  S30  1  0.43998884  0.44152721  0.79766024  1
  S  S31  1  0.56435105  0.50658449  0.18144108  1
  S  S32  1  0.91379429  0.51357724  0.99050095  1
  S  S33  1  0.08440031  0.48623963  0.02685606  1
  S  S34  1  0.66282453  0.52030413  0.88872893  1
  S  S35  1  0.33421970  0.46199712  0.11155576  1
  S  S36  1  0.60353484  0.00960163  0.64724962  1
  S  S37  1  0.39823385  0.05995697  0.33171543  1
  S  S38  1  0.24203604  0.58047087  0.31769234  1
  S  S39  1  0.75844646  0.49372992  0.68376083  1
  S  S40  1  0.66813490  0.96058786  0.45449439  1
  S  S41  1  0.32785743  0.93602785  0.54519029  1
