# generated using pymatgen
data_Pr2Mn3(SbS3)4
_symmetry_space_group_name_H-M   'P 1'
_cell_length_a   20.02960800
_cell_length_b   3.90410600
_cell_length_c   14.95364829
_cell_angle_alpha   90.00000000
_cell_angle_beta   126.33350609
_cell_angle_gamma   90.00000000
_symmetry_Int_Tables_number   1
_chemical_formula_structural   Pr2Mn3(SbS3)4
_chemical_formula_sum   'Pr4 Mn6 Sb8 S24'
_cell_volume   942.00006694
_cell_formula_units_Z   2
loop_
 _symmetry_equiv_pos_site_id
 _symmetry_equiv_pos_as_xyz
  1  'x, y, z'
loop_
 _atom_site_type_symbol
 _atom_site_label
 _atom_site_symmetry_multiplicity
 _atom_site_fract_x
 _atom_site_fract_y
 _atom_site_fract_z
 _atom_site_occupancy
  Pr  Pr0  1  0.26729674  0.47402546  0.88310435  1
  Pr  Pr1  1  0.73045053  0.50749086  0.13686938  1
  Pr  Pr2  1  0.76233460  0.03770523  0.86773596  1
  Pr  Pr3  1  0.22996383  0.91156588  0.12562083  1
  Mn  Mn4  1  0.28834521  0.42296120  0.59322394  1
  Mn  Mn5  1  0.69772837  0.51626961  0.36651460  1
  Mn  Mn6  1  0.00833737  0.95595359  0.01203794  1
  Mn  Mn7  1  0.80212642  0.96927663  0.63186680  1
  Mn  Mn8  1  0.20792427  0.06539437  0.39664049  1
  Mn  Mn9  1  0.48564187  0.48567813  0.98563216  1
  Sb  Sb10  1  0.88993937  0.91930066  0.45729446  1
  Sb  Sb11  1  0.11544175  0.99156846  0.55169591  1
  Sb  Sb12  1  0.03606534  0.51303277  0.82437424  1
  Sb  Sb13  1  0.96818110  0.47287383  0.20564248  1
  Sb  Sb14  1  0.40380306  0.56719049  0.45080258  1
  Sb  Sb15  1  0.60512199  0.52152303  0.53558387  1
  Sb  Sb16  1  0.52097233  0.96609970  0.78797407  1
  Sb  Sb17  1  0.47701137  0.02578812  0.18708680  1
  S  S18  1  0.93359421  0.01150681  0.79315480  1
  S  S19  1  0.05929129  0.96750954  0.19467084  1
  S  S20  1  0.41282452  0.96352282  0.97277093  1
  S  S21  1  0.58435329  0.97938275  0.00954511  1
  S  S22  1  0.17387858  0.97190869  0.90119382  1
  S  S23  1  0.82607795  0.01093859  0.10832778  1
  S  S24  1  0.10241344  0.50322202  0.65690348  1
  S  S25  1  0.89641968  0.44787635  0.34592666  1
  S  S26  1  0.74180846  0.02486919  0.31523266  1
  S  S27  1  0.26153124  0.91851760  0.68457221  1
  S  S28  1  0.16099375  0.53450816  0.43760945  1
  S  S29  1  0.81498822  0.44975284  0.54455223  1
  S  S30  1  0.44012767  0.44238751  0.79811766  1
  S  S31  1  0.56447397  0.50643990  0.18138325  1
  S  S32  1  0.91378886  0.51276542  0.99041617  1
  S  S33  1  0.08463182  0.48682768  0.02684041  1
  S  S34  1  0.66288716  0.52071692  0.88864699  1
  S  S35  1  0.33427454  0.46287508  0.11148489  1
  S  S36  1  0.60369895  0.01068681  0.64727228  1
  S  S37  1  0.39813882  0.06075222  0.33145473  1
  S  S38  1  0.24212201  0.57977828  0.31789469  1
  S  S39  1  0.75848478  0.49403021  0.68382056  1
  S  S40  1  0.66802098  0.96022297  0.45446126  1
  S  S41  1  0.32792931  0.93679156  0.54562806  1
