# generated using pymatgen
data_Pr2Mn3(SbS3)4
_symmetry_space_group_name_H-M   'P 1'
_cell_length_a   20.02960800
_cell_length_b   3.90410600
_cell_length_c   14.95364829
_cell_angle_alpha   90.00000000
_cell_angle_beta   126.33350609
_cell_angle_gamma   90.00000000
_symmetry_Int_Tables_number   1
_chemical_formula_structural   Pr2Mn3(SbS3)4
_chemical_formula_sum   'Pr4 Mn6 Sb8 S24'
_cell_volume   942.00006694
_cell_formula_units_Z   2
loop_
 _symmetry_equiv_pos_site_id
 _symmetry_equiv_pos_as_xyz
  1  'x, y, z'
loop_
 _atom_site_type_symbol
 _atom_site_label
 _atom_site_symmetry_multiplicity
 _atom_site_fract_x
 _atom_site_fract_y
 _atom_site_fract_z
 _atom_site_occupancy
  Pr  Pr0  1  0.26734830  0.47402580  0.88312758  1
  Pr  Pr1  1  0.73043883  0.50767101  0.13697086  1
  Pr  Pr2  1  0.76229099  0.03809672  0.86762666  1
  Pr  Pr3  1  0.22991987  0.91149339  0.12566998  1
  Mn  Mn4  1  0.28815529  0.42249977  0.59302194  1
  Mn  Mn5  1  0.69774524  0.51684255  0.36636968  1
  Mn  Mn6  1  0.00841347  0.95573430  0.01212108  1
  Mn  Mn7  1  0.80203333  0.96944208  0.63171271  1
  Mn  Mn8  1  0.20797003  0.06563765  0.39672746  1
  Mn  Mn9  1  0.48563438  0.48567048  0.98580353  1
  Sb  Sb10  1  0.88999083  0.91849927  0.45739424  1
  Sb  Sb11  1  0.11553965  0.99117760  0.55156449  1
  Sb  Sb12  1  0.03606817  0.51274959  0.82434353  1
  Sb  Sb13  1  0.96818386  0.47242029  0.20578461  1
  Sb  Sb14  1  0.40376987  0.56743627  0.45077252  1
  Sb  Sb15  1  0.60507629  0.52179060  0.53569732  1
  Sb  Sb16  1  0.52093586  0.96634260  0.78787278  1
  Sb  Sb17  1  0.47701764  0.02543575  0.18708820  1
  S  S18  1  0.93384732  0.01160927  0.79341646  1
  S  S19  1  0.05955325  0.96743880  0.19512729  1
  S  S20  1  0.41271515  0.96441695  0.97238827  1
  S  S21  1  0.58410567  0.98059941  0.00956868  1
  S  S22  1  0.17412345  0.97160483  0.90130916  1
  S  S23  1  0.82628433  0.01008482  0.10841715  1
  S  S24  1  0.10252926  0.50260776  0.65700030  1
  S  S25  1  0.89655651  0.44828128  0.34623085  1
  S  S26  1  0.74175460  0.02504379  0.31499113  1
  S  S27  1  0.26150852  0.91822008  0.68448280  1
  S  S28  1  0.16094652  0.53477515  0.43739718  1
  S  S29  1  0.81520455  0.45013869  0.54466767  1
  S  S30  1  0.44027967  0.44275236  0.79855401  1
  S  S31  1  0.56448212  0.50635917  0.18115445  1
  S  S32  1  0.91380613  0.51226241  0.99044797  1
  S  S33  1  0.08479862  0.48747341  0.02677174  1
  S  S34  1  0.66305120  0.52138812  0.88872690  1
  S  S35  1  0.33422954  0.46368766  0.11145644  1
  S  S36  1  0.60388624  0.01148548  0.64718001  1
  S  S37  1  0.39795088  0.06119050  0.33118653  1
  S  S38  1  0.24231266  0.57851573  0.31822292  1
  S  S39  1  0.75855739  0.49404510  0.68397269  1
  S  S40  1  0.66787273  0.95974272  0.45437722  1
  S  S41  1  0.32807936  0.93757512  0.54614467  1
