# generated using pymatgen
data_Pr2Mn3(SbS3)4
_symmetry_space_group_name_H-M   'P 1'
_cell_length_a   20.02960800
_cell_length_b   3.90410600
_cell_length_c   14.95364829
_cell_angle_alpha   90.00000000
_cell_angle_beta   126.33350609
_cell_angle_gamma   90.00000000
_symmetry_Int_Tables_number   1
_chemical_formula_structural   Pr2Mn3(SbS3)4
_chemical_formula_sum   'Pr4 Mn6 Sb8 S24'
_cell_volume   942.00006694
_cell_formula_units_Z   2
loop_
 _symmetry_equiv_pos_site_id
 _symmetry_equiv_pos_as_xyz
  1  'x, y, z'
loop_
 _atom_site_type_symbol
 _atom_site_label
 _atom_site_symmetry_multiplicity
 _atom_site_fract_x
 _atom_site_fract_y
 _atom_site_fract_z
 _atom_site_occupancy
  Pr  Pr0  1  0.26733661  0.47393459  0.88317602  1
  Pr  Pr1  1  0.73046742  0.50779241  0.13709352  1
  Pr  Pr2  1  0.76220449  0.03857765  0.86748642  1
  Pr  Pr3  1  0.22998456  0.91164412  0.12580781  1
  Mn  Mn4  1  0.28801979  0.42214559  0.59292175  1
  Mn  Mn5  1  0.69775937  0.51728334  0.36624959  1
  Mn  Mn6  1  0.00840087  0.95566752  0.01209262  1
  Mn  Mn7  1  0.80199448  0.96960383  0.63157567  1
  Mn  Mn8  1  0.20804293  0.06613268  0.39689638  1
  Mn  Mn9  1  0.48568935  0.48558775  0.98594805  1
  Sb  Sb10  1  0.89009433  0.91786709  0.45749805  1
  Sb  Sb11  1  0.11563972  0.99067746  0.55139695  1
  Sb  Sb12  1  0.03602597  0.51267850  0.82430350  1
  Sb  Sb13  1  0.96816659  0.47222277  0.20589132  1
  Sb  Sb14  1  0.40376367  0.56772945  0.45074275  1
  Sb  Sb15  1  0.60509093  0.52188641  0.53578579  1
  Sb  Sb16  1  0.52091217  0.96633222  0.78781675  1
  Sb  Sb17  1  0.47697103  0.02522675  0.18704913  1
  S  S18  1  0.93404874  0.01167043  0.79353933  1
  S  S19  1  0.05973529  0.96735176  0.19542213  1
  S  S20  1  0.41257291  0.96534527  0.97218134  1
  S  S21  1  0.58382733  0.98157566  0.00952573  1
  S  S22  1  0.17435728  0.97142108  0.90144420  1
  S  S23  1  0.82638769  0.00917229  0.10839156  1
  S  S24  1  0.10270039  0.50200456  0.65710901  1
  S  S25  1  0.89662776  0.44839002  0.34653248  1
  S  S26  1  0.74171858  0.02497146  0.31473082  1
  S  S27  1  0.26149746  0.91777821  0.68439134  1
  S  S28  1  0.16096857  0.53550207  0.43734868  1
  S  S29  1  0.81540321  0.45023272  0.54476891  1
  S  S30  1  0.44031216  0.44304722  0.79886970  1
  S  S31  1  0.56452122  0.50577962  0.18101068  1
  S  S32  1  0.91381162  0.51235297  0.99055308  1
  S  S33  1  0.08485890  0.48790260  0.02659801  1
  S  S34  1  0.66309218  0.52205028  0.88865551  1
  S  S35  1  0.33422901  0.46453675  0.11157168  1
  S  S36  1  0.60406218  0.01228324  0.64706822  1
  S  S37  1  0.39778730  0.06165129  0.33108877  1
  S  S38  1  0.24256184  0.57738487  0.31854500  1
  S  S39  1  0.75857105  0.49366583  0.68402104  1
  S  S40  1  0.66771074  0.95938962  0.45440174  1
  S  S41  1  0.32822800  0.93810048  0.54661866  1
