# generated using pymatgen
data_Pr2Mn3(SbS3)4
_symmetry_space_group_name_H-M   'P 1'
_cell_length_a   20.02960800
_cell_length_b   3.90410600
_cell_length_c   14.95364829
_cell_angle_alpha   90.00000000
_cell_angle_beta   126.33350609
_cell_angle_gamma   90.00000000
_symmetry_Int_Tables_number   1
_chemical_formula_structural   Pr2Mn3(SbS3)4
_chemical_formula_sum   'Pr4 Mn6 Sb8 S24'
_cell_volume   942.00006694
_cell_formula_units_Z   2
loop_
 _symmetry_equiv_pos_site_id
 _symmetry_equiv_pos_as_xyz
  1  'x, y, z'
loop_
 _atom_site_type_symbol
 _atom_site_label
 _atom_site_symmetry_multiplicity
 _atom_site_fract_x
 _atom_site_fract_y
 _atom_site_fract_z
 _atom_site_occupancy
  Pr  Pr0  1  0.26729366  0.47397249  0.88323584  1
  Pr  Pr1  1  0.73047841  0.50815106  0.13722195  1
  Pr  Pr2  1  0.76212112  0.03892600  0.86731997  1
  Pr  Pr3  1  0.23007864  0.91181959  0.12598218  1
  Mn  Mn4  1  0.28797005  0.42139919  0.59286456  1
  Mn  Mn5  1  0.69775980  0.51758423  0.36608820  1
  Mn  Mn6  1  0.00833678  0.95567889  0.01198017  1
  Mn  Mn7  1  0.80186741  0.96940056  0.63147679  1
  Mn  Mn8  1  0.20811693  0.06641920  0.39703159  1
  Mn  Mn9  1  0.48578566  0.48531891  0.98619359  1
  Sb  Sb10  1  0.89022895  0.91754437  0.45759906  1
  Sb  Sb11  1  0.11568649  0.98989803  0.55120690  1
  Sb  Sb12  1  0.03594806  0.51262957  0.82427522  1
  Sb  Sb13  1  0.96814033  0.47198133  0.20596435  1
  Sb  Sb14  1  0.40377587  0.56796358  0.45062075  1
  Sb  Sb15  1  0.60514080  0.52203338  0.53591749  1
  Sb  Sb16  1  0.52090601  0.96624450  0.78779575  1
  Sb  Sb17  1  0.47690662  0.02481717  0.18692876  1
  S  S18  1  0.93417877  0.01132113  0.79363331  1
  S  S19  1  0.05992237  0.96789831  0.19558656  1
  S  S20  1  0.41242720  0.96616090  0.97199123  1
  S  S21  1  0.58357435  0.98243754  0.00942470  1
  S  S22  1  0.17450232  0.97095075  0.90155501  1
  S  S23  1  0.82635139  0.00846015  0.10833958  1
  S  S24  1  0.10285804  0.50183036  0.65722606  1
  S  S25  1  0.89673313  0.44796941  0.34693573  1
  S  S26  1  0.74165396  0.02438666  0.31442744  1
  S  S27  1  0.26160577  0.91750325  0.68441746  1
  S  S28  1  0.16105107  0.53604703  0.43728573  1
  S  S29  1  0.81561553  0.45056234  0.54490981  1
  S  S30  1  0.44044590  0.44335948  0.79929241  1
  S  S31  1  0.56458861  0.50516737  0.18083560  1
  S  S32  1  0.91379906  0.51202718  0.99070363  1
  S  S33  1  0.08498773  0.48784392  0.02643159  1
  S  S34  1  0.66303155  0.52242765  0.88836651  1
  S  S35  1  0.33418772  0.46566660  0.11166325  1
  S  S36  1  0.60426873  0.01316553  0.64697922  1
  S  S37  1  0.39754577  0.06190385  0.33094530  1
  S  S38  1  0.24287448  0.57684283  0.31883480  1
  S  S39  1  0.75859241  0.49339090  0.68416698  1
  S  S40  1  0.66759158  0.95937766  0.45455645  1
  S  S41  1  0.32839232  0.93839798  0.54707420  1
