# generated using pymatgen
data_Pr2Mn3(SbS3)4
_symmetry_space_group_name_H-M   'P 1'
_cell_length_a   20.02960800
_cell_length_b   3.90410600
_cell_length_c   14.95364829
_cell_angle_alpha   90.00000000
_cell_angle_beta   126.33350609
_cell_angle_gamma   90.00000000
_symmetry_Int_Tables_number   1
_chemical_formula_structural   Pr2Mn3(SbS3)4
_chemical_formula_sum   'Pr4 Mn6 Sb8 S24'
_cell_volume   942.00006694
_cell_formula_units_Z   2
loop_
 _symmetry_equiv_pos_site_id
 _symmetry_equiv_pos_as_xyz
  1  'x, y, z'
loop_
 _atom_site_type_symbol
 _atom_site_label
 _atom_site_symmetry_multiplicity
 _atom_site_fract_x
 _atom_site_fract_y
 _atom_site_fract_z
 _atom_site_occupancy
  Pr  Pr0  1  0.26727421  0.47393778  0.88333382  1
  Pr  Pr1  1  0.73048332  0.50841269  0.13738313  1
  Pr  Pr2  1  0.76209249  0.03932899  0.86721039  1
  Pr  Pr3  1  0.23013970  0.91196856  0.12608253  1
  Mn  Mn4  1  0.28789856  0.42060513  0.59286054  1
  Mn  Mn5  1  0.69772201  0.51782394  0.36595374  1
  Mn  Mn6  1  0.00820741  0.95591371  0.01185048  1
  Mn  Mn7  1  0.80174871  0.96980112  0.63138639  1
  Mn  Mn8  1  0.20815321  0.06647075  0.39721272  1
  Mn  Mn9  1  0.48583946  0.48489244  0.98641608  1
  Sb  Sb10  1  0.89034997  0.91731332  0.45773499  1
  Sb  Sb11  1  0.11571826  0.98927647  0.55107146  1
  Sb  Sb12  1  0.03591571  0.51262027  0.82431737  1
  Sb  Sb13  1  0.96807907  0.47158722  0.20601035  1
  Sb  Sb14  1  0.40372514  0.56825718  0.45042048  1
  Sb  Sb15  1  0.60518569  0.52209595  0.53602062  1
  Sb  Sb16  1  0.52081391  0.96618160  0.78777723  1
  Sb  Sb17  1  0.47684160  0.02451970  0.18680559  1
  S  S18  1  0.93437627  0.01092319  0.79386984  1
  S  S19  1  0.06007226  0.96910879  0.19579403  1
  S  S20  1  0.41230989  0.96718782  0.97179409  1
  S  S21  1  0.58340606  0.98265517  0.00934244  1
  S  S22  1  0.17469060  0.97087524  0.90185676  1
  S  S23  1  0.82624927  0.00834742  0.10829644  1
  S  S24  1  0.10311987  0.50231624  0.65741507  1
  S  S25  1  0.89677170  0.44712862  0.34713038  1
  S  S26  1  0.74169607  0.02395090  0.31416468  1
  S  S27  1  0.26175110  0.91705866  0.68454524  1
  S  S28  1  0.16114157  0.53641340  0.43716010  1
  S  S29  1  0.81569821  0.45121980  0.54489741  1
  S  S30  1  0.44061165  0.44386594  0.79980458  1
  S  S31  1  0.56469613  0.50475987  0.18067811  1
  S  S32  1  0.91376642  0.51187815  0.99089009  1
  S  S33  1  0.08514440  0.48727509  0.02619453  1
  S  S34  1  0.66306269  0.52301790  0.88807608  1
  S  S35  1  0.33408281  0.46696892  0.11165935  1
  S  S36  1  0.60444259  0.01460719  0.64700560  1
  S  S37  1  0.39739977  0.06214216  0.33082237  1
  S  S38  1  0.24302264  0.57618578  0.31900122  1
  S  S39  1  0.75855340  0.49321423  0.68411761  1
  S  S40  1  0.66754087  0.95952254  0.45474209  1
  S  S41  1  0.32844133  0.93891006  0.54757043  1
