# generated using pymatgen
data_Pr2Mn3(SbS3)4
_symmetry_space_group_name_H-M   'P 1'
_cell_length_a   20.02960800
_cell_length_b   3.90410600
_cell_length_c   14.95364829
_cell_angle_alpha   90.00000000
_cell_angle_beta   126.33350609
_cell_angle_gamma   90.00000000
_symmetry_Int_Tables_number   1
_chemical_formula_structural   Pr2Mn3(SbS3)4
_chemical_formula_sum   'Pr4 Mn6 Sb8 S24'
_cell_volume   942.00006694
_cell_formula_units_Z   2
loop_
 _symmetry_equiv_pos_site_id
 _symmetry_equiv_pos_as_xyz
  1  'x, y, z'
loop_
 _atom_site_type_symbol
 _atom_site_label
 _atom_site_symmetry_multiplicity
 _atom_site_fract_x
 _atom_site_fract_y
 _atom_site_fract_z
 _atom_site_occupancy
  Pr  Pr0  1  0.26726678  0.47401002  0.88348097  1
  Pr  Pr1  1  0.73050633  0.50850111  0.13754063  1
  Pr  Pr2  1  0.76212395  0.03966933  0.86711091  1
  Pr  Pr3  1  0.23024925  0.91232908  0.12626730  1
  Mn  Mn4  1  0.28781512  0.42027409  0.59287448  1
  Mn  Mn5  1  0.69767579  0.51778965  0.36580358  1
  Mn  Mn6  1  0.00804462  0.95624669  0.01171362  1
  Mn  Mn7  1  0.80156783  0.97005859  0.63118067  1
  Mn  Mn8  1  0.20821644  0.06588732  0.39740264  1
  Mn  Mn9  1  0.48589088  0.48409405  0.98662470  1
  Sb  Sb10  1  0.89052451  0.91715113  0.45791997  1
  Sb  Sb11  1  0.11575416  0.98849696  0.55097192  1
  Sb  Sb12  1  0.03589269  0.51258687  0.82439931  1
  Sb  Sb13  1  0.96801334  0.47128320  0.20610420  1
  Sb  Sb14  1  0.40374098  0.56857552  0.45022981  1
  Sb  Sb15  1  0.60522522  0.52208624  0.53615056  1
  Sb  Sb16  1  0.52073597  0.96601002  0.78773348  1
  Sb  Sb17  1  0.47676979  0.02414086  0.18665330  1
  S  S18  1  0.93442444  0.01047048  0.79397032  1
  S  S19  1  0.06021151  0.96999285  0.19600324  1
  S  S20  1  0.41217722  0.96796661  0.97156980  1
  S  S21  1  0.58321269  0.98239772  0.00921415  1
  S  S22  1  0.17490690  0.97112594  0.90206257  1
  S  S23  1  0.82607819  0.00834296  0.10815683  1
  S  S24  1  0.10346648  0.50296686  0.65768919  1
  S  S25  1  0.89674586  0.44608451  0.34725519  1
  S  S26  1  0.74170099  0.02351719  0.31386949  1
  S  S27  1  0.26200787  0.91689585  0.68480198  1
  S  S28  1  0.16126836  0.53659257  0.43711736  1
  S  S29  1  0.81575626  0.45132900  0.54492719  1
  S  S30  1  0.44076894  0.44446939  0.80017795  1
  S  S31  1  0.56478834  0.50479728  0.18046064  1
  S  S32  1  0.91377062  0.51198622  0.99094747  1
  S  S33  1  0.08525476  0.48701122  0.02595026  1
  S  S34  1  0.66316063  0.52323789  0.88791024  1
  S  S35  1  0.33408268  0.46842046  0.11168590  1
  S  S36  1  0.60457349  0.01603052  0.64697028  1
  S  S37  1  0.39716974  0.06234230  0.33070326  1
  S  S38  1  0.24315941  0.57606470  0.31916527  1
  S  S39  1  0.75857243  0.49379943  0.68414332  1
  S  S40  1  0.66760456  0.95895941  0.45496456  1
  S  S41  1  0.32852413  0.93976288  0.54817570  1
