# generated using pymatgen
data_Pr2Mn3(SbS3)4
_symmetry_space_group_name_H-M   'P 1'
_cell_length_a   20.02960800
_cell_length_b   3.90410600
_cell_length_c   14.95364829
_cell_angle_alpha   90.00000000
_cell_angle_beta   126.33350609
_cell_angle_gamma   90.00000000
_symmetry_Int_Tables_number   1
_chemical_formula_structural   Pr2Mn3(SbS3)4
_chemical_formula_sum   'Pr4 Mn6 Sb8 S24'
_cell_volume   942.00006694
_cell_formula_units_Z   2
loop_
 _symmetry_equiv_pos_site_id
 _symmetry_equiv_pos_as_xyz
  1  'x, y, z'
loop_
 _atom_site_type_symbol
 _atom_site_label
 _atom_site_symmetry_multiplicity
 _atom_site_fract_x
 _atom_site_fract_y
 _atom_site_fract_z
 _atom_site_occupancy
  Pr  Pr0  1  0.26727788  0.47412727  0.88362586  1
  Pr  Pr1  1  0.73056850  0.50861020  0.13772364  1
  Pr  Pr2  1  0.76218145  0.03994600  0.86704195  1
  Pr  Pr3  1  0.23040333  0.91249113  0.12645755  1
  Mn  Mn4  1  0.28775945  0.42031800  0.59298824  1
  Mn  Mn5  1  0.69769887  0.51817680  0.36571382  1
  Mn  Mn6  1  0.00793555  0.95698408  0.01155712  1
  Mn  Mn7  1  0.80133953  0.97001254  0.63100550  1
  Mn  Mn8  1  0.20824095  0.06540520  0.39744518  1
  Mn  Mn9  1  0.48594199  0.48296471  0.98673258  1
  Sb  Sb10  1  0.89067116  0.91708110  0.45811744  1
  Sb  Sb11  1  0.11579433  0.98781491  0.55091153  1
  Sb  Sb12  1  0.03583919  0.51264593  0.82445428  1
  Sb  Sb13  1  0.96796479  0.47098892  0.20620300  1
  Sb  Sb14  1  0.40372533  0.56876584  0.45003032  1
  Sb  Sb15  1  0.60525804  0.52206918  0.53633099  1
  Sb  Sb16  1  0.52065676  0.96582351  0.78761878  1
  Sb  Sb17  1  0.47669712  0.02385375  0.18647184  1
  S  S18  1  0.93451283  0.01004636  0.79406107  1
  S  S19  1  0.06029811  0.97091395  0.19622652  1
  S  S20  1  0.41196746  0.96861465  0.97125585  1
  S  S21  1  0.58307140  0.98255026  0.00909515  1
  S  S22  1  0.17493797  0.97124606  0.90225274  1
  S  S23  1  0.82601397  0.00877492  0.10805295  1
  S  S24  1  0.10375833  0.50317110  0.65799908  1
  S  S25  1  0.89658610  0.44488618  0.34736839  1
  S  S26  1  0.74179489  0.02254200  0.31366183  1
  S  S27  1  0.26225289  0.91707547  0.68499042  1
  S  S28  1  0.16137012  0.53725900  0.43709884  1
  S  S29  1  0.81568947  0.45104161  0.54485071  1
  S  S30  1  0.44086676  0.44460283  0.80035586  1
  S  S31  1  0.56485977  0.50495608  0.18029998  1
  S  S32  1  0.91384505  0.51231550  0.99117353  1
  S  S33  1  0.08537228  0.48686053  0.02566033  1
  S  S34  1  0.66325623  0.52312688  0.88772760  1
  S  S35  1  0.33422366  0.46969512  0.11190800  1
  S  S36  1  0.60466024  0.01722772  0.64692289  1
  S  S37  1  0.39705057  0.06247248  0.33058280  1
  S  S38  1  0.24320515  0.57637633  0.31916363  1
  S  S39  1  0.75874951  0.49459122  0.68434546  1
  S  S40  1  0.66760845  0.95913377  0.45521339  1
  S  S41  1  0.32866072  0.94037377  0.54871401  1
