# generated using pymatgen
data_Pr2Mn3(SbS3)4
_symmetry_space_group_name_H-M   'P 1'
_cell_length_a   20.02960800
_cell_length_b   3.90410600
_cell_length_c   14.95364829
_cell_angle_alpha   90.00000000
_cell_angle_beta   126.33350609
_cell_angle_gamma   90.00000000
_symmetry_Int_Tables_number   1
_chemical_formula_structural   Pr2Mn3(SbS3)4
_chemical_formula_sum   'Pr4 Mn6 Sb8 S24'
_cell_volume   942.00006694
_cell_formula_units_Z   2
loop_
 _symmetry_equiv_pos_site_id
 _symmetry_equiv_pos_as_xyz
  1  'x, y, z'
loop_
 _atom_site_type_symbol
 _atom_site_label
 _atom_site_symmetry_multiplicity
 _atom_site_fract_x
 _atom_site_fract_y
 _atom_site_fract_z
 _atom_site_occupancy
  Pr  Pr0  1  0.26731946  0.47416152  0.88379570  1
  Pr  Pr1  1  0.73063683  0.50876230  0.13789099  1
  Pr  Pr2  1  0.76219137  0.03999272  0.86687860  1
  Pr  Pr3  1  0.23058352  0.91229931  0.12667247  1
  Mn  Mn4  1  0.28773447  0.41987331  0.59307077  1
  Mn  Mn5  1  0.69771265  0.51805199  0.36567083  1
  Mn  Mn6  1  0.00783953  0.95760487  0.01147412  1
  Mn  Mn7  1  0.80123737  0.97016060  0.63095452  1
  Mn  Mn8  1  0.20828899  0.06527364  0.39746904  1
  Mn  Mn9  1  0.48595487  0.48173274  0.98684692  1
  Sb  Sb10  1  0.89083878  0.91692243  0.45834992  1
  Sb  Sb11  1  0.11577384  0.98704524  0.55078085  1
  Sb  Sb12  1  0.03581815  0.51298412  0.82447359  1
  Sb  Sb13  1  0.96783287  0.47076920  0.20618775  1
  Sb  Sb14  1  0.40374469  0.56877073  0.44986904  1
  Sb  Sb15  1  0.60532969  0.52206902  0.53650777  1
  Sb  Sb16  1  0.52058387  0.96567937  0.78754652  1
  Sb  Sb17  1  0.47664551  0.02337193  0.18640504  1
  S  S18  1  0.93450812  0.00956268  0.79418743  1
  S  S19  1  0.06034535  0.97171788  0.19650583  1
  S  S20  1  0.41166870  0.96910725  0.97087988  1
  S  S21  1  0.58289460  0.98238455  0.00881958  1
  S  S22  1  0.17467375  0.97148675  0.90224742  1
  S  S23  1  0.82601024  0.00880213  0.10793827  1
  S  S24  1  0.10405317  0.50339962  0.65823990  1
  S  S25  1  0.89640158  0.44363189  0.34737333  1
  S  S26  1  0.74188454  0.02164462  0.31356224  1
  S  S27  1  0.26234526  0.91749732  0.68504715  1
  S  S28  1  0.16154501  0.53756261  0.43695324  1
  S  S29  1  0.81560095  0.45121269  0.54464733  1
  S  S30  1  0.44094535  0.44449075  0.80049400  1
  S  S31  1  0.56489115  0.50506715  0.18020489  1
  S  S32  1  0.91397231  0.51223638  0.99146012  1
  S  S33  1  0.08557987  0.48643418  0.02541899  1
  S  S34  1  0.66340673  0.52274372  0.88753037  1
  S  S35  1  0.33429466  0.47023178  0.11204107  1
  S  S36  1  0.60471605  0.01801762  0.64690926  1
  S  S37  1  0.39681788  0.06259971  0.33028280  1
  S  S38  1  0.24334475  0.57672729  0.31918584  1
  S  S39  1  0.75912745  0.49516253  0.68451160  1
  S  S40  1  0.66751668  0.95901361  0.45521803  1
  S  S41  1  0.32878814  0.94101985  0.54928839  1
