# generated using pymatgen
data_Pr2Mn3(SbS3)4
_symmetry_space_group_name_H-M   'P 1'
_cell_length_a   20.02960800
_cell_length_b   3.90410600
_cell_length_c   14.95364829
_cell_angle_alpha   90.00000000
_cell_angle_beta   126.33350609
_cell_angle_gamma   90.00000000
_symmetry_Int_Tables_number   1
_chemical_formula_structural   Pr2Mn3(SbS3)4
_chemical_formula_sum   'Pr4 Mn6 Sb8 S24'
_cell_volume   942.00006694
_cell_formula_units_Z   2
loop_
 _symmetry_equiv_pos_site_id
 _symmetry_equiv_pos_as_xyz
  1  'x, y, z'
loop_
 _atom_site_type_symbol
 _atom_site_label
 _atom_site_symmetry_multiplicity
 _atom_site_fract_x
 _atom_site_fract_y
 _atom_site_fract_z
 _atom_site_occupancy
  Pr  Pr0  1  0.26741072  0.47414742  0.88397858  1
  Pr  Pr1  1  0.73065313  0.50894788  0.13804777  1
  Pr  Pr2  1  0.76218244  0.04011131  0.86678409  1
  Pr  Pr3  1  0.23075057  0.91216281  0.12690269  1
  Mn  Mn4  1  0.28774752  0.41972030  0.59323254  1
  Mn  Mn5  1  0.69771374  0.51770310  0.36566019  1
  Mn  Mn6  1  0.00775206  0.95817383  0.01145898  1
  Mn  Mn7  1  0.80120473  0.97042934  0.63111004  1
  Mn  Mn8  1  0.20834462  0.06562501  0.39759085  1
  Mn  Mn9  1  0.48592735  0.48034413  0.98689528  1
  Sb  Sb10  1  0.89103434  0.91691650  0.45859352  1
  Sb  Sb11  1  0.11581846  0.98656910  0.55071896  1
  Sb  Sb12  1  0.03581540  0.51334146  0.82450103  1
  Sb  Sb13  1  0.96765691  0.47063129  0.20613077  1
  Sb  Sb14  1  0.40375231  0.56855043  0.44968021  1
  Sb  Sb15  1  0.60535645  0.52223479  0.53662877  1
  Sb  Sb16  1  0.52052333  0.96555073  0.78750086  1
  Sb  Sb17  1  0.47654470  0.02285346  0.18631025  1
  S  S18  1  0.93456024  0.00973030  0.79430759  1
  S  S19  1  0.06036151  0.97227037  0.19689651  1
  S  S20  1  0.41150857  0.96975666  0.97063144  1
  S  S21  1  0.58279230  0.98319079  0.00863821  1
  S  S22  1  0.17444636  0.97189388  0.90240628  1
  S  S23  1  0.82602443  0.00858453  0.10763853  1
  S  S24  1  0.10433377  0.50330011  0.65852966  1
  S  S25  1  0.89625543  0.44281086  0.34729987  1
  S  S26  1  0.74190542  0.02108011  0.31335973  1
  S  S27  1  0.26255628  0.91748753  0.68512368  1
  S  S28  1  0.16173540  0.53838788  0.43679211  1
  S  S29  1  0.81561767  0.45112109  0.54449125  1
  S  S30  1  0.44109168  0.44448736  0.80060880  1
  S  S31  1  0.56482394  0.50501112  0.18015567  1
  S  S32  1  0.91403152  0.51209874  0.99175879  1
  S  S33  1  0.08580104  0.48561300  0.02533510  1
  S  S34  1  0.66359250  0.52289017  0.88737614  1
  S  S35  1  0.33442098  0.47106219  0.11218440  1
  S  S36  1  0.60484014  0.01887837  0.64703709  1
  S  S37  1  0.39660735  0.06264352  0.33017515  1
  S  S38  1  0.24350650  0.57721647  0.31930344  1
  S  S39  1  0.75938762  0.49554969  0.68459151  1
  S  S40  1  0.66739078  0.95879275  0.45521226  1
  S  S41  1  0.32886894  0.94162866  0.54981908  1
