# generated using pymatgen
data_Pr2Mn3(SbS3)4
_symmetry_space_group_name_H-M   'P 1'
_cell_length_a   20.02960800
_cell_length_b   3.90410600
_cell_length_c   14.95364829
_cell_angle_alpha   90.00000000
_cell_angle_beta   126.33350609
_cell_angle_gamma   90.00000000
_symmetry_Int_Tables_number   1
_chemical_formula_structural   Pr2Mn3(SbS3)4
_chemical_formula_sum   'Pr4 Mn6 Sb8 S24'
_cell_volume   942.00006694
_cell_formula_units_Z   2
loop_
 _symmetry_equiv_pos_site_id
 _symmetry_equiv_pos_as_xyz
  1  'x, y, z'
loop_
 _atom_site_type_symbol
 _atom_site_label
 _atom_site_symmetry_multiplicity
 _atom_site_fract_x
 _atom_site_fract_y
 _atom_site_fract_z
 _atom_site_occupancy
  Pr  Pr0  1  0.26475481  0.48180673  0.87058469  1
  Pr  Pr1  1  0.73732730  0.50888127  0.13612365  1
  Pr  Pr2  1  0.76137989  0.00960132  0.86072830  1
  Pr  Pr3  1  0.23692901  0.99888563  0.13989562  1
  Mn  Mn4  1  0.29566597  0.49570864  0.61072960  1
  Mn  Mn5  1  0.69548495  0.51839637  0.37951928  1
  Mn  Mn6  1  0.00339432  0.00161107  0.00070403  1
  Mn  Mn7  1  0.80275244  0.98860389  0.61579444  1
  Mn  Mn8  1  0.19704820  0.97661273  0.37968572  1
  Mn  Mn9  1  0.50302165  0.47720169  0.99504325  1
  Sb  Sb10  1  0.89336399  0.00348468  0.45485160  1
  Sb  Sb11  1  0.11176323  0.97256415  0.55262053  1
  Sb  Sb12  1  0.03980684  0.49789943  0.81616185  1
  Sb  Sb13  1  0.96245915  0.52974434  0.18773989  1
  Sb  Sb14  1  0.39767379  0.49804820  0.45716797  1
  Sb  Sb15  1  0.60672665  0.49195261  0.54831448  1
  Sb  Sb16  1  0.53661881  0.00769633  0.81465637  1
  Sb  Sb17  1  0.46237431  0.00479883  0.18175238  1
  S  S18  1  0.93548728  0.97967164  0.79682872  1
  S  S19  1  0.06451469  0.99078657  0.19305130  1
  S  S20  1  0.40997726  0.00638967  0.97883899  1
  S  S21  1  0.59215042  0.99171858  0.02103464  1
  S  S22  1  0.17225903  0.99028894  0.89667845  1
  S  S23  1  0.82709684  0.02014327  0.10130738  1
  S  S24  1  0.08577106  0.45745882  0.64470637  1
  S  S25  1  0.91401830  0.49079680  0.36104248  1
  S  S26  1  0.74345349  0.94433890  0.29899335  1
  S  S27  1  0.25767653  0.00352629  0.70178289  1
  S  S28  1  0.16442417  0.48504830  0.44397450  1
  S  S29  1  0.83053630  0.47690325  0.54995849  1
  S  S30  1  0.43290187  0.51118678  0.80112168  1
  S  S31  1  0.56192469  0.52342369  0.19216168  1
  S  S32  1  0.90224313  0.49270760  0.97667579  1
  S  S33  1  0.08680654  0.49090961  0.01842576  1
  S  S34  1  0.66398859  0.50689871  0.89241519  1
  S  S35  1  0.32979675  0.52966678  0.10141247  1
  S  S36  1  0.58925789  0.00521125  0.64659149  1
  S  S37  1  0.41036543  0.96290340  0.35251698  1
  S  S38  1  0.24335568  0.48854133  0.30336916  1
  S  S39  1  0.76053267  0.49452270  0.69704133  1
  S  S40  1  0.67276363  0.01369817  0.46424738  1
  S  S41  1  0.33110311  0.98666303  0.54286066  1
