# generated using pymatgen
data_Pr2Mn3(SbS3)4
_symmetry_space_group_name_H-M   'P 1'
_cell_length_a   20.02960800
_cell_length_b   3.90410600
_cell_length_c   14.95364829
_cell_angle_alpha   90.00000000
_cell_angle_beta   126.33350609
_cell_angle_gamma   90.00000000
_symmetry_Int_Tables_number   1
_chemical_formula_structural   Pr2Mn3(SbS3)4
_chemical_formula_sum   'Pr4 Mn6 Sb8 S24'
_cell_volume   942.00006694
_cell_formula_units_Z   2
loop_
 _symmetry_equiv_pos_site_id
 _symmetry_equiv_pos_as_xyz
  1  'x, y, z'
loop_
 _atom_site_type_symbol
 _atom_site_label
 _atom_site_symmetry_multiplicity
 _atom_site_fract_x
 _atom_site_fract_y
 _atom_site_fract_z
 _atom_site_occupancy
  Pr  Pr0  1  0.26748947  0.47409132  0.88417646  1
  Pr  Pr1  1  0.73066399  0.50895297  0.13822661  1
  Pr  Pr2  1  0.76215731  0.04020173  0.86667165  1
  Pr  Pr3  1  0.23083763  0.91209450  0.12704012  1
  Mn  Mn4  1  0.28777854  0.41930179  0.59346035  1
  Mn  Mn5  1  0.69775094  0.51747133  0.36556825  1
  Mn  Mn6  1  0.00775046  0.95852206  0.01158640  1
  Mn  Mn7  1  0.80119096  0.97091213  0.63140478  1
  Mn  Mn8  1  0.20838483  0.06594104  0.39760753  1
  Mn  Mn9  1  0.48594567  0.47890158  0.98697945  1
  Sb  Sb10  1  0.89116876  0.91700211  0.45882367  1
  Sb  Sb11  1  0.11582804  0.98605702  0.55058119  1
  Sb  Sb12  1  0.03577981  0.51385248  0.82451783  1
  Sb  Sb13  1  0.96748793  0.47026713  0.20614304  1
  Sb  Sb14  1  0.40380168  0.56833604  0.44959710  1
  Sb  Sb15  1  0.60540665  0.52232996  0.53672695  1
  Sb  Sb16  1  0.52050906  0.96555004  0.78748879  1
  Sb  Sb17  1  0.47649965  0.02230844  0.18627990  1
  S  S18  1  0.93476058  0.00976622  0.79439221  1
  S  S19  1  0.06033115  0.97299660  0.19721034  1
  S  S20  1  0.41123654  0.97006596  0.97032140  1
  S  S21  1  0.58283427  0.98426842  0.00856109  1
  S  S22  1  0.17416232  0.97181597  0.90245512  1
  S  S23  1  0.82613797  0.00886881  0.10732958  1
  S  S24  1  0.10463267  0.50320695  0.65885040  1
  S  S25  1  0.89606501  0.44206443  0.34712918  1
  S  S26  1  0.74196871  0.02091748  0.31313952  1
  S  S27  1  0.26264153  0.91758650  0.68511783  1
  S  S28  1  0.16185822  0.53901508  0.43667401  1
  S  S29  1  0.81568104  0.45109151  0.54437084  1
  S  S30  1  0.44117690  0.44468616  0.80075038  1
  S  S31  1  0.56469871  0.50478059  0.18004491  1
  S  S32  1  0.91409762  0.51166246  0.99191819  1
  S  S33  1  0.08595837  0.48486657  0.02528758  1
  S  S34  1  0.66386518  0.52369641  0.88737578  1
  S  S35  1  0.33444546  0.47195265  0.11236902  1
  S  S36  1  0.60510707  0.01967695  0.64737448  1
  S  S37  1  0.39647340  0.06212043  0.33023566  1
  S  S38  1  0.24350728  0.57771967  0.31928452  1
  S  S39  1  0.75954211  0.49633932  0.68458236  1
  S  S40  1  0.66737966  0.95816887  0.45525567  1
  S  S41  1  0.32896364  0.94188296  0.55031609  1
