# generated using pymatgen
data_Pr2Mn3(SbS3)4
_symmetry_space_group_name_H-M   'P 1'
_cell_length_a   20.02960800
_cell_length_b   3.90410600
_cell_length_c   14.95364829
_cell_angle_alpha   90.00000000
_cell_angle_beta   126.33350609
_cell_angle_gamma   90.00000000
_symmetry_Int_Tables_number   1
_chemical_formula_structural   Pr2Mn3(SbS3)4
_chemical_formula_sum   'Pr4 Mn6 Sb8 S24'
_cell_volume   942.00006694
_cell_formula_units_Z   2
loop_
 _symmetry_equiv_pos_site_id
 _symmetry_equiv_pos_as_xyz
  1  'x, y, z'
loop_
 _atom_site_type_symbol
 _atom_site_label
 _atom_site_symmetry_multiplicity
 _atom_site_fract_x
 _atom_site_fract_y
 _atom_site_fract_z
 _atom_site_occupancy
  Pr  Pr0  1  0.26757010  0.47406116  0.88443626  1
  Pr  Pr1  1  0.73066956  0.50900467  0.13834902  1
  Pr  Pr2  1  0.76207665  0.04023523  0.86659484  1
  Pr  Pr3  1  0.23091849  0.91204550  0.12715387  1
  Mn  Mn4  1  0.28776096  0.41925077  0.59349820  1
  Mn  Mn5  1  0.69773244  0.51745737  0.36559037  1
  Mn  Mn6  1  0.00782715  0.95928655  0.01172313  1
  Mn  Mn7  1  0.80118059  0.97167075  0.63167808  1
  Mn  Mn8  1  0.20836554  0.06639274  0.39761574  1
  Mn  Mn9  1  0.48598202  0.47766084  0.98707989  1
  Sb  Sb10  1  0.89126836  0.91663570  0.45905250  1
  Sb  Sb11  1  0.11577772  0.98523068  0.55038589  1
  Sb  Sb12  1  0.03575617  0.51423452  0.82452858  1
  Sb  Sb13  1  0.96731809  0.46993633  0.20613845  1
  Sb  Sb14  1  0.40385997  0.56812482  0.44949841  1
  Sb  Sb15  1  0.60549752  0.52245060  0.53683497  1
  Sb  Sb16  1  0.52050099  0.96566187  0.78751489  1
  Sb  Sb17  1  0.47639124  0.02164758  0.18612542  1
  S  S18  1  0.93488531  0.00991760  0.79452104  1
  S  S19  1  0.06017913  0.97356151  0.19741533  1
  S  S20  1  0.41104569  0.97027949  0.97015152  1
  S  S21  1  0.58293654  0.98521438  0.00856766  1
  S  S22  1  0.17395196  0.97154851  0.90249030  1
  S  S23  1  0.82620692  0.00923628  0.10716856  1
  S  S24  1  0.10486040  0.50295229  0.65922190  1
  S  S25  1  0.89594570  0.44119055  0.34698090  1
  S  S26  1  0.74215678  0.02014686  0.31315755  1
  S  S27  1  0.26272965  0.91781085  0.68500480  1
  S  S28  1  0.16209883  0.53984709  0.43677837  1
  S  S29  1  0.81566033  0.45041232  0.54421783  1
  S  S30  1  0.44123898  0.44509839  0.80088953  1
  S  S31  1  0.56469575  0.50447676  0.17998549  1
  S  S32  1  0.91421893  0.51060862  0.99215030  1
  S  S33  1  0.08601411  0.48407261  0.02509141  1
  S  S34  1  0.66414629  0.52436823  0.88738817  1
  S  S35  1  0.33445503  0.47220662  0.11248696  1
  S  S36  1  0.60535027  0.02022571  0.64774843  1
  S  S37  1  0.39630078  0.06179480  0.33021506  1
  S  S38  1  0.24334671  0.57829325  0.31912037  1
  S  S39  1  0.75970294  0.49678857  0.68460064  1
  S  S40  1  0.66721446  0.95753609  0.45516592  1
  S  S41  1  0.32906457  0.94178430  0.55078806  1
