# generated using pymatgen
data_Pr2Mn3(SbS3)4
_symmetry_space_group_name_H-M   'P 1'
_cell_length_a   20.02960800
_cell_length_b   3.90410600
_cell_length_c   14.95364829
_cell_angle_alpha   90.00000000
_cell_angle_beta   126.33350609
_cell_angle_gamma   90.00000000
_symmetry_Int_Tables_number   1
_chemical_formula_structural   Pr2Mn3(SbS3)4
_chemical_formula_sum   'Pr4 Mn6 Sb8 S24'
_cell_volume   942.00006694
_cell_formula_units_Z   2
loop_
 _symmetry_equiv_pos_site_id
 _symmetry_equiv_pos_as_xyz
  1  'x, y, z'
loop_
 _atom_site_type_symbol
 _atom_site_label
 _atom_site_symmetry_multiplicity
 _atom_site_fract_x
 _atom_site_fract_y
 _atom_site_fract_z
 _atom_site_occupancy
  Pr  Pr0  1  0.26764378  0.47394683  0.88471607  1
  Pr  Pr1  1  0.73062448  0.50883751  0.13834908  1
  Pr  Pr2  1  0.76200153  0.04040250  0.86650117  1
  Pr  Pr3  1  0.23095884  0.91197509  0.12720110  1
  Mn  Mn4  1  0.28785239  0.41921784  0.59356913  1
  Mn  Mn5  1  0.69770788  0.51718494  0.36561935  1
  Mn  Mn6  1  0.00789436  0.96006860  0.01183069  1
  Mn  Mn7  1  0.80121388  0.97224513  0.63200103  1
  Mn  Mn8  1  0.20838536  0.06666509  0.39757325  1
  Mn  Mn9  1  0.48596806  0.47697374  0.98711721  1
  Sb  Sb10  1  0.89138957  0.91612149  0.45924851  1
  Sb  Sb11  1  0.11574107  0.98442506  0.55023057  1
  Sb  Sb12  1  0.03573570  0.51478534  0.82461733  1
  Sb  Sb13  1  0.96720943  0.46958587  0.20614637  1
  Sb  Sb14  1  0.40394068  0.56781326  0.44942200  1
  Sb  Sb15  1  0.60558772  0.52242819  0.53696007  1
  Sb  Sb16  1  0.52053003  0.96595900  0.78757225  1
  Sb  Sb17  1  0.47624075  0.02116135  0.18593410  1
  S  S18  1  0.93499215  0.01010509  0.79461679  1
  S  S19  1  0.05996416  0.97421271  0.19766136  1
  S  S20  1  0.41086030  0.97056561  0.97006416  1
  S  S21  1  0.58308092  0.98652441  0.00868061  1
  S  S22  1  0.17370805  0.97161007  0.90244533  1
  S  S23  1  0.82617090  0.00977963  0.10689167  1
  S  S24  1  0.10507639  0.50301753  0.65965531  1
  S  S25  1  0.89588716  0.44013481  0.34690721  1
  S  S26  1  0.74234677  0.01946189  0.31322569  1
  S  S27  1  0.26274339  0.91793687  0.68481167  1
  S  S28  1  0.16224730  0.54050782  0.43672822  1
  S  S29  1  0.81553353  0.44981548  0.54402915  1
  S  S30  1  0.44138787  0.44537810  0.80112418  1
  S  S31  1  0.56454473  0.50417451  0.17981793  1
  S  S32  1  0.91417293  0.50962463  0.99221908  1
  S  S33  1  0.08600340  0.48294196  0.02482491  1
  S  S34  1  0.66436423  0.52492413  0.88721519  1
  S  S35  1  0.33446333  0.47257543  0.11271380  1
  S  S36  1  0.60550411  0.02058933  0.64805278  1
  S  S37  1  0.39622066  0.06076495  0.33039834  1
  S  S38  1  0.24308392  0.57887612  0.31891806  1
  S  S39  1  0.75991478  0.49727490  0.68468601  1
  S  S40  1  0.66708783  0.95726799  0.45503455  1
  S  S41  1  0.32923068  0.94117877  0.55126101  1
