# generated using pymatgen
data_Pr2Mn3(SbS3)4
_symmetry_space_group_name_H-M   'P 1'
_cell_length_a   20.02960800
_cell_length_b   3.90410600
_cell_length_c   14.95364829
_cell_angle_alpha   90.00000000
_cell_angle_beta   126.33350609
_cell_angle_gamma   90.00000000
_symmetry_Int_Tables_number   1
_chemical_formula_structural   Pr2Mn3(SbS3)4
_chemical_formula_sum   'Pr4 Mn6 Sb8 S24'
_cell_volume   942.00006694
_cell_formula_units_Z   2
loop_
 _symmetry_equiv_pos_site_id
 _symmetry_equiv_pos_as_xyz
  1  'x, y, z'
loop_
 _atom_site_type_symbol
 _atom_site_label
 _atom_site_symmetry_multiplicity
 _atom_site_fract_x
 _atom_site_fract_y
 _atom_site_fract_z
 _atom_site_occupancy
  Pr  Pr0  1  0.26766903  0.47370970  0.88493659  1
  Pr  Pr1  1  0.73055868  0.50885743  0.13838354  1
  Pr  Pr2  1  0.76192505  0.04042714  0.86651580  1
  Pr  Pr3  1  0.23099990  0.91202968  0.12722205  1
  Mn  Mn4  1  0.28796595  0.41909229  0.59367861  1
  Mn  Mn5  1  0.69775331  0.51708054  0.36569258  1
  Mn  Mn6  1  0.00801937  0.96106000  0.01197690  1
  Mn  Mn7  1  0.80117241  0.97267714  0.63212415  1
  Mn  Mn8  1  0.20841476  0.06672598  0.39754001  1
  Mn  Mn9  1  0.48603427  0.47620951  0.98717940  1
  Sb  Sb10  1  0.89144574  0.91583384  0.45937920  1
  Sb  Sb11  1  0.11568287  0.98358064  0.55007724  1
  Sb  Sb12  1  0.03567961  0.51524463  0.82467367  1
  Sb  Sb13  1  0.96710508  0.46902265  0.20612640  1
  Sb  Sb14  1  0.40401373  0.56772343  0.44939222  1
  Sb  Sb15  1  0.60567499  0.52238855  0.53709817  1
  Sb  Sb16  1  0.52058332  0.96614452  0.78765450  1
  Sb  Sb17  1  0.47611854  0.02054148  0.18570601  1
  S  S18  1  0.93501277  0.01003900  0.79470600  1
  S  S19  1  0.05975704  0.97478685  0.19792625  1
  S  S20  1  0.41064414  0.97103804  0.96984405  1
  S  S21  1  0.58321922  0.98801437  0.00878053  1
  S  S22  1  0.17358537  0.97147840  0.90252333  1
  S  S23  1  0.82615351  0.01023014  0.10648025  1
  S  S24  1  0.10529735  0.50314235  0.66011150  1
  S  S25  1  0.89578089  0.43925400  0.34683323  1
  S  S26  1  0.74254954  0.01857384  0.31336906  1
  S  S27  1  0.26279888  0.91813475  0.68478887  1
  S  S28  1  0.16236050  0.54126520  0.43659030  1
  S  S29  1  0.81548822  0.44922280  0.54395860  1
  S  S30  1  0.44152886  0.44574044  0.80130066  1
  S  S31  1  0.56437290  0.50380792  0.17967608  1
  S  S32  1  0.91413518  0.50858779  0.99243094  1
  S  S33  1  0.08599276  0.48225888  0.02436552  1
  S  S34  1  0.66469655  0.52510250  0.88728881  1
  S  S35  1  0.33444863  0.47298724  0.11295134  1
  S  S36  1  0.60568379  0.02118922  0.64830235  1
  S  S37  1  0.39621802  0.05990423  0.33066208  1
  S  S38  1  0.24282544  0.57926455  0.31879961  1
  S  S39  1  0.76012624  0.49729736  0.68485835  1
  S  S40  1  0.66698758  0.95717567  0.45494608  1
  S  S41  1  0.32940963  0.94051585  0.55160819  1
