# generated using pymatgen
data_Pr2Mn3(SbS3)4
_symmetry_space_group_name_H-M   'P 1'
_cell_length_a   20.02960800
_cell_length_b   3.90410600
_cell_length_c   14.95364829
_cell_angle_alpha   90.00000000
_cell_angle_beta   126.33350609
_cell_angle_gamma   90.00000000
_symmetry_Int_Tables_number   1
_chemical_formula_structural   Pr2Mn3(SbS3)4
_chemical_formula_sum   'Pr4 Mn6 Sb8 S24'
_cell_volume   942.00006694
_cell_formula_units_Z   2
loop_
 _symmetry_equiv_pos_site_id
 _symmetry_equiv_pos_as_xyz
  1  'x, y, z'
loop_
 _atom_site_type_symbol
 _atom_site_label
 _atom_site_symmetry_multiplicity
 _atom_site_fract_x
 _atom_site_fract_y
 _atom_site_fract_z
 _atom_site_occupancy
  Pr  Pr0  1  0.26773846  0.47334349  0.88517720  1
  Pr  Pr1  1  0.73047732  0.50898100  0.13841919  1
  Pr  Pr2  1  0.76190651  0.04062891  0.86657260  1
  Pr  Pr3  1  0.23107506  0.91209183  0.12728577  1
  Mn  Mn4  1  0.28808972  0.41913757  0.59384400  1
  Mn  Mn5  1  0.69777252  0.51700499  0.36579455  1
  Mn  Mn6  1  0.00809473  0.96186793  0.01200659  1
  Mn  Mn7  1  0.80111507  0.97254934  0.63217813  1
  Mn  Mn8  1  0.20848485  0.06682013  0.39748245  1
  Mn  Mn9  1  0.48608232  0.47531530  0.98720171  1
  Sb  Sb10  1  0.89151028  0.91551150  0.45946462  1
  Sb  Sb11  1  0.11559258  0.98300415  0.54983296  1
  Sb  Sb12  1  0.03562541  0.51588859  0.82470445  1
  Sb  Sb13  1  0.96692216  0.46841382  0.20606862  1
  Sb  Sb14  1  0.40406651  0.56748077  0.44942793  1
  Sb  Sb15  1  0.60566857  0.52243464  0.53713047  1
  Sb  Sb16  1  0.52063609  0.96629995  0.78767726  1
  Sb  Sb17  1  0.47602757  0.02021343  0.18548613  1
  S  S18  1  0.93505812  0.01040251  0.79471367  1
  S  S19  1  0.05947578  0.97596489  0.19820428  1
  S  S20  1  0.41051514  0.97145383  0.96975249  1
  S  S21  1  0.58332104  0.98963272  0.00889553  1
  S  S22  1  0.17354238  0.97099472  0.90252697  1
  S  S23  1  0.82613037  0.01093611  0.10605467  1
  S  S24  1  0.10541024  0.50288106  0.66046815  1
  S  S25  1  0.89580000  0.43833791  0.34688581  1
  S  S26  1  0.74269895  0.01794132  0.31339560  1
  S  S27  1  0.26286321  0.91873849  0.68479856  1
  S  S28  1  0.16231736  0.54217374  0.43628233  1
  S  S29  1  0.81561391  0.44885667  0.54401901  1
  S  S30  1  0.44159840  0.44620649  0.80130259  1
  S  S31  1  0.56435325  0.50332934  0.17967301  1
  S  S32  1  0.91394301  0.50768116  0.99237806  1
  S  S33  1  0.08583488  0.48195442  0.02387966  1
  S  S34  1  0.66498105  0.52522509  0.88733938  1
  S  S35  1  0.33446870  0.47375937  0.11320134  1
  S  S36  1  0.60582297  0.02165474  0.64851342  1
  S  S37  1  0.39623245  0.05900946  0.33090820  1
  S  S38  1  0.24250430  0.57934325  0.31851285  1
  S  S39  1  0.76035950  0.49731563  0.68502066  1
  S  S40  1  0.66689215  0.95688906  0.45473897  1
  S  S41  1  0.32962879  0.93998705  0.55189870  1
