# generated using pymatgen
data_Pr2Mn3(SbS3)4
_symmetry_space_group_name_H-M   'P 1'
_cell_length_a   20.02960800
_cell_length_b   3.90410600
_cell_length_c   14.95364829
_cell_angle_alpha   90.00000000
_cell_angle_beta   126.33350609
_cell_angle_gamma   90.00000000
_symmetry_Int_Tables_number   1
_chemical_formula_structural   Pr2Mn3(SbS3)4
_chemical_formula_sum   'Pr4 Mn6 Sb8 S24'
_cell_volume   942.00006694
_cell_formula_units_Z   2
loop_
 _symmetry_equiv_pos_site_id
 _symmetry_equiv_pos_as_xyz
  1  'x, y, z'
loop_
 _atom_site_type_symbol
 _atom_site_label
 _atom_site_symmetry_multiplicity
 _atom_site_fract_x
 _atom_site_fract_y
 _atom_site_fract_z
 _atom_site_occupancy
  Pr  Pr0  1  0.26780711  0.47306397  0.88542348  1
  Pr  Pr1  1  0.73039467  0.50930142  0.13851650  1
  Pr  Pr2  1  0.76190731  0.04050007  0.86662394  1
  Pr  Pr3  1  0.23111284  0.91212464  0.12735430  1
  Mn  Mn4  1  0.28818907  0.41943447  0.59388630  1
  Mn  Mn5  1  0.69781262  0.51664151  0.36581884  1
  Mn  Mn6  1  0.00818941  0.96274314  0.01208166  1
  Mn  Mn7  1  0.80106995  0.97261410  0.63227416  1
  Mn  Mn8  1  0.20857077  0.06695303  0.39740848  1
  Mn  Mn9  1  0.48612286  0.47435361  0.98726531  1
  Sb  Sb10  1  0.89161361  0.91517912  0.45951799  1
  Sb  Sb11  1  0.11550262  0.98238009  0.54954006  1
  Sb  Sb12  1  0.03559917  0.51623277  0.82465441  1
  Sb  Sb13  1  0.96676999  0.46793668  0.20602756  1
  Sb  Sb14  1  0.40410742  0.56738025  0.44951327  1
  Sb  Sb15  1  0.60562125  0.52250367  0.53716873  1
  Sb  Sb16  1  0.52069359  0.96642888  0.78771638  1
  Sb  Sb17  1  0.47597702  0.02009127  0.18527663  1
  S  S18  1  0.93511991  0.01083895  0.79487908  1
  S  S19  1  0.05910941  0.97691792  0.19843484  1
  S  S20  1  0.41039789  0.97237933  0.96970436  1
  S  S21  1  0.58333903  0.99161434  0.00898504  1
  S  S22  1  0.17352313  0.97091611  0.90261854  1
  S  S23  1  0.82621205  0.01090760  0.10572297  1
  S  S24  1  0.10547341  0.50282742  0.66075877  1
  S  S25  1  0.89586441  0.43737616  0.34712374  1
  S  S26  1  0.74281891  0.01722372  0.31343185  1
  S  S27  1  0.26298037  0.91899302  0.68487149  1
  S  S28  1  0.16221141  0.54268405  0.43591853  1
  S  S29  1  0.81576528  0.44829226  0.54409081  1
  S  S30  1  0.44159357  0.44586906  0.80126502  1
  S  S31  1  0.56427114  0.50279133  0.17969413  1
  S  S32  1  0.91379268  0.50677166  0.99234734  1
  S  S33  1  0.08578079  0.48187663  0.02358119  1
  S  S34  1  0.66525598  0.52529753  0.88746401  1
  S  S35  1  0.33449641  0.47428904  0.11340902  1
  S  S36  1  0.60597560  0.02225505  0.64880560  1
  S  S37  1  0.39634293  0.05840521  0.33109374  1
  S  S38  1  0.24221812  0.57949523  0.31825581  1
  S  S39  1  0.76070031  0.49746624  0.68524793  1
  S  S40  1  0.66685966  0.95657553  0.45466031  1
  S  S41  1  0.32975652  0.93930029  0.55218337  1
