# generated using pymatgen
data_Pr2Mn3(SbS3)4
_symmetry_space_group_name_H-M   'P 1'
_cell_length_a   20.02960800
_cell_length_b   3.90410600
_cell_length_c   14.95364829
_cell_angle_alpha   90.00000000
_cell_angle_beta   126.33350609
_cell_angle_gamma   90.00000000
_symmetry_Int_Tables_number   1
_chemical_formula_structural   Pr2Mn3(SbS3)4
_chemical_formula_sum   'Pr4 Mn6 Sb8 S24'
_cell_volume   942.00006694
_cell_formula_units_Z   2
loop_
 _symmetry_equiv_pos_site_id
 _symmetry_equiv_pos_as_xyz
  1  'x, y, z'
loop_
 _atom_site_type_symbol
 _atom_site_label
 _atom_site_symmetry_multiplicity
 _atom_site_fract_x
 _atom_site_fract_y
 _atom_site_fract_z
 _atom_site_occupancy
  Pr  Pr0  1  0.26788992  0.47266559  0.88565766  1
  Pr  Pr1  1  0.73026567  0.50953584  0.13858281  1
  Pr  Pr2  1  0.76190650  0.04054118  0.86667327  1
  Pr  Pr3  1  0.23112905  0.91176519  0.12741969  1
  Mn  Mn4  1  0.28835295  0.41971932  0.59395723  1
  Mn  Mn5  1  0.69790454  0.51630479  0.36585435  1
  Mn  Mn6  1  0.00823180  0.96308493  0.01218084  1
  Mn  Mn7  1  0.80106592  0.97242628  0.63245370  1
  Mn  Mn8  1  0.20867446  0.06711306  0.39726023  1
  Mn  Mn9  1  0.48614809  0.47343514  0.98727959  1
  Sb  Sb10  1  0.89169997  0.91486952  0.45953024  1
  Sb  Sb11  1  0.11538831  0.98154135  0.54923819  1
  Sb  Sb12  1  0.03556213  0.51629556  0.82456485  1
  Sb  Sb13  1  0.96666290  0.46713965  0.20597399  1
  Sb  Sb14  1  0.40417780  0.56746893  0.44959395  1
  Sb  Sb15  1  0.60560481  0.52247290  0.53727583  1
  Sb  Sb16  1  0.52077229  0.96654688  0.78776738  1
  Sb  Sb17  1  0.47588589  0.01984082  0.18509924  1
  S  S18  1  0.93503195  0.01062752  0.79494162  1
  S  S19  1  0.05863405  0.97796883  0.19858788  1
  S  S20  1  0.41034110  0.97245367  0.96980210  1
  S  S21  1  0.58343413  0.99347859  0.00900772  1
  S  S22  1  0.17349778  0.97063696  0.90262916  1
  S  S23  1  0.82624514  0.01066453  0.10539983  1
  S  S24  1  0.10549646  0.50298342  0.66108548  1
  S  S25  1  0.89592093  0.43663551  0.34750011  1
  S  S26  1  0.74294325  0.01676999  0.31350445  1
  S  S27  1  0.26305451  0.91923859  0.68503569  1
  S  S28  1  0.16217788  0.54308350  0.43560454  1
  S  S29  1  0.81597171  0.44764664  0.54427446  1
  S  S30  1  0.44154218  0.44513908  0.80118997  1
  S  S31  1  0.56415537  0.50213474  0.17967438  1
  S  S32  1  0.91374179  0.50582856  0.99233110  1
  S  S33  1  0.08557160  0.48180412  0.02321583  1
  S  S34  1  0.66549637  0.52530556  0.88767002  1
  S  S35  1  0.33447930  0.47465148  0.11361635  1
  S  S36  1  0.60620086  0.02299301  0.64916836  1
  S  S37  1  0.39650379  0.05804447  0.33119643  1
  S  S38  1  0.24182047  0.57973476  0.31805004  1
  S  S39  1  0.76117562  0.49796712  0.68556053  1
  S  S40  1  0.66674323  0.95625677  0.45466626  1
  S  S41  1  0.32987800  0.93833477  0.55230253  1
