# generated using pymatgen
data_Pr2Mn3(SbS3)4
_symmetry_space_group_name_H-M   'P 1'
_cell_length_a   20.02960800
_cell_length_b   3.90410600
_cell_length_c   14.95364829
_cell_angle_alpha   90.00000000
_cell_angle_beta   126.33350609
_cell_angle_gamma   90.00000000
_symmetry_Int_Tables_number   1
_chemical_formula_structural   Pr2Mn3(SbS3)4
_chemical_formula_sum   'Pr4 Mn6 Sb8 S24'
_cell_volume   942.00006694
_cell_formula_units_Z   2
loop_
 _symmetry_equiv_pos_site_id
 _symmetry_equiv_pos_as_xyz
  1  'x, y, z'
loop_
 _atom_site_type_symbol
 _atom_site_label
 _atom_site_symmetry_multiplicity
 _atom_site_fract_x
 _atom_site_fract_y
 _atom_site_fract_z
 _atom_site_occupancy
  Pr  Pr0  1  0.26800300  0.47235216  0.88590237  1
  Pr  Pr1  1  0.73006425  0.50948703  0.13857697  1
  Pr  Pr2  1  0.76190623  0.04054490  0.86665114  1
  Pr  Pr3  1  0.23112885  0.91166421  0.12750611  1
  Mn  Mn4  1  0.28857502  0.41993477  0.59404570  1
  Mn  Mn5  1  0.69797668  0.51587160  0.36588404  1
  Mn  Mn6  1  0.00831337  0.96329846  0.01227234  1
  Mn  Mn7  1  0.80096475  0.97238064  0.63265452  1
  Mn  Mn8  1  0.20880839  0.06687355  0.39722011  1
  Mn  Mn9  1  0.48617554  0.47276480  0.98731269  1
  Sb  Sb10  1  0.89178249  0.91450301  0.45945934  1
  Sb  Sb11  1  0.11525248  0.98050281  0.54899441  1
  Sb  Sb12  1  0.03554751  0.51637039  0.82452184  1
  Sb  Sb13  1  0.96655300  0.46653686  0.20594771  1
  Sb  Sb14  1  0.40424971  0.56773033  0.44961369  1
  Sb  Sb15  1  0.60561162  0.52239938  0.53739012  1
  Sb  Sb16  1  0.52081960  0.96680475  0.78777511  1
  Sb  Sb17  1  0.47580997  0.01980589  0.18492558  1
  S  S18  1  0.93486070  0.01024156  0.79485222  1
  S  S19  1  0.05802493  0.97935714  0.19855014  1
  S  S20  1  0.41022509  0.97236182  0.96986123  1
  S  S21  1  0.58346371  0.99553512  0.00882685  1
  S  S22  1  0.17354044  0.97027559  0.90276042  1
  S  S23  1  0.82624909  0.01037268  0.10509948  1
  S  S24  1  0.10566919  0.50293513  0.66150742  1
  S  S25  1  0.89593412  0.43649469  0.34756057  1
  S  S26  1  0.74303524  0.01669324  0.31360803  1
  S  S27  1  0.26316532  0.92002026  0.68521252  1
  S  S28  1  0.16219851  0.54310709  0.43536079  1
  S  S29  1  0.81604850  0.44730732  0.54446613  1
  S  S30  1  0.44152303  0.44471906  0.80120694  1
  S  S31  1  0.56411787  0.50147814  0.17958189  1
  S  S32  1  0.91368196  0.50485863  0.99232479  1
  S  S33  1  0.08543706  0.48161527  0.02288527  1
  S  S34  1  0.66569095  0.52507539  0.88771346  1
  S  S35  1  0.33454912  0.47493557  0.11397429  1
  S  S36  1  0.60641151  0.02367534  0.64931735  1
  S  S37  1  0.39666753  0.05778630  0.33114986  1
  S  S38  1  0.24157028  0.57973105  0.31803603  1
  S  S39  1  0.76158397  0.49864701  0.68592664  1
  S  S40  1  0.66665606  0.95625565  0.45474332  1
  S  S41  1  0.32994901  0.93782691  0.55241818  1
