# generated using pymatgen
data_Pr2Mn3(SbS3)4
_symmetry_space_group_name_H-M   'P 1'
_cell_length_a   20.02960800
_cell_length_b   3.90410600
_cell_length_c   14.95364829
_cell_angle_alpha   90.00000000
_cell_angle_beta   126.33350609
_cell_angle_gamma   90.00000000
_symmetry_Int_Tables_number   1
_chemical_formula_structural   Pr2Mn3(SbS3)4
_chemical_formula_sum   'Pr4 Mn6 Sb8 S24'
_cell_volume   942.00006694
_cell_formula_units_Z   2
loop_
 _symmetry_equiv_pos_site_id
 _symmetry_equiv_pos_as_xyz
  1  'x, y, z'
loop_
 _atom_site_type_symbol
 _atom_site_label
 _atom_site_symmetry_multiplicity
 _atom_site_fract_x
 _atom_site_fract_y
 _atom_site_fract_z
 _atom_site_occupancy
  Pr  Pr0  1  0.26808227  0.47215871  0.88606471  1
  Pr  Pr1  1  0.72991622  0.50946573  0.13860174  1
  Pr  Pr2  1  0.76187158  0.04064691  0.86662868  1
  Pr  Pr3  1  0.23117403  0.91172439  0.12758965  1
  Mn  Mn4  1  0.28883906  0.42048417  0.59419475  1
  Mn  Mn5  1  0.69810212  0.51546636  0.36588864  1
  Mn  Mn6  1  0.00837401  0.96331384  0.01226072  1
  Mn  Mn7  1  0.80092281  0.97233960  0.63291572  1
  Mn  Mn8  1  0.20896439  0.06637404  0.39724384  1
  Mn  Mn9  1  0.48616033  0.47218216  0.98729710  1
  Sb  Sb10  1  0.89181251  0.91421219  0.45939423  1
  Sb  Sb11  1  0.11516273  0.97956008  0.54881804  1
  Sb  Sb12  1  0.03547955  0.51640448  0.82447923  1
  Sb  Sb13  1  0.96648203  0.46602180  0.20590420  1
  Sb  Sb14  1  0.40429455  0.56810501  0.44965843  1
  Sb  Sb15  1  0.60559494  0.52245909  0.53743753  1
  Sb  Sb16  1  0.52085029  0.96680680  0.78771321  1
  Sb  Sb17  1  0.47569530  0.01993575  0.18477064  1
  S  S18  1  0.93474689  0.01036289  0.79470856  1
  S  S19  1  0.05746863  0.98084404  0.19848736  1
  S  S20  1  0.41018147  0.97243270  0.96992530  1
  S  S21  1  0.58351817  0.99760335  0.00879993  1
  S  S22  1  0.17367754  0.97034892  0.90298057  1
  S  S23  1  0.82627736  0.00994327  0.10478755  1
  S  S24  1  0.10576624  0.50325839  0.66179383  1
  S  S25  1  0.89597923  0.43607760  0.34764696  1
  S  S26  1  0.74303733  0.01705208  0.31386109  1
  S  S27  1  0.26326375  0.92030951  0.68544356  1
  S  S28  1  0.16222468  0.54272983  0.43530756  1
  S  S29  1  0.81613327  0.44691317  0.54472553  1
  S  S30  1  0.44151697  0.44424518  0.80140262  1
  S  S31  1  0.56413904  0.50140514  0.17954171  1
  S  S32  1  0.91368124  0.50412070  0.99236126  1
  S  S33  1  0.08534213  0.48186340  0.02268006  1
  S  S34  1  0.66586839  0.52510172  0.88773961  1
  S  S35  1  0.33473830  0.47503664  0.11436222  1
  S  S36  1  0.60663586  0.02430665  0.64961281  1
  S  S37  1  0.39676821  0.05786567  0.33115164  1
  S  S38  1  0.24135377  0.58050102  0.31794417  1
  S  S39  1  0.76205925  0.49902568  0.68624129  1
  S  S40  1  0.66665559  0.95626710  0.45478553  1
  S  S41  1  0.33009926  0.93729899  0.55265337  1
