# generated using pymatgen
data_Pr2Mn3(SbS3)4
_symmetry_space_group_name_H-M   'P 1'
_cell_length_a   20.02960800
_cell_length_b   3.90410600
_cell_length_c   14.95364829
_cell_angle_alpha   90.00000000
_cell_angle_beta   126.33350609
_cell_angle_gamma   90.00000000
_symmetry_Int_Tables_number   1
_chemical_formula_structural   Pr2Mn3(SbS3)4
_chemical_formula_sum   'Pr4 Mn6 Sb8 S24'
_cell_volume   942.00006694
_cell_formula_units_Z   2
loop_
 _symmetry_equiv_pos_site_id
 _symmetry_equiv_pos_as_xyz
  1  'x, y, z'
loop_
 _atom_site_type_symbol
 _atom_site_label
 _atom_site_symmetry_multiplicity
 _atom_site_fract_x
 _atom_site_fract_y
 _atom_site_fract_z
 _atom_site_occupancy
  Pr  Pr0  1  0.26817881  0.47202317  0.88627256  1
  Pr  Pr1  1  0.72979318  0.50959202  0.13865653  1
  Pr  Pr2  1  0.76180231  0.04061506  0.86664832  1
  Pr  Pr3  1  0.23125686  0.91164592  0.12767224  1
  Mn  Mn4  1  0.28907717  0.42094470  0.59439874  1
  Mn  Mn5  1  0.69813631  0.51509393  0.36583176  1
  Mn  Mn6  1  0.00842174  0.96317546  0.01225145  1
  Mn  Mn7  1  0.80092546  0.97261200  0.63323209  1
  Mn  Mn8  1  0.20907113  0.06608189  0.39732214  1
  Mn  Mn9  1  0.48615138  0.47145570  0.98724161  1
  Sb  Sb10  1  0.89182764  0.91394554  0.45933225  1
  Sb  Sb11  1  0.11507881  0.97881789  0.54866253  1
  Sb  Sb12  1  0.03542974  0.51635220  0.82440709  1
  Sb  Sb13  1  0.96642402  0.46526707  0.20589907  1
  Sb  Sb14  1  0.40433657  0.56859182  0.44976920  1
  Sb  Sb15  1  0.60560073  0.52215877  0.53747993  1
  Sb  Sb16  1  0.52089211  0.96697336  0.78762172  1
  Sb  Sb17  1  0.47566416  0.01987355  0.18468915  1
  S  S18  1  0.93464415  0.01025472  0.79463058  1
  S  S19  1  0.05703556  0.98248865  0.19845172  1
  S  S20  1  0.41008272  0.97222435  0.96998093  1
  S  S21  1  0.58352981  0.99974402  0.00870966  1
  S  S22  1  0.17371247  0.97024731  0.90307455  1
  S  S23  1  0.82633542  0.00983690  0.10447827  1
  S  S24  1  0.10582253  0.50299799  0.66206124  1
  S  S25  1  0.89593717  0.43548471  0.34762692  1
  S  S26  1  0.74282114  0.01774849  0.31400912  1
  S  S27  1  0.26332348  0.92039009  0.68573382  1
  S  S28  1  0.16231421  0.54246520  0.43526705  1
  S  S29  1  0.81612844  0.44627704  0.54490352  1
  S  S30  1  0.44146846  0.44408217  0.80144202  1
  S  S31  1  0.56408904  0.50062523  0.17952851  1
  S  S32  1  0.91363972  0.50303603  0.99238604  1
  S  S33  1  0.08529306  0.48203288  0.02257461  1
  S  S34  1  0.66604902  0.52527414  0.88776324  1
  S  S35  1  0.33490285  0.47474521  0.11464758  1
  S  S36  1  0.60675827  0.02455705  0.64980141  1
  S  S37  1  0.39672468  0.05812056  0.33120852  1
  S  S38  1  0.24113949  0.58078618  0.31776591  1
  S  S39  1  0.76245355  0.49911274  0.68660531  1
  S  S40  1  0.66661730  0.95638533  0.45472300  1
  S  S41  1  0.33049371  0.93673916  0.55306717  1
