# generated using pymatgen
data_Pr2Mn3(SbS3)4
_symmetry_space_group_name_H-M   'P 1'
_cell_length_a   20.02960800
_cell_length_b   3.90410600
_cell_length_c   14.95364829
_cell_angle_alpha   90.00000000
_cell_angle_beta   126.33350609
_cell_angle_gamma   90.00000000
_symmetry_Int_Tables_number   1
_chemical_formula_structural   Pr2Mn3(SbS3)4
_chemical_formula_sum   'Pr4 Mn6 Sb8 S24'
_cell_volume   942.00006694
_cell_formula_units_Z   2
loop_
 _symmetry_equiv_pos_site_id
 _symmetry_equiv_pos_as_xyz
  1  'x, y, z'
loop_
 _atom_site_type_symbol
 _atom_site_label
 _atom_site_symmetry_multiplicity
 _atom_site_fract_x
 _atom_site_fract_y
 _atom_site_fract_z
 _atom_site_occupancy
  Pr  Pr0  1  0.26471868  0.48186970  0.87049719  1
  Pr  Pr1  1  0.73737830  0.50941714  0.13617856  1
  Pr  Pr2  1  0.76139932  0.00952669  0.86078211  1
  Pr  Pr3  1  0.23693436  0.99889415  0.13980709  1
  Mn  Mn4  1  0.29565694  0.49573751  0.61049381  1
  Mn  Mn5  1  0.69541306  0.51943869  0.37943423  1
  Mn  Mn6  1  0.00345875  0.00182629  0.00077260  1
  Mn  Mn7  1  0.80284900  0.98870010  0.61603967  1
  Mn  Mn8  1  0.19703451  0.97704188  0.37966026  1
  Mn  Mn9  1  0.50296470  0.47620228  0.99506281  1
  Sb  Sb10  1  0.89331571  0.00344551  0.45482406  1
  Sb  Sb11  1  0.11194148  0.97200419  0.55270780  1
  Sb  Sb12  1  0.03991058  0.49926827  0.81621571  1
  Sb  Sb13  1  0.96249370  0.53033218  0.18768965  1
  Sb  Sb14  1  0.39782867  0.49871193  0.45715506  1
  Sb  Sb15  1  0.60671873  0.49101615  0.54830822  1
  Sb  Sb16  1  0.53641289  0.00779738  0.81443609  1
  Sb  Sb17  1  0.46232966  0.00522244  0.18184000  1
  S  S18  1  0.93570490  0.97876602  0.79697347  1
  S  S19  1  0.06470179  0.99018452  0.19313821  1
  S  S20  1  0.41004439  0.00665587  0.97906306  1
  S  S21  1  0.59221954  0.99238233  0.02154082  1
  S  S22  1  0.17229452  0.98977228  0.89657963  1
  S  S23  1  0.82714130  0.01999043  0.10132313  1
  S  S24  1  0.08565588  0.45674157  0.64494219  1
  S  S25  1  0.91405856  0.49123040  0.36099739  1
  S  S26  1  0.74350632  0.94534893  0.29928032  1
  S  S27  1  0.25772428  0.00353750  0.70176359  1
  S  S28  1  0.16461611  0.48433507  0.44404371  1
  S  S29  1  0.83040572  0.47569984  0.54985784  1
  S  S30  1  0.43254633  0.51083789  0.80091038  1
  S  S31  1  0.56201332  0.52461587  0.19210819  1
  S  S32  1  0.90235881  0.49230815  0.97693477  1
  S  S33  1  0.08680795  0.49201094  0.01834192  1
  S  S34  1  0.66413015  0.50657910  0.89233002  1
  S  S35  1  0.32963822  0.52918508  0.10143979  1
  S  S36  1  0.58924601  0.00506123  0.64660507  1
  S  S37  1  0.41007146  0.96222527  0.35219208  1
  S  S38  1  0.24338277  0.48809881  0.30388982  1
  S  S39  1  0.76032898  0.49571005  0.69708685  1
  S  S40  1  0.67272913  0.01277005  0.46407410  1
  S  S41  1  0.33094573  0.98704790  0.54260222  1
