# generated using pymatgen
data_Pr2Mn3(SbS3)4
_symmetry_space_group_name_H-M   'P 1'
_cell_length_a   20.02960800
_cell_length_b   3.90410600
_cell_length_c   14.95364829
_cell_angle_alpha   90.00000000
_cell_angle_beta   126.33350609
_cell_angle_gamma   90.00000000
_symmetry_Int_Tables_number   1
_chemical_formula_structural   Pr2Mn3(SbS3)4
_chemical_formula_sum   'Pr4 Mn6 Sb8 S24'
_cell_volume   942.00006694
_cell_formula_units_Z   2
loop_
 _symmetry_equiv_pos_site_id
 _symmetry_equiv_pos_as_xyz
  1  'x, y, z'
loop_
 _atom_site_type_symbol
 _atom_site_label
 _atom_site_symmetry_multiplicity
 _atom_site_fract_x
 _atom_site_fract_y
 _atom_site_fract_z
 _atom_site_occupancy
  Pr  Pr0  1  0.26827880  0.47178728  0.88646459  1
  Pr  Pr1  1  0.72969976  0.50942750  0.13867159  1
  Pr  Pr2  1  0.76175204  0.04057455  0.86671172  1
  Pr  Pr3  1  0.23134652  0.91166041  0.12778060  1
  Mn  Mn4  1  0.28933059  0.42151302  0.59450526  1
  Mn  Mn5  1  0.69818685  0.51482360  0.36584962  1
  Mn  Mn6  1  0.00847585  0.96333885  0.01222303  1
  Mn  Mn7  1  0.80084253  0.97293464  0.63351008  1
  Mn  Mn8  1  0.20902636  0.06604518  0.39721388  1
  Mn  Mn9  1  0.48597942  0.47059209  0.98699763  1
  Sb  Sb10  1  0.89184059  0.91361603  0.45936155  1
  Sb  Sb11  1  0.11497904  0.97799062  0.54850512  1
  Sb  Sb12  1  0.03534428  0.51625097  0.82431263  1
  Sb  Sb13  1  0.96638311  0.46479542  0.20591787  1
  Sb  Sb14  1  0.40434719  0.56890687  0.44981912  1
  Sb  Sb15  1  0.60561143  0.52216305  0.53754288  1
  Sb  Sb16  1  0.52087965  0.96702297  0.78747796  1
  Sb  Sb17  1  0.47559913  0.01971839  0.18458920  1
  S  S18  1  0.93463230  0.01024248  0.79457527  1
  S  S19  1  0.05661612  0.98425458  0.19831158  1
  S  S20  1  0.40990146  0.97183899  0.97002531  1
  S  S21  1  0.58353232  0.00147495  0.00878793  1
  S  S22  1  0.17363300  0.97002108  0.90306710  1
  S  S23  1  0.82653547  0.00944647  0.10427684  1
  S  S24  1  0.10585865  0.50242972  0.66226605  1
  S  S25  1  0.89583039  0.43500288  0.34748285  1
  S  S26  1  0.74260664  0.01855557  0.31407133  1
  S  S27  1  0.26351462  0.92058349  0.68604400  1
  S  S28  1  0.16253731  0.54213702  0.43553563  1
  S  S29  1  0.81609151  0.44595828  0.54496500  1
  S  S30  1  0.44140585  0.44413220  0.80150576  1
  S  S31  1  0.56389559  0.50008676  0.17947761  1
  S  S32  1  0.91353360  0.50114068  0.99241648  1
  S  S33  1  0.08516843  0.48202525  0.02236814  1
  S  S34  1  0.66624577  0.52586499  0.88768817  1
  S  S35  1  0.33511622  0.47437075  0.11487495  1
  S  S36  1  0.60695457  0.02508688  0.65014758  1
  S  S37  1  0.39673395  0.05878752  0.33131860  1
  S  S38  1  0.24104447  0.58107017  0.31765394  1
  S  S39  1  0.76285918  0.49997955  0.68688448  1
  S  S40  1  0.66655354  0.95639134  0.45456380  1
  S  S41  1  0.33093104  0.93650885  0.55343547  1
