# generated using pymatgen
data_Pr2Mn3(SbS3)4
_symmetry_space_group_name_H-M   'P 1'
_cell_length_a   20.02960800
_cell_length_b   3.90410600
_cell_length_c   14.95364829
_cell_angle_alpha   90.00000000
_cell_angle_beta   126.33350609
_cell_angle_gamma   90.00000000
_symmetry_Int_Tables_number   1
_chemical_formula_structural   Pr2Mn3(SbS3)4
_chemical_formula_sum   'Pr4 Mn6 Sb8 S24'
_cell_volume   942.00006694
_cell_formula_units_Z   2
loop_
 _symmetry_equiv_pos_site_id
 _symmetry_equiv_pos_as_xyz
  1  'x, y, z'
loop_
 _atom_site_type_symbol
 _atom_site_label
 _atom_site_symmetry_multiplicity
 _atom_site_fract_x
 _atom_site_fract_y
 _atom_site_fract_z
 _atom_site_occupancy
  Pr  Pr0  1  0.26838809  0.47177562  0.88672302  1
  Pr  Pr1  1  0.72962254  0.50953168  0.13863321  1
  Pr  Pr2  1  0.76169312  0.04078785  0.86682399  1
  Pr  Pr3  1  0.23141761  0.91198143  0.12784008  1
  Mn  Mn4  1  0.28961308  0.42209853  0.59464152  1
  Mn  Mn5  1  0.69826361  0.51440817  0.36594584  1
  Mn  Mn6  1  0.00853705  0.96352050  0.01230407  1
  Mn  Mn7  1  0.80079629  0.97351061  0.63390132  1
  Mn  Mn8  1  0.20891669  0.06596806  0.39709383  1
  Mn  Mn9  1  0.48580258  0.46960452  0.98676267  1
  Sb  Sb10  1  0.89186356  0.91339253  0.45933665  1
  Sb  Sb11  1  0.11497427  0.97720953  0.54840170  1
  Sb  Sb12  1  0.03523356  0.51612938  0.82419763  1
  Sb  Sb13  1  0.96628993  0.46440033  0.20585876  1
  Sb  Sb14  1  0.40436510  0.56907818  0.44995172  1
  Sb  Sb15  1  0.60562004  0.52220457  0.53762795  1
  Sb  Sb16  1  0.52081538  0.96717111  0.78734609  1
  Sb  Sb17  1  0.47551021  0.01961730  0.18441050  1
  S  S18  1  0.93459120  0.00953733  0.79448126  1
  S  S19  1  0.05630437  0.98615689  0.19814521  1
  S  S20  1  0.40961652  0.97160151  0.96992584  1
  S  S21  1  0.58356328  0.00308214  0.00885939  1
  S  S22  1  0.17347850  0.96975581  0.90297178  1
  S  S23  1  0.82673955  0.00904576  0.10414290  1
  S  S24  1  0.10597207  0.50210772  0.66255722  1
  S  S25  1  0.89578268  0.43429360  0.34744762  1
  S  S26  1  0.74240207  0.01931909  0.31414866  1
  S  S27  1  0.26371264  0.92074398  0.68646047  1
  S  S28  1  0.16265744  0.54224889  0.43587222  1
  S  S29  1  0.81599062  0.44585727  0.54504367  1
  S  S30  1  0.44135637  0.44424816  0.80152762  1
  S  S31  1  0.56375003  0.49947135  0.17945170  1
  S  S32  1  0.91341791  0.49965563  0.99244013  1
  S  S33  1  0.08491979  0.48141127  0.02233222  1
  S  S34  1  0.66637592  0.52618797  0.88758466  1
  S  S35  1  0.33514726  0.47432762  0.11486686  1
  S  S36  1  0.60711964  0.02611754  0.65065030  1
  S  S37  1  0.39678852  0.05950616  0.33141599  1
  S  S38  1  0.24086894  0.58186088  0.31744442  1
  S  S39  1  0.76330814  0.50108569  0.68712219  1
  S  S40  1  0.66647344  0.95638828  0.45442713  1
  S  S41  1  0.33131486  0.93592272  0.55373791  1
