# generated using pymatgen
data_Pr2Mn3(SbS3)4
_symmetry_space_group_name_H-M   'P 1'
_cell_length_a   20.02960800
_cell_length_b   3.90410600
_cell_length_c   14.95364829
_cell_angle_alpha   90.00000000
_cell_angle_beta   126.33350609
_cell_angle_gamma   90.00000000
_symmetry_Int_Tables_number   1
_chemical_formula_structural   Pr2Mn3(SbS3)4
_chemical_formula_sum   'Pr4 Mn6 Sb8 S24'
_cell_volume   942.00006694
_cell_formula_units_Z   2
loop_
 _symmetry_equiv_pos_site_id
 _symmetry_equiv_pos_as_xyz
  1  'x, y, z'
loop_
 _atom_site_type_symbol
 _atom_site_label
 _atom_site_symmetry_multiplicity
 _atom_site_fract_x
 _atom_site_fract_y
 _atom_site_fract_z
 _atom_site_occupancy
  Pr  Pr0  1  0.26848749  0.47174599  0.88695336  1
  Pr  Pr1  1  0.72951761  0.50968779  0.13857297  1
  Pr  Pr2  1  0.76161636  0.04098607  0.86685918  1
  Pr  Pr3  1  0.23151241  0.91230929  0.12795022  1
  Mn  Mn4  1  0.28993371  0.42267399  0.59478450  1
  Mn  Mn5  1  0.69829754  0.51406928  0.36590040  1
  Mn  Mn6  1  0.00856489  0.96380476  0.01231204  1
  Mn  Mn7  1  0.80073145  0.97358102  0.63419465  1
  Mn  Mn8  1  0.20886571  0.06590328  0.39693376  1
  Mn  Mn9  1  0.48559678  0.46867668  0.98641539  1
  Sb  Sb10  1  0.89192320  0.91310846  0.45933986  1
  Sb  Sb11  1  0.11499449  0.97687275  0.54833437  1
  Sb  Sb12  1  0.03513636  0.51602623  0.82416537  1
  Sb  Sb13  1  0.96619917  0.46406585  0.20577563  1
  Sb  Sb14  1  0.40440606  0.56918449  0.45007218  1
  Sb  Sb15  1  0.60563498  0.52222457  0.53770408  1
  Sb  Sb16  1  0.52070318  0.96747670  0.78723524  1
  Sb  Sb17  1  0.47543182  0.01960524  0.18427459  1
  S  S18  1  0.93459666  0.00900783  0.79440227  1
  S  S19  1  0.05608814  0.98819661  0.19803716  1
  S  S20  1  0.40936540  0.97131987  0.96972916  1
  S  S21  1  0.58367036  0.00461165  0.00905064  1
  S  S22  1  0.17333569  0.96945338  0.90286024  1
  S  S23  1  0.82689912  0.00836606  0.10400146  1
  S  S24  1  0.10600901  0.50129987  0.66280012  1
  S  S25  1  0.89565652  0.43325244  0.34739541  1
  S  S26  1  0.74209784  0.02035641  0.31413268  1
  S  S27  1  0.26379762  0.92073188  0.68680330  1
  S  S28  1  0.16284463  0.54213307  0.43635345  1
  S  S29  1  0.81614617  0.44593060  0.54543548  1
  S  S30  1  0.44138419  0.44449228  0.80164480  1
  S  S31  1  0.56369291  0.49822714  0.17947408  1
  S  S32  1  0.91323384  0.49816562  0.99237277  1
  S  S33  1  0.08473851  0.48085960  0.02228142  1
  S  S34  1  0.66638854  0.52687479  0.88739311  1
  S  S35  1  0.33516329  0.47425479  0.11490834  1
  S  S36  1  0.60720484  0.02698342  0.65107281  1
  S  S37  1  0.39693381  0.06027887  0.33151979  1
  S  S38  1  0.24078341  0.58193819  0.31729178  1
  S  S39  1  0.76367243  0.50224561  0.68731617  1
  S  S40  1  0.66639871  0.95612684  0.45432283  1
  S  S41  1  0.33159302  0.93524520  0.55385712  1
