# generated using pymatgen
data_Pr2Mn3(SbS3)4
_symmetry_space_group_name_H-M   'P 1'
_cell_length_a   20.02960800
_cell_length_b   3.90410600
_cell_length_c   14.95364829
_cell_angle_alpha   90.00000000
_cell_angle_beta   126.33350609
_cell_angle_gamma   90.00000000
_symmetry_Int_Tables_number   1
_chemical_formula_structural   Pr2Mn3(SbS3)4
_chemical_formula_sum   'Pr4 Mn6 Sb8 S24'
_cell_volume   942.00006694
_cell_formula_units_Z   2
loop_
 _symmetry_equiv_pos_site_id
 _symmetry_equiv_pos_as_xyz
  1  'x, y, z'
loop_
 _atom_site_type_symbol
 _atom_site_label
 _atom_site_symmetry_multiplicity
 _atom_site_fract_x
 _atom_site_fract_y
 _atom_site_fract_z
 _atom_site_occupancy
  Pr  Pr0  1  0.26856022  0.47150483  0.88712534  1
  Pr  Pr1  1  0.72947065  0.50978906  0.13854340  1
  Pr  Pr2  1  0.76157064  0.04115687  0.86692254  1
  Pr  Pr3  1  0.23159354  0.91290905  0.12802407  1
  Mn  Mn4  1  0.29025707  0.42338003  0.59492459  1
  Mn  Mn5  1  0.69825619  0.51384583  0.36578500  1
  Mn  Mn6  1  0.00856589  0.96389757  0.01226765  1
  Mn  Mn7  1  0.80076269  0.97405964  0.63453414  1
  Mn  Mn8  1  0.20878237  0.06590772  0.39671123  1
  Mn  Mn9  1  0.48550948  0.46834945  0.98617701  1
  Sb  Sb10  1  0.89207412  0.91277690  0.45938221  1
  Sb  Sb11  1  0.11501112  0.97653480  0.54827752  1
  Sb  Sb12  1  0.03504876  0.51590411  0.82423633  1
  Sb  Sb13  1  0.96608093  0.46383201  0.20562171  1
  Sb  Sb14  1  0.40437757  0.56934733  0.45014041  1
  Sb  Sb15  1  0.60560391  0.52206617  0.53772182  1
  Sb  Sb16  1  0.52063629  0.96792749  0.78717127  1
  Sb  Sb17  1  0.47536914  0.01964787  0.18409470  1
  S  S18  1  0.93462773  0.00827323  0.79444532  1
  S  S19  1  0.05600258  0.99020534  0.19799753  1
  S  S20  1  0.40919277  0.97108892  0.96953923  1
  S  S21  1  0.58370983  0.00603009  0.00924256  1
  S  S22  1  0.17323033  0.96902057  0.90262823  1
  S  S23  1  0.82704051  0.00789745  0.10385372  1
  S  S24  1  0.10614935  0.50055173  0.66293441  1
  S  S25  1  0.89558183  0.43206127  0.34749675  1
  S  S26  1  0.74179701  0.02164918  0.31402419  1
  S  S27  1  0.26400414  0.92106685  0.68706855  1
  S  S28  1  0.16299534  0.54185693  0.43672614  1
  S  S29  1  0.81626151  0.44595212  0.54581977  1
  S  S30  1  0.44140281  0.44478896  0.80190422  1
  S  S31  1  0.56371213  0.49679240  0.17954940  1
  S  S32  1  0.91304351  0.49636207  0.99227940  1
  S  S33  1  0.08444222  0.48070585  0.02214994  1
  S  S34  1  0.66642728  0.52760685  0.88716273  1
  S  S35  1  0.33518272  0.47435384  0.11503647  1
  S  S36  1  0.60729816  0.02798224  0.65148185  1
  S  S37  1  0.39704869  0.06067770  0.33166962  1
  S  S38  1  0.24071068  0.58200485  0.31710480  1
  S  S39  1  0.76411383  0.50350125  0.68749748  1
  S  S40  1  0.66627241  0.95621096  0.45417092  1
  S  S41  1  0.33172190  0.93424626  0.55389981  1
