# generated using pymatgen
data_Pr2Mn3(SbS3)4
_symmetry_space_group_name_H-M   'P 1'
_cell_length_a   20.02960800
_cell_length_b   3.90410600
_cell_length_c   14.95364829
_cell_angle_alpha   90.00000000
_cell_angle_beta   126.33350609
_cell_angle_gamma   90.00000000
_symmetry_Int_Tables_number   1
_chemical_formula_structural   Pr2Mn3(SbS3)4
_chemical_formula_sum   'Pr4 Mn6 Sb8 S24'
_cell_volume   942.00006694
_cell_formula_units_Z   2
loop_
 _symmetry_equiv_pos_site_id
 _symmetry_equiv_pos_as_xyz
  1  'x, y, z'
loop_
 _atom_site_type_symbol
 _atom_site_label
 _atom_site_symmetry_multiplicity
 _atom_site_fract_x
 _atom_site_fract_y
 _atom_site_fract_z
 _atom_site_occupancy
  Pr  Pr0  1  0.26862948  0.47130164  0.88729832  1
  Pr  Pr1  1  0.72935526  0.50981193  0.13852363  1
  Pr  Pr2  1  0.76147388  0.04148599  0.86695381  1
  Pr  Pr3  1  0.23172067  0.91360615  0.12809976  1
  Mn  Mn4  1  0.29057476  0.42410093  0.59503724  1
  Mn  Mn5  1  0.69823784  0.51340968  0.36568094  1
  Mn  Mn6  1  0.00862150  0.96388857  0.01231583  1
  Mn  Mn7  1  0.80071800  0.97466760  0.63479944  1
  Mn  Mn8  1  0.20881043  0.06620312  0.39658583  1
  Mn  Mn9  1  0.48535345  0.46837603  0.98592389  1
  Sb  Sb10  1  0.89213010  0.91243169  0.45937898  1
  Sb  Sb11  1  0.11498716  0.97665475  0.54824792  1
  Sb  Sb12  1  0.03494167  0.51559051  0.82427414  1
  Sb  Sb13  1  0.96593789  0.46332907  0.20545126  1
  Sb  Sb14  1  0.40438542  0.56969633  0.45018423  1
  Sb  Sb15  1  0.60560622  0.52175148  0.53786322  1
  Sb  Sb16  1  0.52063262  0.96856396  0.78721703  1
  Sb  Sb17  1  0.47532925  0.01971404  0.18401278  1
  S  S18  1  0.93471224  0.00740493  0.79459049  1
  S  S19  1  0.05588231  0.99222798  0.19784396  1
  S  S20  1  0.40894913  0.97073529  0.96930942  1
  S  S21  1  0.58380482  0.00727305  0.00942011  1
  S  S22  1  0.17314012  0.96855781  0.90234758  1
  S  S23  1  0.82721599  0.00743327  0.10363989  1
  S  S24  1  0.10626814  0.49993961  0.66307388  1
  S  S25  1  0.89562135  0.43042533  0.34758060  1
  S  S26  1  0.74151627  0.02227025  0.31388104  1
  S  S27  1  0.26429328  0.92204243  0.68723951  1
  S  S28  1  0.16323942  0.54156750  0.43719171  1
  S  S29  1  0.81654346  0.44628629  0.54634657  1
  S  S30  1  0.44136184  0.44467247  0.80201932  1
  S  S31  1  0.56383305  0.49549105  0.17971123  1
  S  S32  1  0.91286605  0.49545018  0.99208856  1
  S  S33  1  0.08407112  0.48047222  0.02181358  1
  S  S34  1  0.66648188  0.52811155  0.88701362  1
  S  S35  1  0.33525829  0.47469569  0.11512543  1
  S  S36  1  0.60732943  0.02916694  0.65181779  1
  S  S37  1  0.39714419  0.06082999  0.33181550  1
  S  S38  1  0.24056902  0.58184346  0.31692915  1
  S  S39  1  0.76438867  0.50453352  0.68755094  1
  S  S40  1  0.66606329  0.95658494  0.45391818  1
  S  S41  1  0.33173052  0.93353659  0.55379655  1
