# generated using pymatgen
data_Pr2Mn3(SbS3)4
_symmetry_space_group_name_H-M   'P 1'
_cell_length_a   20.02960800
_cell_length_b   3.90410600
_cell_length_c   14.95364829
_cell_angle_alpha   90.00000000
_cell_angle_beta   126.33350609
_cell_angle_gamma   90.00000000
_symmetry_Int_Tables_number   1
_chemical_formula_structural   Pr2Mn3(SbS3)4
_chemical_formula_sum   'Pr4 Mn6 Sb8 S24'
_cell_volume   942.00006694
_cell_formula_units_Z   2
loop_
 _symmetry_equiv_pos_site_id
 _symmetry_equiv_pos_as_xyz
  1  'x, y, z'
loop_
 _atom_site_type_symbol
 _atom_site_label
 _atom_site_symmetry_multiplicity
 _atom_site_fract_x
 _atom_site_fract_y
 _atom_site_fract_z
 _atom_site_occupancy
  Pr  Pr0  1  0.26869137  0.47113743  0.88743310  1
  Pr  Pr1  1  0.72929919  0.50964349  0.13853450  1
  Pr  Pr2  1  0.76140984  0.04207545  0.86694807  1
  Pr  Pr3  1  0.23182412  0.91431018  0.12811711  1
  Mn  Mn4  1  0.29084053  0.42417384  0.59516286  1
  Mn  Mn5  1  0.69816677  0.51227957  0.36548513  1
  Mn  Mn6  1  0.00861066  0.96394464  0.01232649  1
  Mn  Mn7  1  0.80065408  0.97522540  0.63501394  1
  Mn  Mn8  1  0.20890813  0.06640342  0.39644998  1
  Mn  Mn9  1  0.48519929  0.46831494  0.98561521  1
  Sb  Sb10  1  0.89216509  0.91176597  0.45930354  1
  Sb  Sb11  1  0.11489665  0.97695040  0.54819944  1
  Sb  Sb12  1  0.03489697  0.51535075  0.82439832  1
  Sb  Sb13  1  0.96580942  0.46285085  0.20526537  1
  Sb  Sb14  1  0.40435470  0.56995080  0.45020766  1
  Sb  Sb15  1  0.60566733  0.52155942  0.53805165  1
  Sb  Sb16  1  0.52059873  0.96907414  0.78732756  1
  Sb  Sb17  1  0.47524158  0.01979835  0.18384496  1
  S  S18  1  0.93482024  0.00649390  0.79478405  1
  S  S19  1  0.05580820  0.99420242  0.19764159  1
  S  S20  1  0.40876525  0.97036875  0.96905480  1
  S  S21  1  0.58385187  0.00853267  0.00945311  1
  S  S22  1  0.17295402  0.96765442  0.90200911  1
  S  S23  1  0.82735264  0.00725247  0.10340695  1
  S  S24  1  0.10642058  0.49889982  0.66332457  1
  S  S25  1  0.89561769  0.42915365  0.34760286  1
  S  S26  1  0.74114247  0.02319725  0.31365914  1
  S  S27  1  0.26451694  0.92301589  0.68744557  1
  S  S28  1  0.16348823  0.54129145  0.43750708  1
  S  S29  1  0.81666254  0.44639130  0.54661169  1
  S  S30  1  0.44119593  0.44458188  0.80206384  1
  S  S31  1  0.56387784  0.49441468  0.17984882  1
  S  S32  1  0.91263085  0.49426992  0.99186943  1
  S  S33  1  0.08375671  0.47981953  0.02162888  1
  S  S34  1  0.66657690  0.52918558  0.88684896  1
  S  S35  1  0.33541071  0.47458762  0.11525531  1
  S  S36  1  0.60733271  0.03028680  0.65218413  1
  S  S37  1  0.39739066  0.06086455  0.33210340  1
  S  S38  1  0.24045401  0.58221189  0.31688566  1
  S  S39  1  0.76473273  0.50529147  0.68765883  1
  S  S40  1  0.66607200  0.95669694  0.45389421  1
  S  S41  1  0.33168445  0.93337866  0.55365335  1
