# generated using pymatgen
data_Pr2Mn3(SbS3)4
_symmetry_space_group_name_H-M   'P 1'
_cell_length_a   20.02960800
_cell_length_b   3.90410600
_cell_length_c   14.95364829
_cell_angle_alpha   90.00000000
_cell_angle_beta   126.33350609
_cell_angle_gamma   90.00000000
_symmetry_Int_Tables_number   1
_chemical_formula_structural   Pr2Mn3(SbS3)4
_chemical_formula_sum   'Pr4 Mn6 Sb8 S24'
_cell_volume   942.00006694
_cell_formula_units_Z   2
loop_
 _symmetry_equiv_pos_site_id
 _symmetry_equiv_pos_as_xyz
  1  'x, y, z'
loop_
 _atom_site_type_symbol
 _atom_site_label
 _atom_site_symmetry_multiplicity
 _atom_site_fract_x
 _atom_site_fract_y
 _atom_site_fract_z
 _atom_site_occupancy
  Pr  Pr0  1  0.26879586  0.47081277  0.88760213  1
  Pr  Pr1  1  0.72923647  0.50958243  0.13848392  1
  Pr  Pr2  1  0.76134228  0.04267411  0.86693415  1
  Pr  Pr3  1  0.23191495  0.91503764  0.12806935  1
  Mn  Mn4  1  0.29107532  0.42420420  0.59527452  1
  Mn  Mn5  1  0.69795594  0.51119503  0.36525342  1
  Mn  Mn6  1  0.00850407  0.96416744  0.01232729  1
  Mn  Mn7  1  0.80067675  0.97537764  0.63516266  1
  Mn  Mn8  1  0.20900287  0.06663330  0.39622899  1
  Mn  Mn9  1  0.48500297  0.46819432  0.98533603  1
  Sb  Sb10  1  0.89218734  0.91143040  0.45929897  1
  Sb  Sb11  1  0.11475259  0.97728356  0.54811037  1
  Sb  Sb12  1  0.03481705  0.51524445  0.82448842  1
  Sb  Sb13  1  0.96565620  0.46261506  0.20514910  1
  Sb  Sb14  1  0.40439970  0.56998762  0.45017590  1
  Sb  Sb15  1  0.60571976  0.52139190  0.53823116  1
  Sb  Sb16  1  0.52050081  0.96937022  0.78735957  1
  Sb  Sb17  1  0.47518364  0.01982953  0.18371017  1
  S  S18  1  0.93491815  0.00545404  0.79499158  1
  S  S19  1  0.05572104  0.99600149  0.19750775  1
  S  S20  1  0.40865884  0.97008976  0.96895049  1
  S  S21  1  0.58385033  0.00933865  0.00935398  1
  S  S22  1  0.17281176  0.96686350  0.90167047  1
  S  S23  1  0.82733099  0.00708032  0.10304236  1
  S  S24  1  0.10659902  0.49759335  0.66343578  1
  S  S25  1  0.89555233  0.42812847  0.34770127  1
  S  S26  1  0.74082674  0.02364702  0.31349293  1
  S  S27  1  0.26464993  0.92370788  0.68747291  1
  S  S28  1  0.16369277  0.54084897  0.43773308  1
  S  S29  1  0.81671464  0.44667244  0.54682607  1
  S  S30  1  0.44097653  0.44449736  0.80212477  1
  S  S31  1  0.56389878  0.49349875  0.17994051  1
  S  S32  1  0.91239256  0.49306203  0.99155754  1
  S  S33  1  0.08356797  0.47883530  0.02164735  1
  S  S34  1  0.66662229  0.53002739  0.88660742  1
  S  S35  1  0.33553437  0.47487269  0.11533124  1
  S  S36  1  0.60719997  0.03092208  0.65239368  1
  S  S37  1  0.39770470  0.06139788  0.33237624  1
  S  S38  1  0.24046017  0.58217390  0.31675718  1
  S  S39  1  0.76510128  0.50590950  0.68773591  1
  S  S40  1  0.66606786  0.95685620  0.45390456  1
  S  S41  1  0.33158791  0.93305275  0.55347237  1
