# generated using pymatgen
data_Pr2Mn3(SbS3)4
_symmetry_space_group_name_H-M   'P 1'
_cell_length_a   20.02960800
_cell_length_b   3.90410600
_cell_length_c   14.95364829
_cell_angle_alpha   90.00000000
_cell_angle_beta   126.33350609
_cell_angle_gamma   90.00000000
_symmetry_Int_Tables_number   1
_chemical_formula_structural   Pr2Mn3(SbS3)4
_chemical_formula_sum   'Pr4 Mn6 Sb8 S24'
_cell_volume   942.00006694
_cell_formula_units_Z   2
loop_
 _symmetry_equiv_pos_site_id
 _symmetry_equiv_pos_as_xyz
  1  'x, y, z'
loop_
 _atom_site_type_symbol
 _atom_site_label
 _atom_site_symmetry_multiplicity
 _atom_site_fract_x
 _atom_site_fract_y
 _atom_site_fract_z
 _atom_site_occupancy
  Pr  Pr0  1  0.26887764  0.47052306  0.88772428  1
  Pr  Pr1  1  0.72920903  0.50947523  0.13842041  1
  Pr  Pr2  1  0.76127096  0.04308253  0.86694969  1
  Pr  Pr3  1  0.23203407  0.91574672  0.12800260  1
  Mn  Mn4  1  0.29134814  0.42454116  0.59541244  1
  Mn  Mn5  1  0.69771502  0.51041216  0.36500155  1
  Mn  Mn6  1  0.00836756  0.96405726  0.01228673  1
  Mn  Mn7  1  0.80071027  0.97556692  0.63535182  1
  Mn  Mn8  1  0.20900034  0.06691099  0.39586513  1
  Mn  Mn9  1  0.48491704  0.46817587  0.98520723  1
  Sb  Sb10  1  0.89212244  0.91094475  0.45924078  1
  Sb  Sb11  1  0.11459069  0.97748287  0.54795804  1
  Sb  Sb12  1  0.03472967  0.51508518  0.82460852  1
  Sb  Sb13  1  0.96556235  0.46241644  0.20503850  1
  Sb  Sb14  1  0.40446099  0.57015845  0.45013611  1
  Sb  Sb15  1  0.60573066  0.52107925  0.53838830  1
  Sb  Sb16  1  0.52041807  0.96960262  0.78740382  1
  Sb  Sb17  1  0.47505440  0.01964238  0.18352641  1
  S  S18  1  0.93498001  0.00460020  0.79521560  1
  S  S19  1  0.05561323  0.99707236  0.19746445  1
  S  S20  1  0.40867154  0.96993483  0.96895613  1
  S  S21  1  0.58389397  0.01010246  0.00936979  1
  S  S22  1  0.17274784  0.96618888  0.90137779  1
  S  S23  1  0.82717898  0.00688014  0.10256258  1
  S  S24  1  0.10685892  0.49655384  0.66352770  1
  S  S25  1  0.89567374  0.42771252  0.34802890  1
  S  S26  1  0.74052129  0.02397971  0.31340554  1
  S  S27  1  0.26481842  0.92396743  0.68762350  1
  S  S28  1  0.16382124  0.54004673  0.43799416  1
  S  S29  1  0.81674577  0.44693209  0.54695333  1
  S  S30  1  0.44061007  0.44469446  0.80201004  1
  S  S31  1  0.56394870  0.49247419  0.18005651  1
  S  S32  1  0.91223614  0.49136559  0.99131834  1
  S  S33  1  0.08332542  0.47789521  0.02163911  1
  S  S34  1  0.66662843  0.53099393  0.88632553  1
  S  S35  1  0.33562082  0.47487497  0.11540313  1
  S  S36  1  0.60704738  0.03110805  0.65263856  1
  S  S37  1  0.39803753  0.06210658  0.33259125  1
  S  S38  1  0.24050514  0.58170675  0.31662520  1
  S  S39  1  0.76541529  0.50678540  0.68769493  1
  S  S40  1  0.66609279  0.95693281  0.45404272  1
  S  S41  1  0.33150399  0.93264522  0.55336242  1
