# generated using pymatgen
data_Pr2Mn3(SbS3)4
_symmetry_space_group_name_H-M   'P 1'
_cell_length_a   20.02960800
_cell_length_b   3.90410600
_cell_length_c   14.95364829
_cell_angle_alpha   90.00000000
_cell_angle_beta   126.33350609
_cell_angle_gamma   90.00000000
_symmetry_Int_Tables_number   1
_chemical_formula_structural   Pr2Mn3(SbS3)4
_chemical_formula_sum   'Pr4 Mn6 Sb8 S24'
_cell_volume   942.00006694
_cell_formula_units_Z   2
loop_
 _symmetry_equiv_pos_site_id
 _symmetry_equiv_pos_as_xyz
  1  'x, y, z'
loop_
 _atom_site_type_symbol
 _atom_site_label
 _atom_site_symmetry_multiplicity
 _atom_site_fract_x
 _atom_site_fract_y
 _atom_site_fract_z
 _atom_site_occupancy
  Pr  Pr0  1  0.26891313  0.47013685  0.88777561  1
  Pr  Pr1  1  0.72916499  0.50927804  0.13831537  1
  Pr  Pr2  1  0.76115107  0.04345730  0.86689766  1
  Pr  Pr3  1  0.23213673  0.91645959  0.12794803  1
  Mn  Mn4  1  0.29146646  0.42486264  0.59556010  1
  Mn  Mn5  1  0.69747135  0.51019510  0.36471913  1
  Mn  Mn6  1  0.00825794  0.96364782  0.01220899  1
  Mn  Mn7  1  0.80079602  0.97598410  0.63545564  1
  Mn  Mn8  1  0.20900123  0.06675598  0.39554509  1
  Mn  Mn9  1  0.48475586  0.46788898  0.98507043  1
  Sb  Sb10  1  0.89205269  0.91046332  0.45922834  1
  Sb  Sb11  1  0.11447529  0.97763031  0.54777851  1
  Sb  Sb12  1  0.03464567  0.51497517  0.82469081  1
  Sb  Sb13  1  0.96545284  0.46217789  0.20486905  1
  Sb  Sb14  1  0.40451096  0.57042845  0.45010656  1
  Sb  Sb15  1  0.60570551  0.52085055  0.53851880  1
  Sb  Sb16  1  0.52034940  0.96987109  0.78736646  1
  Sb  Sb17  1  0.47495690  0.01963266  0.18339048  1
  S  S18  1  0.93512238  0.00363917  0.79557134  1
  S  S19  1  0.05564374  0.99806518  0.19757546  1
  S  S20  1  0.40879135  0.96996723  0.96918100  1
  S  S21  1  0.58382661  0.01073277  0.00937424  1
  S  S22  1  0.17268374  0.96547061  0.90106232  1
  S  S23  1  0.82703695  0.00683341  0.10225550  1
  S  S24  1  0.10707699  0.49498018  0.66368201  1
  S  S25  1  0.89569729  0.42735419  0.34835057  1
  S  S26  1  0.74024150  0.02406441  0.31341346  1
  S  S27  1  0.26487970  0.92407703  0.68761968  1
  S  S28  1  0.16389793  0.53875438  0.43830389  1
  S  S29  1  0.81686798  0.44698813  0.54720520  1
  S  S30  1  0.44029968  0.44518428  0.80197555  1
  S  S31  1  0.56404345  0.49188321  0.18012247  1
  S  S32  1  0.91209509  0.49017509  0.99120541  1
  S  S33  1  0.08296025  0.47701986  0.02155345  1
  S  S34  1  0.66661212  0.53190629  0.88605637  1
  S  S35  1  0.33569358  0.47491548  0.11539940  1
  S  S36  1  0.60682425  0.03131381  0.65287141  1
  S  S37  1  0.39828548  0.06289167  0.33270961  1
  S  S38  1  0.24067270  0.58089890  0.31677708  1
  S  S39  1  0.76565861  0.50695572  0.68768296  1
  S  S40  1  0.66608670  0.95716992  0.45424623  1
  S  S41  1  0.33147516  0.93191993  0.55327758  1
