# generated using pymatgen
data_Pr2Mn3(SbS3)4
_symmetry_space_group_name_H-M   'P 1'
_cell_length_a   20.02960800
_cell_length_b   3.90410600
_cell_length_c   14.95364829
_cell_angle_alpha   90.00000000
_cell_angle_beta   126.33350609
_cell_angle_gamma   90.00000000
_symmetry_Int_Tables_number   1
_chemical_formula_structural   Pr2Mn3(SbS3)4
_chemical_formula_sum   'Pr4 Mn6 Sb8 S24'
_cell_volume   942.00006694
_cell_formula_units_Z   2
loop_
 _symmetry_equiv_pos_site_id
 _symmetry_equiv_pos_as_xyz
  1  'x, y, z'
loop_
 _atom_site_type_symbol
 _atom_site_label
 _atom_site_symmetry_multiplicity
 _atom_site_fract_x
 _atom_site_fract_y
 _atom_site_fract_z
 _atom_site_occupancy
  Pr  Pr0  1  0.26900696  0.46962428  0.88789747  1
  Pr  Pr1  1  0.72913735  0.50908892  0.13824238  1
  Pr  Pr2  1  0.76104710  0.04374640  0.86688949  1
  Pr  Pr3  1  0.23225351  0.91706571  0.12789494  1
  Mn  Mn4  1  0.29164956  0.42514341  0.59576047  1
  Mn  Mn5  1  0.69726382  0.51033196  0.36450220  1
  Mn  Mn6  1  0.00807429  0.96307802  0.01225265  1
  Mn  Mn7  1  0.80091184  0.97633045  0.63554056  1
  Mn  Mn8  1  0.20907167  0.06652955  0.39535093  1
  Mn  Mn9  1  0.48458351  0.46708306  0.98496300  1
  Sb  Sb10  1  0.89196889  0.90976309  0.45916728  1
  Sb  Sb11  1  0.11436332  0.97776119  0.54767170  1
  Sb  Sb12  1  0.03458698  0.51505255  0.82475842  1
  Sb  Sb13  1  0.96535520  0.46173144  0.20473883  1
  Sb  Sb14  1  0.40455143  0.57050900  0.45013215  1
  Sb  Sb15  1  0.60566707  0.52072649  0.53861533  1
  Sb  Sb16  1  0.52023020  0.96995885  0.78732990  1
  Sb  Sb17  1  0.47484462  0.01955326  0.18320952  1
  S  S18  1  0.93522450  0.00300818  0.79594150  1
  S  S19  1  0.05565153  0.99939104  0.19776398  1
  S  S20  1  0.40891704  0.96962385  0.96939548  1
  S  S21  1  0.58376606  0.01206865  0.00933476  1
  S  S22  1  0.17255039  0.96507571  0.90071839  1
  S  S23  1  0.82698089  0.00621657  0.10200431  1
  S  S24  1  0.10725680  0.49365004  0.66375334  1
  S  S25  1  0.89570674  0.42725152  0.34860894  1
  S  S26  1  0.73997768  0.02418069  0.31334163  1
  S  S27  1  0.26502269  0.92431985  0.68778825  1
  S  S28  1  0.16387663  0.53731922  0.43851413  1
  S  S29  1  0.81688189  0.44695252  0.54726830  1
  S  S30  1  0.44002286  0.44544776  0.80203978  1
  S  S31  1  0.56409254  0.49165128  0.18025105  1
  S  S32  1  0.91192435  0.48916452  0.99115236  1
  S  S33  1  0.08261613  0.47629180  0.02146095  1
  S  S34  1  0.66663703  0.53295668  0.88590746  1
  S  S35  1  0.33564136  0.47485039  0.11533427  1
  S  S36  1  0.60656584  0.03152405  0.65296933  1
  S  S37  1  0.39839014  0.06305793  0.33264749  1
  S  S38  1  0.24073597  0.58033513  0.31685737  1
  S  S39  1  0.76586576  0.50736489  0.68767248  1
  S  S40  1  0.66600483  0.95773897  0.45444299  1
  S  S41  1  0.33158253  0.93121117  0.55325074  1
