# generated using pymatgen
data_Pr2Mn3(SbS3)4
_symmetry_space_group_name_H-M   'P 1'
_cell_length_a   20.02960800
_cell_length_b   3.90410600
_cell_length_c   14.95364829
_cell_angle_alpha   90.00000000
_cell_angle_beta   126.33350609
_cell_angle_gamma   90.00000000
_symmetry_Int_Tables_number   1
_chemical_formula_structural   Pr2Mn3(SbS3)4
_chemical_formula_sum   'Pr4 Mn6 Sb8 S24'
_cell_volume   942.00006694
_cell_formula_units_Z   2
loop_
 _symmetry_equiv_pos_site_id
 _symmetry_equiv_pos_as_xyz
  1  'x, y, z'
loop_
 _atom_site_type_symbol
 _atom_site_label
 _atom_site_symmetry_multiplicity
 _atom_site_fract_x
 _atom_site_fract_y
 _atom_site_fract_z
 _atom_site_occupancy
  Pr  Pr0  1  0.26471713  0.48183275  0.87038609  1
  Pr  Pr1  1  0.73740283  0.50975116  0.13619061  1
  Pr  Pr2  1  0.76145316  0.00928462  0.86089291  1
  Pr  Pr3  1  0.23689604  0.99889959  0.13974724  1
  Mn  Mn4  1  0.29573217  0.49551511  0.61038037  1
  Mn  Mn5  1  0.69529277  0.52025256  0.37930911  1
  Mn  Mn6  1  0.00354690  0.00225610  0.00087720  1
  Mn  Mn7  1  0.80293681  0.98906632  0.61628876  1
  Mn  Mn8  1  0.19695405  0.97717569  0.37952042  1
  Mn  Mn9  1  0.50295628  0.47529507  0.99516479  1
  Sb  Sb10  1  0.89322893  0.00354732  0.45476558  1
  Sb  Sb11  1  0.11207852  0.97139363  0.55275918  1
  Sb  Sb12  1  0.04000861  0.50050408  0.81628577  1
  Sb  Sb13  1  0.96256140  0.53056790  0.18773106  1
  Sb  Sb14  1  0.39801876  0.49936435  0.45722304  1
  Sb  Sb15  1  0.60669816  0.49011811  0.54825581  1
  Sb  Sb16  1  0.53618670  0.00808131  0.81420791  1
  Sb  Sb17  1  0.46228564  0.00541863  0.18194594  1
  S  S18  1  0.93593179  0.97799247  0.79722743  1
  S  S19  1  0.06487074  0.98999678  0.19313382  1
  S  S20  1  0.41009823  0.00734840  0.97924574  1
  S  S21  1  0.59220121  0.99333861  0.02182689  1
  S  S22  1  0.17237855  0.98975728  0.89653017  1
  S  S23  1  0.82712605  0.01972126  0.10124266  1
  S  S24  1  0.08550492  0.45584159  0.64510810  1
  S  S25  1  0.91398703  0.49084353  0.36085612  1
  S  S26  1  0.74328654  0.94636996  0.29954720  1
  S  S27  1  0.25776517  0.00318835  0.70166915  1
  S  S28  1  0.16475133  0.48425112  0.44406889  1
  S  S29  1  0.83033813  0.47513003  0.54979429  1
  S  S30  1  0.43220277  0.50987529  0.80062776  1
  S  S31  1  0.56207190  0.52523146  0.19203042  1
  S  S32  1  0.90260703  0.49229804  0.97742336  1
  S  S33  1  0.08656853  0.49281425  0.01810624  1
  S  S34  1  0.66428000  0.50610043  0.89224081  1
  S  S35  1  0.32941295  0.52850862  0.10144791  1
  S  S36  1  0.58930750  0.00458554  0.64661737  1
  S  S37  1  0.40976699  0.96113059  0.35189174  1
  S  S38  1  0.24336228  0.48774412  0.30417965  1
  S  S39  1  0.76019428  0.49638301  0.69720179  1
  S  S40  1  0.67263933  0.01181307  0.46373158  1
  S  S41  1  0.33085909  0.98731175  0.54234166  1
