# generated using pymatgen
data_Pr2Mn3(SbS3)4
_symmetry_space_group_name_H-M   'P 1'
_cell_length_a   20.02960800
_cell_length_b   3.90410600
_cell_length_c   14.95364829
_cell_angle_alpha   90.00000000
_cell_angle_beta   126.33350609
_cell_angle_gamma   90.00000000
_symmetry_Int_Tables_number   1
_chemical_formula_structural   Pr2Mn3(SbS3)4
_chemical_formula_sum   'Pr4 Mn6 Sb8 S24'
_cell_volume   942.00006694
_cell_formula_units_Z   2
loop_
 _symmetry_equiv_pos_site_id
 _symmetry_equiv_pos_as_xyz
  1  'x, y, z'
loop_
 _atom_site_type_symbol
 _atom_site_label
 _atom_site_symmetry_multiplicity
 _atom_site_fract_x
 _atom_site_fract_y
 _atom_site_fract_z
 _atom_site_occupancy
  Pr  Pr0  1  0.26908201  0.46925170  0.88799359  1
  Pr  Pr1  1  0.72910615  0.50854614  0.13815746  1
  Pr  Pr2  1  0.76094767  0.04419402  0.86687623  1
  Pr  Pr3  1  0.23232807  0.91773808  0.12783329  1
  Mn  Mn4  1  0.29187990  0.42528675  0.59595014  1
  Mn  Mn5  1  0.69716010  0.51008678  0.36441443  1
  Mn  Mn6  1  0.00799528  0.96249728  0.01245276  1
  Mn  Mn7  1  0.80101872  0.97677956  0.63570996  1
  Mn  Mn8  1  0.20908866  0.06629935  0.39511063  1
  Mn  Mn9  1  0.48440604  0.46601651  0.98486505  1
  Sb  Sb10  1  0.89187568  0.90937068  0.45908535  1
  Sb  Sb11  1  0.11422928  0.97798892  0.54746302  1
  Sb  Sb12  1  0.03453484  0.51513699  0.82480346  1
  Sb  Sb13  1  0.96520337  0.46153090  0.20456729  1
  Sb  Sb14  1  0.40457477  0.57061924  0.45008357  1
  Sb  Sb15  1  0.60563849  0.52061158  0.53872861  1
  Sb  Sb16  1  0.52008100  0.96981716  0.78725704  1
  Sb  Sb17  1  0.47473618  0.01932698  0.18305201  1
  S  S18  1  0.93521505  0.00211257  0.79606066  1
  S  S19  1  0.05569302  0.00019153  0.19794655  1
  S  S20  1  0.40898281  0.96944595  0.96960475  1
  S  S21  1  0.58382930  0.01303897  0.00933906  1
  S  S22  1  0.17257315  0.96481276  0.90039047  1
  S  S23  1  0.82697353  0.00629103  0.10190301  1
  S  S24  1  0.10732743  0.49291658  0.66366353  1
  S  S25  1  0.89566294  0.42690603  0.34873623  1
  S  S26  1  0.73966618  0.02413440  0.31308911  1
  S  S27  1  0.26497685  0.92486301  0.68776115  1
  S  S28  1  0.16368881  0.53482076  0.43865098  1
  S  S29  1  0.81682397  0.44739067  0.54728509  1
  S  S30  1  0.43974067  0.44571939  0.80208159  1
  S  S31  1  0.56421952  0.49159392  0.18048390  1
  S  S32  1  0.91179613  0.48853161  0.99126052  1
  S  S33  1  0.08220412  0.47535862  0.02129397  1
  S  S34  1  0.66658724  0.53387974  0.88576219  1
  S  S35  1  0.33558354  0.47443847  0.11512167  1
  S  S36  1  0.60647687  0.03158978  0.65320016  1
  S  S37  1  0.39848596  0.06298716  0.33264621  1
  S  S38  1  0.24090416  0.58002029  0.31718147  1
  S  S39  1  0.76590345  0.50813273  0.68760873  1
  S  S40  1  0.66595952  0.95849862  0.45472897  1
  S  S41  1  0.33163871  0.93122166  0.55333238  1
