# generated using pymatgen
data_Pr2Mn3(SbS3)4
_symmetry_space_group_name_H-M   'P 1'
_cell_length_a   20.02960800
_cell_length_b   3.90410600
_cell_length_c   14.95364829
_cell_angle_alpha   90.00000000
_cell_angle_beta   126.33350609
_cell_angle_gamma   90.00000000
_symmetry_Int_Tables_number   1
_chemical_formula_structural   Pr2Mn3(SbS3)4
_chemical_formula_sum   'Pr4 Mn6 Sb8 S24'
_cell_volume   942.00006694
_cell_formula_units_Z   2
loop_
 _symmetry_equiv_pos_site_id
 _symmetry_equiv_pos_as_xyz
  1  'x, y, z'
loop_
 _atom_site_type_symbol
 _atom_site_label
 _atom_site_symmetry_multiplicity
 _atom_site_fract_x
 _atom_site_fract_y
 _atom_site_fract_z
 _atom_site_occupancy
  Pr  Pr0  1  0.26914841  0.46917482  0.88804907  1
  Pr  Pr1  1  0.72904873  0.50820797  0.13801268  1
  Pr  Pr2  1  0.76084674  0.04449709  0.86680698  1
  Pr  Pr3  1  0.23238472  0.91845172  0.12780101  1
  Mn  Mn4  1  0.29212510  0.42567578  0.59621664  1
  Mn  Mn5  1  0.69704608  0.50963072  0.36429681  1
  Mn  Mn6  1  0.00796301  0.96215817  0.01268340  1
  Mn  Mn7  1  0.80119017  0.97711293  0.63587924  1
  Mn  Mn8  1  0.20908944  0.06609257  0.39491569  1
  Mn  Mn9  1  0.48430984  0.46495835  0.98470278  1
  Sb  Sb10  1  0.89185851  0.90904074  0.45905928  1
  Sb  Sb11  1  0.11408395  0.97811241  0.54727081  1
  Sb  Sb12  1  0.03448325  0.51509151  0.82488090  1
  Sb  Sb13  1  0.96508109  0.46139846  0.20444279  1
  Sb  Sb14  1  0.40463436  0.57097820  0.45007755  1
  Sb  Sb15  1  0.60561083  0.52062663  0.53880584  1
  Sb  Sb16  1  0.51994780  0.96972030  0.78715982  1
  Sb  Sb17  1  0.47461003  0.01884529  0.18288429  1
  S  S18  1  0.93519460  0.00146286  0.79614635  1
  S  S19  1  0.05580553  0.00062788  0.19820416  1
  S  S20  1  0.40906442  0.96977003  0.96970544  1
  S  S21  1  0.58402960  0.01434512  0.00947381  1
  S  S22  1  0.17264679  0.96429539  0.90021483  1
  S  S23  1  0.82703150  0.00651300  0.10196855  1
  S  S24  1  0.10735417  0.49230543  0.66359490  1
  S  S25  1  0.89563932  0.42662355  0.34880035  1
  S  S26  1  0.73934981  0.02366797  0.31285551  1
  S  S27  1  0.26482572  0.92540827  0.68766194  1
  S  S28  1  0.16361249  0.53237550  0.43884176  1
  S  S29  1  0.81678865  0.44814914  0.54738505  1
  S  S30  1  0.43945367  0.44594648  0.80202891  1
  S  S31  1  0.56437730  0.49196349  0.18062066  1
  S  S32  1  0.91166792  0.48808203  0.99127621  1
  S  S33  1  0.08181099  0.47447839  0.02119340  1
  S  S34  1  0.66650542  0.53469020  0.88561999  1
  S  S35  1  0.33544517  0.47432154  0.11496068  1
  S  S36  1  0.60635313  0.03137730  0.65344488  1
  S  S37  1  0.39860397  0.06265754  0.33269834  1
  S  S38  1  0.24106609  0.57959072  0.31752579  1
  S  S39  1  0.76604353  0.50916352  0.68764426  1
  S  S40  1  0.66585986  0.95999678  0.45500356  1
  S  S41  1  0.33170461  0.93095414  0.55334127  1
