# generated using pymatgen
data_Pr2Mn3(SbS3)4
_symmetry_space_group_name_H-M   'P 1'
_cell_length_a   20.02960800
_cell_length_b   3.90410600
_cell_length_c   14.95364829
_cell_angle_alpha   90.00000000
_cell_angle_beta   126.33350609
_cell_angle_gamma   90.00000000
_symmetry_Int_Tables_number   1
_chemical_formula_structural   Pr2Mn3(SbS3)4
_chemical_formula_sum   'Pr4 Mn6 Sb8 S24'
_cell_volume   942.00006694
_cell_formula_units_Z   2
loop_
 _symmetry_equiv_pos_site_id
 _symmetry_equiv_pos_as_xyz
  1  'x, y, z'
loop_
 _atom_site_type_symbol
 _atom_site_label
 _atom_site_symmetry_multiplicity
 _atom_site_fract_x
 _atom_site_fract_y
 _atom_site_fract_z
 _atom_site_occupancy
  Pr  Pr0  1  0.26922194  0.46926622  0.88819648  1
  Pr  Pr1  1  0.72894943  0.50799278  0.13784758  1
  Pr  Pr2  1  0.76077244  0.04489497  0.86676950  1
  Pr  Pr3  1  0.23242640  0.91911480  0.12775005  1
  Mn  Mn4  1  0.29236711  0.42639490  0.59651775  1
  Mn  Mn5  1  0.69695028  0.50954992  0.36413400  1
  Mn  Mn6  1  0.00799659  0.96189900  0.01298607  1
  Mn  Mn7  1  0.80124209  0.97759971  0.63591205  1
  Mn  Mn8  1  0.20904827  0.06579983  0.39472535  1
  Mn  Mn9  1  0.48422497  0.46375020  0.98457522  1
  Sb  Sb10  1  0.89180026  0.90867980  0.45905777  1
  Sb  Sb11  1  0.11396960  0.97831675  0.54708221  1
  Sb  Sb12  1  0.03445636  0.51482707  0.82494197  1
  Sb  Sb13  1  0.96495005  0.46118734  0.20435782  1
  Sb  Sb14  1  0.40470705  0.57126359  0.45004907  1
  Sb  Sb15  1  0.60563069  0.52053791  0.53892376  1
  Sb  Sb16  1  0.51980268  0.96965607  0.78702697  1
  Sb  Sb17  1  0.47448859  0.01851183  0.18273802  1
  S  S18  1  0.93504117  0.00066110  0.79606040  1
  S  S19  1  0.05588565  0.00096946  0.19827452  1
  S  S20  1  0.40929358  0.96976855  0.96999761  1
  S  S21  1  0.58422664  0.01593256  0.00970507  1
  S  S22  1  0.17261706  0.96421586  0.90005882  1
  S  S23  1  0.82698193  0.00728681  0.10206038  1
  S  S24  1  0.10725938  0.49218951  0.66335443  1
  S  S25  1  0.89557063  0.42600881  0.34888069  1
  S  S26  1  0.73892790  0.02358892  0.31248235  1
  S  S27  1  0.26474170  0.92621772  0.68764706  1
  S  S28  1  0.16353240  0.53036693  0.43892999  1
  S  S29  1  0.81685205  0.44975498  0.54753206  1
  S  S30  1  0.43918974  0.44640938  0.80191799  1
  S  S31  1  0.56447948  0.49286640  0.18073805  1
  S  S32  1  0.91135975  0.48830961  0.99127273  1
  S  S33  1  0.08163471  0.47405404  0.02120412  1
  S  S34  1  0.66651579  0.53552367  0.88562777  1
  S  S35  1  0.33536151  0.47429850  0.11485876  1
  S  S36  1  0.60623993  0.03178687  0.65367801  1
  S  S37  1  0.39872602  0.06247581  0.33279523  1
  S  S38  1  0.24121998  0.57899943  0.31785489  1
  S  S39  1  0.76627171  0.51028090  0.68781217  1
  S  S40  1  0.66573319  0.96144950  0.45529315  1
  S  S41  1  0.33165079  0.93073628  0.55336929  1
