# generated using pymatgen
data_Pr2Mn3(SbS3)4
_symmetry_space_group_name_H-M   'P 1'
_cell_length_a   20.02960800
_cell_length_b   3.90410600
_cell_length_c   14.95364829
_cell_angle_alpha   90.00000000
_cell_angle_beta   126.33350609
_cell_angle_gamma   90.00000000
_symmetry_Int_Tables_number   1
_chemical_formula_structural   Pr2Mn3(SbS3)4
_chemical_formula_sum   'Pr4 Mn6 Sb8 S24'
_cell_volume   942.00006694
_cell_formula_units_Z   2
loop_
 _symmetry_equiv_pos_site_id
 _symmetry_equiv_pos_as_xyz
  1  'x, y, z'
loop_
 _atom_site_type_symbol
 _atom_site_label
 _atom_site_symmetry_multiplicity
 _atom_site_fract_x
 _atom_site_fract_y
 _atom_site_fract_z
 _atom_site_occupancy
  Pr  Pr0  1  0.26927935  0.46939445  0.88829914  1
  Pr  Pr1  1  0.72879681  0.50771528  0.13759890  1
  Pr  Pr2  1  0.76072252  0.04533754  0.86673799  1
  Pr  Pr3  1  0.23245439  0.91952521  0.12773903  1
  Mn  Mn4  1  0.29261486  0.42730486  0.59684328  1
  Mn  Mn5  1  0.69682687  0.50971560  0.36409699  1
  Mn  Mn6  1  0.00799904  0.96151389  0.01331030  1
  Mn  Mn7  1  0.80133610  0.97782335  0.63586249  1
  Mn  Mn8  1  0.20893909  0.06536902  0.39452030  1
  Mn  Mn9  1  0.48415809  0.46287164  0.98449793  1
  Sb  Sb10  1  0.89172046  0.90840319  0.45905104  1
  Sb  Sb11  1  0.11393632  0.97855853  0.54697369  1
  Sb  Sb12  1  0.03441495  0.51427061  0.82495352  1
  Sb  Sb13  1  0.96479701  0.46093473  0.20426735  1
  Sb  Sb14  1  0.40477395  0.57164168  0.44998669  1
  Sb  Sb15  1  0.60562373  0.52040193  0.53902239  1
  Sb  Sb16  1  0.51965918  0.96954454  0.78688289  1
  Sb  Sb17  1  0.47440467  0.01855798  0.18263388  1
  S  S18  1  0.93485685  0.99987830  0.79582597  1
  S  S19  1  0.05602450  0.00136379  0.19841687  1
  S  S20  1  0.40968076  0.97051385  0.97057436  1
  S  S21  1  0.58438272  0.01671127  0.00990082  1
  S  S22  1  0.17258874  0.96433563  0.89994792  1
  S  S23  1  0.82696262  0.00846658  0.10215545  1
  S  S24  1  0.10718770  0.49188802  0.66305624  1
  S  S25  1  0.89548488  0.42560447  0.34880961  1
  S  S26  1  0.73851286  0.02357103  0.31198212  1
  S  S27  1  0.26471365  0.92722850  0.68754736  1
  S  S28  1  0.16346809  0.52808071  0.43894169  1
  S  S29  1  0.81693642  0.45194665  0.54759808  1
  S  S30  1  0.43885725  0.44708418  0.80164105  1
  S  S31  1  0.56449910  0.49359765  0.18083390  1
  S  S32  1  0.91121878  0.48808351  0.99121892  1
  S  S33  1  0.08141312  0.47357442  0.02116108  1
  S  S34  1  0.66654470  0.53662384  0.88580302  1
  S  S35  1  0.33532075  0.47429148  0.11484662  1
  S  S36  1  0.60625103  0.03225297  0.65396312  1
  S  S37  1  0.39891689  0.06214852  0.33299764  1
  S  S38  1  0.24133332  0.57800179  0.31813611  1
  S  S39  1  0.76635509  0.51092223  0.68801388  1
  S  S40  1  0.66559143  0.96307142  0.45553013  1
  S  S41  1  0.33158421  0.93088420  0.55330890  1
