# generated using pymatgen
data_Pr2Mn3(SbS3)4
_symmetry_space_group_name_H-M   'P 1'
_cell_length_a   20.02960800
_cell_length_b   3.90410600
_cell_length_c   14.95364829
_cell_angle_alpha   90.00000000
_cell_angle_beta   126.33350609
_cell_angle_gamma   90.00000000
_symmetry_Int_Tables_number   1
_chemical_formula_structural   Pr2Mn3(SbS3)4
_chemical_formula_sum   'Pr4 Mn6 Sb8 S24'
_cell_volume   942.00006694
_cell_formula_units_Z   2
loop_
 _symmetry_equiv_pos_site_id
 _symmetry_equiv_pos_as_xyz
  1  'x, y, z'
loop_
 _atom_site_type_symbol
 _atom_site_label
 _atom_site_symmetry_multiplicity
 _atom_site_fract_x
 _atom_site_fract_y
 _atom_site_fract_z
 _atom_site_occupancy
  Pr  Pr0  1  0.26935431  0.46938521  0.88835617  1
  Pr  Pr1  1  0.72861399  0.50738439  0.13737803  1
  Pr  Pr2  1  0.76067210  0.04565216  0.86675974  1
  Pr  Pr3  1  0.23241097  0.91982509  0.12767271  1
  Mn  Mn4  1  0.29290783  0.42812041  0.59725971  1
  Mn  Mn5  1  0.69673383  0.50992262  0.36405769  1
  Mn  Mn6  1  0.00797358  0.96115042  0.01363936  1
  Mn  Mn7  1  0.80131163  0.97786698  0.63575501  1
  Mn  Mn8  1  0.20891707  0.06470799  0.39430352  1
  Mn  Mn9  1  0.48414246  0.46187212  0.98448146  1
  Sb  Sb10  1  0.89164820  0.90831954  0.45908382  1
  Sb  Sb11  1  0.11388517  0.97882164  0.54687662  1
  Sb  Sb12  1  0.03439313  0.51396387  0.82488859  1
  Sb  Sb13  1  0.96464467  0.46100215  0.20416491  1
  Sb  Sb14  1  0.40476479  0.57184850  0.44981007  1
  Sb  Sb15  1  0.60553044  0.52045545  0.53903301  1
  Sb  Sb16  1  0.51951364  0.96936412  0.78671992  1
  Sb  Sb17  1  0.47430477  0.01837658  0.18250176  1
  S  S18  1  0.93461165  0.99946846  0.79547537  1
  S  S19  1  0.05624703  0.00214622  0.19866876  1
  S  S20  1  0.41005522  0.97147777  0.97106857  1
  S  S21  1  0.58445584  0.01732391  0.01000848  1
  S  S22  1  0.17246594  0.96488437  0.89963341  1
  S  S23  1  0.82694343  0.00959464  0.10230441  1
  S  S24  1  0.10710760  0.49125708  0.66285543  1
  S  S25  1  0.89548090  0.42547248  0.34883498  1
  S  S26  1  0.73816939  0.02320438  0.31162008  1
  S  S27  1  0.26461950  0.92862508  0.68733992  1
  S  S28  1  0.16332083  0.52606501  0.43884922  1
  S  S29  1  0.81697689  0.45352239  0.54759326  1
  S  S30  1  0.43862567  0.44731185  0.80141507  1
  S  S31  1  0.56451979  0.49446002  0.18092405  1
  S  S32  1  0.91105613  0.48809209  0.99099277  1
  S  S33  1  0.08136175  0.47290740  0.02129411  1
  S  S34  1  0.66654444  0.53721248  0.88589997  1
  S  S35  1  0.33534339  0.47482023  0.11487641  1
  S  S36  1  0.60621900  0.03226016  0.65429875  1
  S  S37  1  0.39920355  0.06153034  0.33321150  1
  S  S38  1  0.24145395  0.57704000  0.31823112  1
  S  S39  1  0.76639091  0.51154458  0.68812237  1
  S  S40  1  0.66559187  0.96488160  0.45573718  1
  S  S41  1  0.33154731  0.93170086  0.55312836  1
