# generated using pymatgen
data_Pr2Mn3(SbS3)4
_symmetry_space_group_name_H-M   'P 1'
_cell_length_a   20.02960800
_cell_length_b   3.90410600
_cell_length_c   14.95364829
_cell_angle_alpha   90.00000000
_cell_angle_beta   126.33350609
_cell_angle_gamma   90.00000000
_symmetry_Int_Tables_number   1
_chemical_formula_structural   Pr2Mn3(SbS3)4
_chemical_formula_sum   'Pr4 Mn6 Sb8 S24'
_cell_volume   942.00006694
_cell_formula_units_Z   2
loop_
 _symmetry_equiv_pos_site_id
 _symmetry_equiv_pos_as_xyz
  1  'x, y, z'
loop_
 _atom_site_type_symbol
 _atom_site_label
 _atom_site_symmetry_multiplicity
 _atom_site_fract_x
 _atom_site_fract_y
 _atom_site_fract_z
 _atom_site_occupancy
  Pr  Pr0  1  0.26943148  0.46907714  0.88845431  1
  Pr  Pr1  1  0.72842957  0.50685991  0.13718532  1
  Pr  Pr2  1  0.76063175  0.04607988  0.86675192  1
  Pr  Pr3  1  0.23238263  0.91995040  0.12763972  1
  Mn  Mn4  1  0.29322099  0.42882818  0.59774058  1
  Mn  Mn5  1  0.69656580  0.50999842  0.36405980  1
  Mn  Mn6  1  0.00786713  0.96092014  0.01388263  1
  Mn  Mn7  1  0.80129610  0.97770723  0.63562976  1
  Mn  Mn8  1  0.20892566  0.06426744  0.39416973  1
  Mn  Mn9  1  0.48411110  0.46089265  0.98430872  1
  Sb  Sb10  1  0.89160679  0.90805034  0.45912824  1
  Sb  Sb11  1  0.11382235  0.97888473  0.54670885  1
  Sb  Sb12  1  0.03442788  0.51368618  0.82483489  1
  Sb  Sb13  1  0.96457200  0.46120520  0.20411826  1
  Sb  Sb14  1  0.40480008  0.57226812  0.44968954  1
  Sb  Sb15  1  0.60544037  0.52025926  0.53904702  1
  Sb  Sb16  1  0.51940909  0.96925437  0.78660477  1
  Sb  Sb17  1  0.47420825  0.01808825  0.18238697  1
  S  S18  1  0.93435290  0.99863198  0.79535530  1
  S  S19  1  0.05643894  0.00338798  0.19893077  1
  S  S20  1  0.41044972  0.97231905  0.97144280  1
  S  S21  1  0.58446828  0.01792066  0.01003070  1
  S  S22  1  0.17238210  0.96534056  0.89933939  1
  S  S23  1  0.82695219  0.00995650  0.10255120  1
  S  S24  1  0.10718992  0.49072966  0.66276314  1
  S  S25  1  0.89546860  0.42509105  0.34900186  1
  S  S26  1  0.73778808  0.02283393  0.31124339  1
  S  S27  1  0.26441811  0.92989597  0.68710056  1
  S  S28  1  0.16331977  0.52470966  0.43888492  1
  S  S29  1  0.81705015  0.45529238  0.54758587  1
  S  S30  1  0.43837438  0.44778196  0.80121679  1
  S  S31  1  0.56454560  0.49498968  0.18109449  1
  S  S32  1  0.91088959  0.48780508  0.99080720  1
  S  S33  1  0.08127652  0.47157905  0.02142995  1
  S  S34  1  0.66656074  0.53791824  0.88604388  1
  S  S35  1  0.33539935  0.47498060  0.11494191  1
  S  S36  1  0.60626430  0.03264368  0.65448181  1
  S  S37  1  0.39959804  0.06095964  0.33346741  1
  S  S38  1  0.24150988  0.57631791  0.31825863  1
  S  S39  1  0.76636803  0.51201165  0.68822488  1
  S  S40  1  0.66569304  0.96673474  0.45586685  1
  S  S41  1  0.33149309  0.93281835  0.55299834  1
