# generated using pymatgen
data_Pr2Mn3(SbS3)4
_symmetry_space_group_name_H-M   'P 1'
_cell_length_a   20.02960800
_cell_length_b   3.90410600
_cell_length_c   14.95364829
_cell_angle_alpha   90.00000000
_cell_angle_beta   126.33350609
_cell_angle_gamma   90.00000000
_symmetry_Int_Tables_number   1
_chemical_formula_structural   Pr2Mn3(SbS3)4
_chemical_formula_sum   'Pr4 Mn6 Sb8 S24'
_cell_volume   942.00006694
_cell_formula_units_Z   2
loop_
 _symmetry_equiv_pos_site_id
 _symmetry_equiv_pos_as_xyz
  1  'x, y, z'
loop_
 _atom_site_type_symbol
 _atom_site_label
 _atom_site_symmetry_multiplicity
 _atom_site_fract_x
 _atom_site_fract_y
 _atom_site_fract_z
 _atom_site_occupancy
  Pr  Pr0  1  0.26949862  0.46888695  0.88854088  1
  Pr  Pr1  1  0.72826524  0.50626481  0.13700758  1
  Pr  Pr2  1  0.76063088  0.04650387  0.86680146  1
  Pr  Pr3  1  0.23236631  0.91996677  0.12762948  1
  Mn  Mn4  1  0.29352628  0.42918767  0.59812379  1
  Mn  Mn5  1  0.69645747  0.51002615  0.36409961  1
  Mn  Mn6  1  0.00768393  0.96072036  0.01404291  1
  Mn  Mn7  1  0.80130014  0.97724496  0.63546753  1
  Mn  Mn8  1  0.20883601  0.06363846  0.39400101  1
  Mn  Mn9  1  0.48401149  0.46017302  0.98412259  1
  Sb  Sb10  1  0.89156894  0.90766715  0.45914425  1
  Sb  Sb11  1  0.11379220  0.97884470  0.54656156  1
  Sb  Sb12  1  0.03439418  0.51384157  0.82470138  1
  Sb  Sb13  1  0.96454957  0.46157139  0.20410303  1
  Sb  Sb14  1  0.40488897  0.57266195  0.44960920  1
  Sb  Sb15  1  0.60540791  0.52043185  0.53905911  1
  Sb  Sb16  1  0.51932267  0.96903169  0.78658805  1
  Sb  Sb17  1  0.47415381  0.01767867  0.18232515  1
  S  S18  1  0.93418125  0.99780390  0.79530484  1
  S  S19  1  0.05652092  0.00393718  0.19904865  1
  S  S20  1  0.41080751  0.97310320  0.97178093  1
  S  S21  1  0.58449417  0.01873885  0.01012481  1
  S  S22  1  0.17232357  0.96605961  0.89917593  1
  S  S23  1  0.82703617  0.00996067  0.10280112  1
  S  S24  1  0.10731141  0.49081690  0.66273227  1
  S  S25  1  0.89540251  0.42505220  0.34903770  1
  S  S26  1  0.73749705  0.02309587  0.31088519  1
  S  S27  1  0.26427775  0.93046142  0.68690802  1
  S  S28  1  0.16346008  0.52382982  0.43896055  1
  S  S29  1  0.81708633  0.45738459  0.54762666  1
  S  S30  1  0.43825501  0.44859615  0.80108996  1
  S  S31  1  0.56460824  0.49560279  0.18131616  1
  S  S32  1  0.91082976  0.48713740  0.99073508  1
  S  S33  1  0.08116410  0.47005039  0.02165117  1
  S  S34  1  0.66667718  0.53838461  0.88623041  1
  S  S35  1  0.33539467  0.47499467  0.11499609  1
  S  S36  1  0.60623655  0.03260755  0.65444520  1
  S  S37  1  0.40001713  0.06034777  0.33374074  1
  S  S38  1  0.24165227  0.57548728  0.31838499  1
  S  S39  1  0.76636776  0.51241705  0.68831790  1
  S  S40  1  0.66581100  0.96828901  0.45611847  1
  S  S41  1  0.33140699  0.93357346  0.55297130  1
