# generated using pymatgen
data_Pr2Mn3(SbS3)4
_symmetry_space_group_name_H-M   'P 1'
_cell_length_a   20.02960800
_cell_length_b   3.90410600
_cell_length_c   14.95364829
_cell_angle_alpha   90.00000000
_cell_angle_beta   126.33350609
_cell_angle_gamma   90.00000000
_symmetry_Int_Tables_number   1
_chemical_formula_structural   Pr2Mn3(SbS3)4
_chemical_formula_sum   'Pr4 Mn6 Sb8 S24'
_cell_volume   942.00006694
_cell_formula_units_Z   2
loop_
 _symmetry_equiv_pos_site_id
 _symmetry_equiv_pos_as_xyz
  1  'x, y, z'
loop_
 _atom_site_type_symbol
 _atom_site_label
 _atom_site_symmetry_multiplicity
 _atom_site_fract_x
 _atom_site_fract_y
 _atom_site_fract_z
 _atom_site_occupancy
  Pr  Pr0  1  0.26951205  0.46884029  0.88860814  1
  Pr  Pr1  1  0.72810081  0.50578500  0.13690631  1
  Pr  Pr2  1  0.76066566  0.04685212  0.86684605  1
  Pr  Pr3  1  0.23237908  0.91991509  0.12761079  1
  Mn  Mn4  1  0.29372011  0.42981272  0.59841498  1
  Mn  Mn5  1  0.69637679  0.50976208  0.36410918  1
  Mn  Mn6  1  0.00745908  0.95996492  0.01416658  1
  Mn  Mn7  1  0.80131357  0.97703715  0.63533201  1
  Mn  Mn8  1  0.20875949  0.06331686  0.39386124  1
  Mn  Mn9  1  0.48385684  0.45986752  0.98397078  1
  Sb  Sb10  1  0.89155747  0.90723501  0.45919771  1
  Sb  Sb11  1  0.11373920  0.97893640  0.54636251  1
  Sb  Sb12  1  0.03436978  0.51415139  0.82462237  1
  Sb  Sb13  1  0.96453621  0.46176764  0.20416810  1
  Sb  Sb14  1  0.40497146  0.57299171  0.44954778  1
  Sb  Sb15  1  0.60534203  0.52079185  0.53904015  1
  Sb  Sb16  1  0.51935607  0.96889857  0.78672277  1
  Sb  Sb17  1  0.47415064  0.01729606  0.18223374  1
  S  S18  1  0.93405622  0.99680763  0.79528578  1
  S  S19  1  0.05666353  0.00490005  0.19917758  1
  S  S20  1  0.41110275  0.97389819  0.97211483  1
  S  S21  1  0.58449200  0.01895744  0.01000941  1
  S  S22  1  0.17227616  0.96632018  0.89903032  1
  S  S23  1  0.82699149  0.01058498  0.10291618  1
  S  S24  1  0.10728941  0.49140652  0.66273204  1
  S  S25  1  0.89544910  0.42511012  0.34919091  1
  S  S26  1  0.73731841  0.02296915  0.31066602  1
  S  S27  1  0.26407635  0.93048862  0.68677762  1
  S  S28  1  0.16359333  0.52271413  0.43895939  1
  S  S29  1  0.81713006  0.45909916  0.54771043  1
  S  S30  1  0.43807013  0.44963685  0.80105823  1
  S  S31  1  0.56457916  0.49643823  0.18142055  1
  S  S32  1  0.91064631  0.48675584  0.99058694  1
  S  S33  1  0.08114550  0.46880630  0.02200213  1
  S  S34  1  0.66681381  0.53907940  0.88656043  1
  S  S35  1  0.33539814  0.47467832  0.11503218  1
  S  S36  1  0.60618711  0.03207962  0.65431655  1
  S  S37  1  0.40027834  0.05977239  0.33395596  1
  S  S38  1  0.24167256  0.57454204  0.31847658  1
  S  S39  1  0.76632907  0.51238590  0.68817633  1
  S  S40  1  0.66597501  0.96919302  0.45644700  1
  S  S41  1  0.33138273  0.93496540  0.55294989  1
