# generated using pymatgen
data_Pr2Mn3(SbS3)4
_symmetry_space_group_name_H-M   'P 1'
_cell_length_a   20.02960800
_cell_length_b   3.90410600
_cell_length_c   14.95364829
_cell_angle_alpha   90.00000000
_cell_angle_beta   126.33350609
_cell_angle_gamma   90.00000000
_symmetry_Int_Tables_number   1
_chemical_formula_structural   Pr2Mn3(SbS3)4
_chemical_formula_sum   'Pr4 Mn6 Sb8 S24'
_cell_volume   942.00006694
_cell_formula_units_Z   2
loop_
 _symmetry_equiv_pos_site_id
 _symmetry_equiv_pos_as_xyz
  1  'x, y, z'
loop_
 _atom_site_type_symbol
 _atom_site_label
 _atom_site_symmetry_multiplicity
 _atom_site_fract_x
 _atom_site_fract_y
 _atom_site_fract_z
 _atom_site_occupancy
  Pr  Pr0  1  0.26951564  0.46889986  0.88864303  1
  Pr  Pr1  1  0.72796243  0.50527681  0.13682274  1
  Pr  Pr2  1  0.76071850  0.04739544  0.86692903  1
  Pr  Pr3  1  0.23246024  0.91982177  0.12766691  1
  Mn  Mn4  1  0.29390305  0.43013855  0.59878165  1
  Mn  Mn5  1  0.69624685  0.50944019  0.36409233  1
  Mn  Mn6  1  0.00715297  0.95929947  0.01420360  1
  Mn  Mn7  1  0.80129958  0.97709459  0.63526739  1
  Mn  Mn8  1  0.20877420  0.06332114  0.39380983  1
  Mn  Mn9  1  0.48370447  0.45967115  0.98395052  1
  Sb  Sb10  1  0.89149591  0.90669351  0.45921877  1
  Sb  Sb11  1  0.11368112  0.97908664  0.54616831  1
  Sb  Sb12  1  0.03429552  0.51456047  0.82452881  1
  Sb  Sb13  1  0.96449316  0.46189579  0.20418049  1
  Sb  Sb14  1  0.40510000  0.57344775  0.44958447  1
  Sb  Sb15  1  0.60528580  0.52118983  0.53911113  1
  Sb  Sb16  1  0.51936481  0.96852964  0.78680786  1
  Sb  Sb17  1  0.47408140  0.01666159  0.18210973  1
  S  S18  1  0.93401467  0.99561128  0.79529933  1
  S  S19  1  0.05668656  0.00566949  0.19934598  1
  S  S20  1  0.41133867  0.97461868  0.97241215  1
  S  S21  1  0.58449659  0.01943182  0.00973117  1
  S  S22  1  0.17222298  0.96649172  0.89891543  1
  S  S23  1  0.82691715  0.01179259  0.10305260  1
  S  S24  1  0.10733249  0.49136539  0.66266304  1
  S  S25  1  0.89549743  0.42493084  0.34933911  1
  S  S26  1  0.73712391  0.02273015  0.31045998  1
  S  S27  1  0.26394782  0.93049014  0.68658777  1
  S  S28  1  0.16376834  0.52232452  0.43912310  1
  S  S29  1  0.81716741  0.46063345  0.54784511  1
  S  S30  1  0.43795429  0.45075357  0.80111467  1
  S  S31  1  0.56451681  0.49743912  0.18144804  1
  S  S32  1  0.91060119  0.48591222  0.99058877  1
  S  S33  1  0.08109473  0.46765392  0.02227907  1
  S  S34  1  0.66690380  0.54026411  0.88676206  1
  S  S35  1  0.33525252  0.47439228  0.11504084  1
  S  S36  1  0.60610391  0.03179878  0.65407794  1
  S  S37  1  0.40055918  0.05920856  0.33413387  1
  S  S38  1  0.24173634  0.57332190  0.31852281  1
  S  S39  1  0.76618950  0.51252475  0.68817621  1
  S  S40  1  0.66615574  0.96999025  0.45677639  1
  S  S41  1  0.33134884  0.93607800  0.55294016  1
