# generated using pymatgen
data_Pr2Mn3(SbS3)4
_symmetry_space_group_name_H-M   'P 1'
_cell_length_a   20.02960800
_cell_length_b   3.90410600
_cell_length_c   14.95364829
_cell_angle_alpha   90.00000000
_cell_angle_beta   126.33350609
_cell_angle_gamma   90.00000000
_symmetry_Int_Tables_number   1
_chemical_formula_structural   Pr2Mn3(SbS3)4
_chemical_formula_sum   'Pr4 Mn6 Sb8 S24'
_cell_volume   942.00006694
_cell_formula_units_Z   2
loop_
 _symmetry_equiv_pos_site_id
 _symmetry_equiv_pos_as_xyz
  1  'x, y, z'
loop_
 _atom_site_type_symbol
 _atom_site_label
 _atom_site_symmetry_multiplicity
 _atom_site_fract_x
 _atom_site_fract_y
 _atom_site_fract_z
 _atom_site_occupancy
  Pr  Pr0  1  0.26952652  0.46888806  0.88871251  1
  Pr  Pr1  1  0.72787464  0.50503060  0.13678497  1
  Pr  Pr2  1  0.76080172  0.04787165  0.86707013  1
  Pr  Pr3  1  0.23252983  0.91988165  0.12763990  1
  Mn  Mn4  1  0.29413356  0.43052746  0.59923870  1
  Mn  Mn5  1  0.69612912  0.50912049  0.36407681  1
  Mn  Mn6  1  0.00691093  0.95855677  0.01421164  1
  Mn  Mn7  1  0.80131145  0.97697087  0.63513332  1
  Mn  Mn8  1  0.20878506  0.06325828  0.39375573  1
  Mn  Mn9  1  0.48357546  0.45972057  0.98393902  1
  Sb  Sb10  1  0.89144948  0.90594566  0.45923543  1
  Sb  Sb11  1  0.11363175  0.97928352  0.54599669  1
  Sb  Sb12  1  0.03427145  0.51482256  0.82448182  1
  Sb  Sb13  1  0.96444127  0.46198956  0.20423337  1
  Sb  Sb14  1  0.40523754  0.57379202  0.44959087  1
  Sb  Sb15  1  0.60525414  0.52139514  0.53921385  1
  Sb  Sb16  1  0.51940853  0.96828510  0.78699072  1
  Sb  Sb17  1  0.47401175  0.01618240  0.18207633  1
  S  S18  1  0.93400419  0.99424095  0.79532699  1
  S  S19  1  0.05666791  0.00610558  0.19949976  1
  S  S20  1  0.41153630  0.97530867  0.97266105  1
  S  S21  1  0.58448537  0.01932017  0.00932519  1
  S  S22  1  0.17229573  0.96656242  0.89882783  1
  S  S23  1  0.82689770  0.01297872  0.10323516  1
  S  S24  1  0.10737415  0.49138582  0.66248279  1
  S  S25  1  0.89536076  0.42483062  0.34932980  1
  S  S26  1  0.73701910  0.02249620  0.31032578  1
  S  S27  1  0.26384452  0.93066842  0.68640626  1
  S  S28  1  0.16382151  0.52220737  0.43910650  1
  S  S29  1  0.81731164  0.46225773  0.54796089  1
  S  S30  1  0.43779801  0.45214603  0.80110124  1
  S  S31  1  0.56440989  0.49832978  0.18153498  1
  S  S32  1  0.91057601  0.48549423  0.99043132  1
  S  S33  1  0.08113928  0.46631258  0.02269159  1
  S  S34  1  0.66690602  0.54158141  0.88685286  1
  S  S35  1  0.33525744  0.47391604  0.11521463  1
  S  S36  1  0.60604462  0.03131359  0.65385860  1
  S  S37  1  0.40071857  0.05804734  0.33424244  1
  S  S38  1  0.24192942  0.57237990  0.31877132  1
  S  S39  1  0.76601967  0.51207779  0.68819623  1
  S  S40  1  0.66617445  0.97067146  0.45695976  1
  S  S41  1  0.33120722  0.93703468  0.55291339  1
