# generated using pymatgen
data_Pr2Mn3(SbS3)4
_symmetry_space_group_name_H-M   'P 1'
_cell_length_a   20.02960800
_cell_length_b   3.90410600
_cell_length_c   14.95364829
_cell_angle_alpha   90.00000000
_cell_angle_beta   126.33350609
_cell_angle_gamma   90.00000000
_symmetry_Int_Tables_number   1
_chemical_formula_structural   Pr2Mn3(SbS3)4
_chemical_formula_sum   'Pr4 Mn6 Sb8 S24'
_cell_volume   942.00006694
_cell_formula_units_Z   2
loop_
 _symmetry_equiv_pos_site_id
 _symmetry_equiv_pos_as_xyz
  1  'x, y, z'
loop_
 _atom_site_type_symbol
 _atom_site_label
 _atom_site_symmetry_multiplicity
 _atom_site_fract_x
 _atom_site_fract_y
 _atom_site_fract_z
 _atom_site_occupancy
  Pr  Pr0  1  0.26472673  0.48184415  0.87032806  1
  Pr  Pr1  1  0.73743975  0.50999554  0.13617370  1
  Pr  Pr2  1  0.76154673  0.00914505  0.86102072  1
  Pr  Pr3  1  0.23685716  0.99884521  0.13969028  1
  Mn  Mn4  1  0.29569881  0.49518188  0.61015194  1
  Mn  Mn5  1  0.69516241  0.52092976  0.37918317  1
  Mn  Mn6  1  0.00369455  0.00221986  0.00101484  1
  Mn  Mn7  1  0.80296540  0.98924694  0.61640250  1
  Mn  Mn8  1  0.19683530  0.97691058  0.37942487  1
  Mn  Mn9  1  0.50285796  0.47454788  0.99510911  1
  Sb  Sb10  1  0.89311315  0.00357050  0.45465923  1
  Sb  Sb11  1  0.11212212  0.97086064  0.55273509  1
  Sb  Sb12  1  0.04008460  0.50146022  0.81641283  1
  Sb  Sb13  1  0.96256061  0.53073429  0.18772086  1
  Sb  Sb14  1  0.39823442  0.49987912  0.45733461  1
  Sb  Sb15  1  0.60662014  0.48928244  0.54815684  1
  Sb  Sb16  1  0.53604843  0.00829166  0.81403029  1
  Sb  Sb17  1  0.46227514  0.00537593  0.18203223  1
  S  S18  1  0.93606547  0.97678873  0.79731744  1
  S  S19  1  0.06505992  0.98962796  0.19294995  1
  S  S20  1  0.40997422  0.00859070  0.97927759  1
  S  S21  1  0.59226073  0.99432374  0.02206386  1
  S  S22  1  0.17244484  0.99005970  0.89647455  1
  S  S23  1  0.82694237  0.01957582  0.10096828  1
  S  S24  1  0.08538358  0.45533469  0.64524802  1
  S  S25  1  0.91400503  0.49062435  0.36077154  1
  S  S26  1  0.74304427  0.94739431  0.29977636  1
  S  S27  1  0.25775775  0.00270905  0.70165019  1
  S  S28  1  0.16494202  0.48457384  0.44404231  1
  S  S29  1  0.83025919  0.47467497  0.54970037  1
  S  S30  1  0.43185164  0.50874970  0.80034774  1
  S  S31  1  0.56205583  0.52589305  0.19186147  1
  S  S32  1  0.90285913  0.49247791  0.97788415  1
  S  S33  1  0.08626172  0.49325203  0.01787877  1
  S  S34  1  0.66431875  0.50554461  0.89212485  1
  S  S35  1  0.32927459  0.52803266  0.10144908  1
  S  S36  1  0.58931238  0.00425242  0.64669730  1
  S  S37  1  0.40954315  0.95993930  0.35163909  1
  S  S38  1  0.24337253  0.48710088  0.30449433  1
  S  S39  1  0.76008086  0.49733516  0.69728625  1
  S  S40  1  0.67254973  0.01098285  0.46344100  1
  S  S41  1  0.33076322  0.98719818  0.54185472  1
