# generated using pymatgen
data_Pr2Mn3(SbS3)4
_symmetry_space_group_name_H-M   'P 1'
_cell_length_a   20.02960800
_cell_length_b   3.90410600
_cell_length_c   14.95364829
_cell_angle_alpha   90.00000000
_cell_angle_beta   126.33350609
_cell_angle_gamma   90.00000000
_symmetry_Int_Tables_number   1
_chemical_formula_structural   Pr2Mn3(SbS3)4
_chemical_formula_sum   'Pr4 Mn6 Sb8 S24'
_cell_volume   942.00006694
_cell_formula_units_Z   2
loop_
 _symmetry_equiv_pos_site_id
 _symmetry_equiv_pos_as_xyz
  1  'x, y, z'
loop_
 _atom_site_type_symbol
 _atom_site_label
 _atom_site_symmetry_multiplicity
 _atom_site_fract_x
 _atom_site_fract_y
 _atom_site_fract_z
 _atom_site_occupancy
  Pr  Pr0  1  0.26955241  0.46879966  0.88873305  1
  Pr  Pr1  1  0.72780648  0.50474584  0.13670641  1
  Pr  Pr2  1  0.76090148  0.04837461  0.86729560  1
  Pr  Pr3  1  0.23257538  0.91969530  0.12761687  1
  Mn  Mn4  1  0.29424894  0.43079652  0.59956173  1
  Mn  Mn5  1  0.69596893  0.50905815  0.36394781  1
  Mn  Mn6  1  0.00666558  0.95817384  0.01415493  1
  Mn  Mn7  1  0.80135818  0.97640720  0.63498709  1
  Mn  Mn8  1  0.20875871  0.06306565  0.39361827  1
  Mn  Mn9  1  0.48346693  0.45995745  0.98403302  1
  Sb  Sb10  1  0.89146126  0.90519352  0.45934957  1
  Sb  Sb11  1  0.11361618  0.97947475  0.54596970  1
  Sb  Sb12  1  0.03430357  0.51508119  0.82450292  1
  Sb  Sb13  1  0.96435996  0.46211674  0.20427405  1
  Sb  Sb14  1  0.40537753  0.57399608  0.44957907  1
  Sb  Sb15  1  0.60520484  0.52160613  0.53927387  1
  Sb  Sb16  1  0.51936487  0.96799487  0.78710198  1
  Sb  Sb17  1  0.47393637  0.01584532  0.18200887  1
  S  S18  1  0.93392218  0.99295153  0.79526484  1
  S  S19  1  0.05675473  0.00659010  0.19985559  1
  S  S20  1  0.41175257  0.97568932  0.97296148  1
  S  S21  1  0.58445488  0.01891530  0.00889214  1
  S  S22  1  0.17243670  0.96733728  0.89886545  1
  S  S23  1  0.82700734  0.01378195  0.10354298  1
  S  S24  1  0.10739963  0.49131404  0.66227360  1
  S  S25  1  0.89507814  0.42481328  0.34922359  1
  S  S26  1  0.73689432  0.02200917  0.31006302  1
  S  S27  1  0.26373309  0.93110430  0.68607030  1
  S  S28  1  0.16387009  0.52171637  0.43911071  1
  S  S29  1  0.81743527  0.46396568  0.54818634  1
  S  S30  1  0.43762376  0.45322893  0.80104251  1
  S  S31  1  0.56439009  0.49901708  0.18168917  1
  S  S32  1  0.91054357  0.48507704  0.99040316  1
  S  S33  1  0.08116740  0.46482930  0.02311671  1
  S  S34  1  0.66682538  0.54303647  0.88690641  1
  S  S35  1  0.33535184  0.47374039  0.11535101  1
  S  S36  1  0.60594911  0.03064753  0.65360422  1
  S  S37  1  0.40078479  0.05689743  0.33431571  1
  S  S38  1  0.24216730  0.57130881  0.31899923  1
  S  S39  1  0.76587557  0.51166192  0.68818334  1
  S  S40  1  0.66623221  0.97153274  0.45717398  1
  S  S41  1  0.33109859  0.93779672  0.55297596  1
