# generated using pymatgen
data_Pr2Mn3(SbS3)4
_symmetry_space_group_name_H-M   'P 1'
_cell_length_a   20.02960800
_cell_length_b   3.90410600
_cell_length_c   14.95364829
_cell_angle_alpha   90.00000000
_cell_angle_beta   126.33350609
_cell_angle_gamma   90.00000000
_symmetry_Int_Tables_number   1
_chemical_formula_structural   Pr2Mn3(SbS3)4
_chemical_formula_sum   'Pr4 Mn6 Sb8 S24'
_cell_volume   942.00006694
_cell_formula_units_Z   2
loop_
 _symmetry_equiv_pos_site_id
 _symmetry_equiv_pos_as_xyz
  1  'x, y, z'
loop_
 _atom_site_type_symbol
 _atom_site_label
 _atom_site_symmetry_multiplicity
 _atom_site_fract_x
 _atom_site_fract_y
 _atom_site_fract_z
 _atom_site_occupancy
  Pr  Pr0  1  0.26954095  0.46870647  0.88873678  1
  Pr  Pr1  1  0.72771429  0.50434880  0.13658361  1
  Pr  Pr2  1  0.76097835  0.04889596  0.86747775  1
  Pr  Pr3  1  0.23264221  0.91977589  0.12762470  1
  Mn  Mn4  1  0.29437872  0.43090081  0.59991921  1
  Mn  Mn5  1  0.69572983  0.50900552  0.36382399  1
  Mn  Mn6  1  0.00642751  0.95784688  0.01403015  1
  Mn  Mn7  1  0.80134785  0.97593152  0.63474512  1
  Mn  Mn8  1  0.20870237  0.06269868  0.39354945  1
  Mn  Mn9  1  0.48344325  0.45996440  0.98433371  1
  Sb  Sb10  1  0.89146641  0.90471676  0.45944476  1
  Sb  Sb11  1  0.11363231  0.97956479  0.54594678  1
  Sb  Sb12  1  0.03426287  0.51526892  0.82450320  1
  Sb  Sb13  1  0.96432768  0.46216316  0.20441472  1
  Sb  Sb14  1  0.40554463  0.57425877  0.44963076  1
  Sb  Sb15  1  0.60514705  0.52173432  0.53932354  1
  Sb  Sb16  1  0.51934150  0.96784196  0.78727544  1
  Sb  Sb17  1  0.47381371  0.01556804  0.18190752  1
  S  S18  1  0.93386184  0.99195347  0.79524140  1
  S  S19  1  0.05672517  0.00664186  0.20005694  1
  S  S20  1  0.41191419  0.97600914  0.97330010  1
  S  S21  1  0.58442701  0.01851276  0.00842819  1
  S  S22  1  0.17251664  0.96814668  0.89887502  1
  S  S23  1  0.82705225  0.01429931  0.10384596  1
  S  S24  1  0.10731460  0.49120181  0.66192952  1
  S  S25  1  0.89493353  0.42477890  0.34919617  1
  S  S26  1  0.73684213  0.02154291  0.30988624  1
  S  S27  1  0.26369186  0.93115557  0.68581794  1
  S  S28  1  0.16400060  0.52131504  0.43917869  1
  S  S29  1  0.81759652  0.46556121  0.54849205  1
  S  S30  1  0.43751455  0.45475162  0.80088806  1
  S  S31  1  0.56444508  0.49947454  0.18193018  1
  S  S32  1  0.91057934  0.48448414  0.99042408  1
  S  S33  1  0.08127040  0.46385264  0.02368816  1
  S  S34  1  0.66665954  0.54429551  0.88674385  1
  S  S35  1  0.33532689  0.47380489  0.11538478  1
  S  S36  1  0.60581067  0.02960658  0.65335271  1
  S  S37  1  0.40081795  0.05610935  0.33435811  1
  S  S38  1  0.24234434  0.56991913  0.31934404  1
  S  S39  1  0.76581563  0.51121318  0.68827865  1
  S  S40  1  0.66627830  0.97190368  0.45729881  1
  S  S41  1  0.33093714  0.93851621  0.55285508  1
