# generated using pymatgen
data_Pr2Mn3(SbS3)4
_symmetry_space_group_name_H-M   'P 1'
_cell_length_a   20.02960800
_cell_length_b   3.90410600
_cell_length_c   14.95364829
_cell_angle_alpha   90.00000000
_cell_angle_beta   126.33350609
_cell_angle_gamma   90.00000000
_symmetry_Int_Tables_number   1
_chemical_formula_structural   Pr2Mn3(SbS3)4
_chemical_formula_sum   'Pr4 Mn6 Sb8 S24'
_cell_volume   942.00006694
_cell_formula_units_Z   2
loop_
 _symmetry_equiv_pos_site_id
 _symmetry_equiv_pos_as_xyz
  1  'x, y, z'
loop_
 _atom_site_type_symbol
 _atom_site_label
 _atom_site_symmetry_multiplicity
 _atom_site_fract_x
 _atom_site_fract_y
 _atom_site_fract_z
 _atom_site_occupancy
  Pr  Pr0  1  0.26950808  0.46877172  0.88872248  1
  Pr  Pr1  1  0.72763575  0.50394512  0.13645513  1
  Pr  Pr2  1  0.76102586  0.04964688  0.86764356  1
  Pr  Pr3  1  0.23271415  0.91991325  0.12767428  1
  Mn  Mn4  1  0.29456955  0.43097871  0.60028762  1
  Mn  Mn5  1  0.69549333  0.50924177  0.36375748  1
  Mn  Mn6  1  0.00623271  0.95729235  0.01395751  1
  Mn  Mn7  1  0.80127899  0.97610092  0.63439303  1
  Mn  Mn8  1  0.20861743  0.06222097  0.39363483  1
  Mn  Mn9  1  0.48346910  0.45961051  0.98464113  1
  Sb  Sb10  1  0.89154275  0.90407651  0.45955919  1
  Sb  Sb11  1  0.11364963  0.97974222  0.54591288  1
  Sb  Sb12  1  0.03418375  0.51538519  0.82451294  1
  Sb  Sb13  1  0.96429163  0.46217244  0.20454041  1
  Sb  Sb14  1  0.40570966  0.57468337  0.44969241  1
  Sb  Sb15  1  0.60510525  0.52203871  0.53932740  1
  Sb  Sb16  1  0.51932256  0.96755295  0.78743038  1
  Sb  Sb17  1  0.47375109  0.01534803  0.18181501  1
  S  S18  1  0.93380758  0.99097679  0.79517546  1
  S  S19  1  0.05672438  0.00603691  0.20035274  1
  S  S20  1  0.41199531  0.97679771  0.97357574  1
  S  S21  1  0.58437814  0.01771130  0.00802902  1
  S  S22  1  0.17251434  0.96890011  0.89889420  1
  S  S23  1  0.82707179  0.01510613  0.10416552  1
  S  S24  1  0.10719170  0.49065877  0.66145227  1
  S  S25  1  0.89472491  0.42437037  0.34899818  1
  S  S26  1  0.73676660  0.02113894  0.30973047  1
  S  S27  1  0.26372216  0.93111504  0.68572650  1
  S  S28  1  0.16407238  0.52094959  0.43913905  1
  S  S29  1  0.81779155  0.46729292  0.54871095  1
  S  S30  1  0.43737405  0.45602614  0.80065503  1
  S  S31  1  0.56446171  0.49999655  0.18214790  1
  S  S32  1  0.91059800  0.48408717  0.99048636  1
  S  S33  1  0.08132924  0.46293030  0.02430192  1
  S  S34  1  0.66656541  0.54507020  0.88665050  1
  S  S35  1  0.33532132  0.47448348  0.11544728  1
  S  S36  1  0.60555047  0.02880710  0.65320990  1
  S  S37  1  0.40097366  0.05542876  0.33456775  1
  S  S38  1  0.24239144  0.56845754  0.31959668  1
  S  S39  1  0.76578807  0.51037671  0.68838742  1
  S  S40  1  0.66628063  0.97269947  0.45745778  1
  S  S41  1  0.33077960  0.93912598  0.55278869  1
