# generated using pymatgen
data_Pr2Mn3(SbS3)4
_symmetry_space_group_name_H-M   'P 1'
_cell_length_a   20.02960800
_cell_length_b   3.90410600
_cell_length_c   14.95364829
_cell_angle_alpha   90.00000000
_cell_angle_beta   126.33350609
_cell_angle_gamma   90.00000000
_symmetry_Int_Tables_number   1
_chemical_formula_structural   Pr2Mn3(SbS3)4
_chemical_formula_sum   'Pr4 Mn6 Sb8 S24'
_cell_volume   942.00006694
_cell_formula_units_Z   2
loop_
 _symmetry_equiv_pos_site_id
 _symmetry_equiv_pos_as_xyz
  1  'x, y, z'
loop_
 _atom_site_type_symbol
 _atom_site_label
 _atom_site_symmetry_multiplicity
 _atom_site_fract_x
 _atom_site_fract_y
 _atom_site_fract_z
 _atom_site_occupancy
  Pr  Pr0  1  0.26944952  0.46875303  0.88868495  1
  Pr  Pr1  1  0.72752070  0.50366729  0.13633542  1
  Pr  Pr2  1  0.76111623  0.05043224  0.86784226  1
  Pr  Pr3  1  0.23275470  0.91992757  0.12773229  1
  Mn  Mn4  1  0.29471538  0.43078390  0.60069615  1
  Mn  Mn5  1  0.69524152  0.50988336  0.36372204  1
  Mn  Mn6  1  0.00612054  0.95651438  0.01398343  1
  Mn  Mn7  1  0.80132112  0.97607614  0.63417898  1
  Mn  Mn8  1  0.20870322  0.06217777  0.39389509  1
  Mn  Mn9  1  0.48344977  0.45930231  0.98493158  1
  Sb  Sb10  1  0.89162572  0.90357384  0.45973849  1
  Sb  Sb11  1  0.11369675  0.97983801  0.54592236  1
  Sb  Sb12  1  0.03411318  0.51542916  0.82457929  1
  Sb  Sb13  1  0.96430439  0.46212080  0.20466175  1
  Sb  Sb14  1  0.40590882  0.57502836  0.44971737  1
  Sb  Sb15  1  0.60506691  0.52225071  0.53936118  1
  Sb  Sb16  1  0.51932068  0.96734566  0.78754597  1
  Sb  Sb17  1  0.47372421  0.01514087  0.18171182  1
  S  S18  1  0.93368007  0.99005854  0.79503678  1
  S  S19  1  0.05683265  0.00515881  0.20073677  1
  S  S20  1  0.41202265  0.97747721  0.97375422  1
  S  S21  1  0.58431188  0.01636862  0.00768458  1
  S  S22  1  0.17251399  0.96953511  0.89894860  1
  S  S23  1  0.82695656  0.01584043  0.10439325  1
  S  S24  1  0.10704098  0.49046392  0.66094254  1
  S  S25  1  0.89447271  0.42378558  0.34875910  1
  S  S26  1  0.73670913  0.02068965  0.30961808  1
  S  S27  1  0.26376021  0.93149074  0.68559653  1
  S  S28  1  0.16416962  0.52105990  0.43921181  1
  S  S29  1  0.81798979  0.46879256  0.54890757  1
  S  S30  1  0.43715430  0.45701822  0.80034764  1
  S  S31  1  0.56451604  0.50109683  0.18253742  1
  S  S32  1  0.91070438  0.48391941  0.99065984  1
  S  S33  1  0.08148791  0.46213035  0.02485055  1
  S  S34  1  0.66641022  0.54530659  0.88642405  1
  S  S35  1  0.33516336  0.47485969  0.11539531  1
  S  S36  1  0.60522375  0.02839601  0.65312903  1
  S  S37  1  0.40106791  0.05451899  0.33473491  1
  S  S38  1  0.24251542  0.56711998  0.31993703  1
  S  S39  1  0.76567839  0.50950874  0.68842456  1
  S  S40  1  0.66629587  0.97320811  0.45753816  1
  S  S41  1  0.33068796  0.93950352  0.55282065  1
