# generated using pymatgen
data_Pr2Mn3(SbS3)4
_symmetry_space_group_name_H-M   'P 1'
_cell_length_a   20.02960800
_cell_length_b   3.90410600
_cell_length_c   14.95364829
_cell_angle_alpha   90.00000000
_cell_angle_beta   126.33350609
_cell_angle_gamma   90.00000000
_symmetry_Int_Tables_number   1
_chemical_formula_structural   Pr2Mn3(SbS3)4
_chemical_formula_sum   'Pr4 Mn6 Sb8 S24'
_cell_volume   942.00006694
_cell_formula_units_Z   2
loop_
 _symmetry_equiv_pos_site_id
 _symmetry_equiv_pos_as_xyz
  1  'x, y, z'
loop_
 _atom_site_type_symbol
 _atom_site_label
 _atom_site_symmetry_multiplicity
 _atom_site_fract_x
 _atom_site_fract_y
 _atom_site_fract_z
 _atom_site_occupancy
  Pr  Pr0  1  0.26934060  0.46883146  0.88859064  1
  Pr  Pr1  1  0.72742433  0.50321087  0.13624518  1
  Pr  Pr2  1  0.76120422  0.05111702  0.86805113  1
  Pr  Pr3  1  0.23284183  0.92001080  0.12783488  1
  Mn  Mn4  1  0.29482807  0.43060194  0.60106003  1
  Mn  Mn5  1  0.69507442  0.51062172  0.36381162  1
  Mn  Mn6  1  0.00597140  0.95620466  0.01396153  1
  Mn  Mn7  1  0.80141211  0.97622998  0.63405456  1
  Mn  Mn8  1  0.20873973  0.06163948  0.39404061  1
  Mn  Mn9  1  0.48345348  0.45910225  0.98521911  1
  Sb  Sb10  1  0.89171182  0.90310352  0.45993287  1
  Sb  Sb11  1  0.11367886  0.97965315  0.54587036  1
  Sb  Sb12  1  0.03404928  0.51538018  0.82464389  1
  Sb  Sb13  1  0.96435870  0.46223527  0.20476780  1
  Sb  Sb14  1  0.40607934  0.57538838  0.44975203  1
  Sb  Sb15  1  0.60506777  0.52253831  0.53937648  1
  Sb  Sb16  1  0.51929876  0.96734401  0.78763930  1
  Sb  Sb17  1  0.47369398  0.01530878  0.18158230  1
  S  S18  1  0.93348793  0.98924245  0.79479766  1
  S  S19  1  0.05702441  0.00398290  0.20102896  1
  S  S20  1  0.41205073  0.97811217  0.97400287  1
  S  S21  1  0.58434318  0.01488993  0.00746426  1
  S  S22  1  0.17247205  0.97042640  0.89884075  1
  S  S23  1  0.82682806  0.01636539  0.10464050  1
  S  S24  1  0.10692890  0.48969520  0.66044675  1
  S  S25  1  0.89428185  0.42329001  0.34846546  1
  S  S26  1  0.73673673  0.02032497  0.30967310  1
  S  S27  1  0.26374887  0.93239824  0.68554441  1
  S  S28  1  0.16430543  0.52119607  0.43940535  1
  S  S29  1  0.81809865  0.47043484  0.54899490  1
  S  S30  1  0.43687397  0.45796073  0.79997619  1
  S  S31  1  0.56455869  0.50231223  0.18297604  1
  S  S32  1  0.91083687  0.48399228  0.99083574  1
  S  S33  1  0.08173464  0.46119819  0.02536522  1
  S  S34  1  0.66630850  0.54566525  0.88642432  1
  S  S35  1  0.33518416  0.47559167  0.11553286  1
  S  S36  1  0.60501915  0.02812175  0.65299493  1
  S  S37  1  0.40114673  0.05359211  0.33504611  1
  S  S38  1  0.24268725  0.56595567  0.32027699  1
  S  S39  1  0.76567453  0.50880554  0.68841008  1
  S  S40  1  0.66636911  0.97375708  0.45752895  1
  S  S41  1  0.33049024  0.93993144  0.55267038  1
