# generated using pymatgen
data_Pr2Mn3(SbS3)4
_symmetry_space_group_name_H-M   'P 1'
_cell_length_a   20.02960800
_cell_length_b   3.90410600
_cell_length_c   14.95364829
_cell_angle_alpha   90.00000000
_cell_angle_beta   126.33350609
_cell_angle_gamma   90.00000000
_symmetry_Int_Tables_number   1
_chemical_formula_structural   Pr2Mn3(SbS3)4
_chemical_formula_sum   'Pr4 Mn6 Sb8 S24'
_cell_volume   942.00006694
_cell_formula_units_Z   2
loop_
 _symmetry_equiv_pos_site_id
 _symmetry_equiv_pos_as_xyz
  1  'x, y, z'
loop_
 _atom_site_type_symbol
 _atom_site_label
 _atom_site_symmetry_multiplicity
 _atom_site_fract_x
 _atom_site_fract_y
 _atom_site_fract_z
 _atom_site_occupancy
  Pr  Pr0  1  0.26922626  0.46881012  0.88844948  1
  Pr  Pr1  1  0.72733765  0.50270809  0.13609653  1
  Pr  Pr2  1  0.76128614  0.05165168  0.86818786  1
  Pr  Pr3  1  0.23289654  0.92029414  0.12792577  1
  Mn  Mn4  1  0.29487278  0.43045217  0.60136223  1
  Mn  Mn5  1  0.69494729  0.51157686  0.36393175  1
  Mn  Mn6  1  0.00571580  0.95578825  0.01390057  1
  Mn  Mn7  1  0.80147741  0.97628549  0.63389390  1
  Mn  Mn8  1  0.20871574  0.06130190  0.39420552  1
  Mn  Mn9  1  0.48339298  0.45894503  0.98538307  1
  Sb  Sb10  1  0.89175571  0.90268310  0.46011581  1
  Sb  Sb11  1  0.11364969  0.97932461  0.54579987  1
  Sb  Sb12  1  0.03394988  0.51509316  0.82473952  1
  Sb  Sb13  1  0.96441449  0.46232924  0.20483892  1
  Sb  Sb14  1  0.40620257  0.57537713  0.44975415  1
  Sb  Sb15  1  0.60511300  0.52284711  0.53944728  1
  Sb  Sb16  1  0.51930145  0.96764456  0.78771075  1
  Sb  Sb17  1  0.47365982  0.01536350  0.18149249  1
  S  S18  1  0.93327077  0.98799518  0.79445419  1
  S  S19  1  0.05728624  0.00263963  0.20138090  1
  S  S20  1  0.41204776  0.97882948  0.97412889  1
  S  S21  1  0.58434839  0.01360812  0.00716404  1
  S  S22  1  0.17241090  0.97131767  0.89873226  1
  S  S23  1  0.82661957  0.01686451  0.10484883  1
  S  S24  1  0.10681644  0.48928452  0.66005053  1
  S  S25  1  0.89409291  0.42325150  0.34817086  1
  S  S26  1  0.73672526  0.02015294  0.30965593  1
  S  S27  1  0.26371462  0.93265334  0.68541077  1
  S  S28  1  0.16439335  0.52174617  0.43970957  1
  S  S29  1  0.81819299  0.47211836  0.54902644  1
  S  S30  1  0.43661422  0.45877921  0.79964464  1
  S  S31  1  0.56447667  0.50365669  0.18325140  1
  S  S32  1  0.91090428  0.48435306  0.99093308  1
  S  S33  1  0.08192250  0.46044761  0.02565330  1
  S  S34  1  0.66628696  0.54645121  0.88645432  1
  S  S35  1  0.33524831  0.47579373  0.11558526  1
  S  S36  1  0.60469262  0.02788219  0.65276218  1
  S  S37  1  0.40115864  0.05318766  0.33519383  1
  S  S38  1  0.24291995  0.56503656  0.32072422  1
  S  S39  1  0.76559372  0.50776602  0.68847338  1
  S  S40  1  0.66642876  0.97463309  0.45743150  1
  S  S41  1  0.33026508  0.93990406  0.55257705  1
