# generated using pymatgen
data_Pr2Mn3(SbS3)4
_symmetry_space_group_name_H-M   'P 1'
_cell_length_a   20.02960800
_cell_length_b   3.90410600
_cell_length_c   14.95364829
_cell_angle_alpha   90.00000000
_cell_angle_beta   126.33350609
_cell_angle_gamma   90.00000000
_symmetry_Int_Tables_number   1
_chemical_formula_structural   Pr2Mn3(SbS3)4
_chemical_formula_sum   'Pr4 Mn6 Sb8 S24'
_cell_volume   942.00006694
_cell_formula_units_Z   2
loop_
 _symmetry_equiv_pos_site_id
 _symmetry_equiv_pos_as_xyz
  1  'x, y, z'
loop_
 _atom_site_type_symbol
 _atom_site_label
 _atom_site_symmetry_multiplicity
 _atom_site_fract_x
 _atom_site_fract_y
 _atom_site_fract_z
 _atom_site_occupancy
  Pr  Pr0  1  0.26914214  0.46845773  0.88833917  1
  Pr  Pr1  1  0.72731529  0.50213347  0.13600232  1
  Pr  Pr2  1  0.76138310  0.05213293  0.86838676  1
  Pr  Pr3  1  0.23295071  0.92061948  0.12797131  1
  Mn  Mn4  1  0.29487792  0.43000637  0.60163713  1
  Mn  Mn5  1  0.69485989  0.51206491  0.36398487  1
  Mn  Mn6  1  0.00557270  0.95519401  0.01392657  1
  Mn  Mn7  1  0.80145504  0.97633600  0.63361851  1
  Mn  Mn8  1  0.20871288  0.06089880  0.39433220  1
  Mn  Mn9  1  0.48335631  0.45873006  0.98555732  1
  Sb  Sb10  1  0.89178276  0.90233762  0.46034534  1
  Sb  Sb11  1  0.11361488  0.97888763  0.54577523  1
  Sb  Sb12  1  0.03386236  0.51467250  0.82485602  1
  Sb  Sb13  1  0.96445950  0.46208891  0.20484659  1
  Sb  Sb14  1  0.40629900  0.57534099  0.44969780  1
  Sb  Sb15  1  0.60517548  0.52326319  0.53949226  1
  Sb  Sb16  1  0.51932820  0.96798528  0.78774783  1
  Sb  Sb17  1  0.47359042  0.01524694  0.18135324  1
  S  S18  1  0.93321095  0.98615989  0.79423377  1
  S  S19  1  0.05752765  0.00152760  0.20176245  1
  S  S20  1  0.41220213  0.97957986  0.97434581  1
  S  S21  1  0.58434315  0.01254035  0.00688509  1
  S  S22  1  0.17230212  0.97177151  0.89863001  1
  S  S23  1  0.82642778  0.01749222  0.10494131  1
  S  S24  1  0.10668520  0.48941021  0.65961125  1
  S  S25  1  0.89402848  0.42348597  0.34796366  1
  S  S26  1  0.73681057  0.02014153  0.30975873  1
  S  S27  1  0.26366375  0.93320901  0.68530854  1
  S  S28  1  0.16455714  0.52245568  0.43992620  1
  S  S29  1  0.81821022  0.47352530  0.54887983  1
  S  S30  1  0.43624082  0.45931518  0.79912466  1
  S  S31  1  0.56447325  0.50444699  0.18360314  1
  S  S32  1  0.91102667  0.48447699  0.99111494  1
  S  S33  1  0.08206035  0.46009101  0.02588064  1
  S  S34  1  0.66621345  0.54689357  0.88646614  1
  S  S35  1  0.33528805  0.47587700  0.11559143  1
  S  S36  1  0.60443078  0.02825388  0.65257732  1
  S  S37  1  0.40121209  0.05256175  0.33537596  1
  S  S38  1  0.24319974  0.56429210  0.32117456  1
  S  S39  1  0.76563997  0.50703375  0.68852040  1
  S  S40  1  0.66655415  0.97541576  0.45743095  1
  S  S41  1  0.33012023  0.93931973  0.55259398  1
