# generated using pymatgen
data_Pr2Mn3(SbS3)4
_symmetry_space_group_name_H-M   'P 1'
_cell_length_a   20.02960800
_cell_length_b   3.90410600
_cell_length_c   14.95364829
_cell_angle_alpha   90.00000000
_cell_angle_beta   126.33350609
_cell_angle_gamma   90.00000000
_symmetry_Int_Tables_number   1
_chemical_formula_structural   Pr2Mn3(SbS3)4
_chemical_formula_sum   'Pr4 Mn6 Sb8 S24'
_cell_volume   942.00006694
_cell_formula_units_Z   2
loop_
 _symmetry_equiv_pos_site_id
 _symmetry_equiv_pos_as_xyz
  1  'x, y, z'
loop_
 _atom_site_type_symbol
 _atom_site_label
 _atom_site_symmetry_multiplicity
 _atom_site_fract_x
 _atom_site_fract_y
 _atom_site_fract_z
 _atom_site_occupancy
  Pr  Pr0  1  0.26899660  0.46797149  0.88816493  1
  Pr  Pr1  1  0.72736812  0.50136260  0.13593092  1
  Pr  Pr2  1  0.76145456  0.05227126  0.86854922  1
  Pr  Pr3  1  0.23293914  0.92087612  0.12789825  1
  Mn  Mn4  1  0.29483101  0.42995912  0.60184384  1
  Mn  Mn5  1  0.69479710  0.51262632  0.36405334  1
  Mn  Mn6  1  0.00541970  0.95483228  0.01386657  1
  Mn  Mn7  1  0.80140919  0.97642053  0.63337354  1
  Mn  Mn8  1  0.20860078  0.06055092  0.39440939  1
  Mn  Mn9  1  0.48336458  0.45852854  0.98582849  1
  Sb  Sb10  1  0.89180246  0.90215801  0.46054614  1
  Sb  Sb11  1  0.11356845  0.97862049  0.54576174  1
  Sb  Sb12  1  0.03372549  0.51433420  0.82490625  1
  Sb  Sb13  1  0.96446124  0.46199320  0.20482227  1
  Sb  Sb14  1  0.40637921  0.57514081  0.44969513  1
  Sb  Sb15  1  0.60516621  0.52330106  0.53945865  1
  Sb  Sb16  1  0.51939460  0.96830508  0.78786185  1
  Sb  Sb17  1  0.47353074  0.01490232  0.18116607  1
  S  S18  1  0.93313500  0.98435596  0.79398914  1
  S  S19  1  0.05782301  0.00106360  0.20220492  1
  S  S20  1  0.41227303  0.98015751  0.97458060  1
  S  S21  1  0.58437051  0.01147708  0.00654035  1
  S  S22  1  0.17223165  0.97208501  0.89849868  1
  S  S23  1  0.82641538  0.01768174  0.10524041  1
  S  S24  1  0.10647230  0.48952674  0.65916504  1
  S  S25  1  0.89398067  0.42380222  0.34777130  1
  S  S26  1  0.73692602  0.01987516  0.30989971  1
  S  S27  1  0.26368659  0.93385212  0.68531218  1
  S  S28  1  0.16480253  0.52279062  0.44018394  1
  S  S29  1  0.81815282  0.47488541  0.54865014  1
  S  S30  1  0.43575576  0.45972784  0.79845448  1
  S  S31  1  0.56447267  0.50467564  0.18394528  1
  S  S32  1  0.91120778  0.48478080  0.99127872  1
  S  S33  1  0.08216593  0.46020160  0.02607826  1
  S  S34  1  0.66608221  0.54698423  0.88654807  1
  S  S35  1  0.33522052  0.47590837  0.11557057  1
  S  S36  1  0.60415477  0.02851301  0.65232353  1
  S  S37  1  0.40129373  0.05223987  0.33552186  1
  S  S38  1  0.24352771  0.56326780  0.32169755  1
  S  S39  1  0.76568318  0.50672591  0.68846789  1
  S  S40  1  0.66657213  0.97582744  0.45735530  1
  S  S41  1  0.32995939  0.93888976  0.55239461  1
