# generated using pymatgen
data_Pr2Mn3(SbS3)4
_symmetry_space_group_name_H-M   'P 1'
_cell_length_a   20.02960800
_cell_length_b   3.90410600
_cell_length_c   14.95364829
_cell_angle_alpha   90.00000000
_cell_angle_beta   126.33350609
_cell_angle_gamma   90.00000000
_symmetry_Int_Tables_number   1
_chemical_formula_structural   Pr2Mn3(SbS3)4
_chemical_formula_sum   'Pr4 Mn6 Sb8 S24'
_cell_volume   942.00006694
_cell_formula_units_Z   2
loop_
 _symmetry_equiv_pos_site_id
 _symmetry_equiv_pos_as_xyz
  1  'x, y, z'
loop_
 _atom_site_type_symbol
 _atom_site_label
 _atom_site_symmetry_multiplicity
 _atom_site_fract_x
 _atom_site_fract_y
 _atom_site_fract_z
 _atom_site_occupancy
  Pr  Pr0  1  0.26886432  0.46774744  0.88804137  1
  Pr  Pr1  1  0.72749591  0.50082639  0.13588242  1
  Pr  Pr2  1  0.76150171  0.05238869  0.86865050  1
  Pr  Pr3  1  0.23296431  0.92106312  0.12786112  1
  Mn  Mn4  1  0.29470802  0.42985994  0.60197579  1
  Mn  Mn5  1  0.69475919  0.51310708  0.36408407  1
  Mn  Mn6  1  0.00531464  0.95402551  0.01384121  1
  Mn  Mn7  1  0.80139894  0.97653478  0.63312989  1
  Mn  Mn8  1  0.20851601  0.06022518  0.39448194  1
  Mn  Mn9  1  0.48334496  0.45889941  0.98586318  1
  Sb  Sb10  1  0.89180669  0.90199332  0.46069826  1
  Sb  Sb11  1  0.11346468  0.97841270  0.54576061  1
  Sb  Sb12  1  0.03357524  0.51416263  0.82494404  1
  Sb  Sb13  1  0.96447747  0.46194268  0.20471088  1
  Sb  Sb14  1  0.40645611  0.57462784  0.44965944  1
  Sb  Sb15  1  0.60515905  0.52317944  0.53942193  1
  Sb  Sb16  1  0.51941823  0.96870126  0.78791318  1
  Sb  Sb17  1  0.47348479  0.01431508  0.18097369  1
  S  S18  1  0.93282268  0.98248902  0.79355717  1
  S  S19  1  0.05814264  0.00028604  0.20262649  1
  S  S20  1  0.41235735  0.98100462  0.97471798  1
  S  S21  1  0.58445119  0.00992319  0.00630739  1
  S  S22  1  0.17228297  0.97214535  0.89853179  1
  S  S23  1  0.82642157  0.01798814  0.10538904  1
  S  S24  1  0.10626364  0.48983128  0.65858937  1
  S  S25  1  0.89398619  0.42387987  0.34775123  1
  S  S26  1  0.73715862  0.01971537  0.31007896  1
  S  S27  1  0.26372751  0.93420334  0.68538585  1
  S  S28  1  0.16506550  0.52309042  0.44060392  1
  S  S29  1  0.81808020  0.47599435  0.54828306  1
  S  S30  1  0.43531433  0.45980182  0.79790968  1
  S  S31  1  0.56436479  0.50509905  0.18415660  1
  S  S32  1  0.91135922  0.48518091  0.99139350  1
  S  S33  1  0.08231226  0.45985054  0.02622952  1
  S  S34  1  0.66593445  0.54699396  0.88665603  1
  S  S35  1  0.33517542  0.47599364  0.11558095  1
  S  S36  1  0.60407698  0.02846315  0.65218662  1
  S  S37  1  0.40131730  0.05165888  0.33557359  1
  S  S38  1  0.24395088  0.56215330  0.32233459  1
  S  S39  1  0.76563391  0.50659993  0.68814212  1
  S  S40  1  0.66643357  0.97615542  0.45722627  1
  S  S41  1  0.32989595  0.93915637  0.55235760  1
