# generated using pymatgen
data_Pr2Mn3(SbS3)4
_symmetry_space_group_name_H-M   'P 1'
_cell_length_a   20.02960800
_cell_length_b   3.90410600
_cell_length_c   14.95364829
_cell_angle_alpha   90.00000000
_cell_angle_beta   126.33350609
_cell_angle_gamma   90.00000000
_symmetry_Int_Tables_number   1
_chemical_formula_structural   Pr2Mn3(SbS3)4
_chemical_formula_sum   'Pr4 Mn6 Sb8 S24'
_cell_volume   942.00006694
_cell_formula_units_Z   2
loop_
 _symmetry_equiv_pos_site_id
 _symmetry_equiv_pos_as_xyz
  1  'x, y, z'
loop_
 _atom_site_type_symbol
 _atom_site_label
 _atom_site_symmetry_multiplicity
 _atom_site_fract_x
 _atom_site_fract_y
 _atom_site_fract_z
 _atom_site_occupancy
  Pr  Pr0  1  0.26871585  0.46736691  0.88794277  1
  Pr  Pr1  1  0.72755462  0.50060409  0.13579019  1
  Pr  Pr2  1  0.76149817  0.05251718  0.86868868  1
  Pr  Pr3  1  0.23296780  0.92112133  0.12782039  1
  Mn  Mn4  1  0.29465780  0.42937245  0.60206144  1
  Mn  Mn5  1  0.69467976  0.51316295  0.36407615  1
  Mn  Mn6  1  0.00522729  0.95305683  0.01383210  1
  Mn  Mn7  1  0.80145591  0.97652345  0.63296626  1
  Mn  Mn8  1  0.20847880  0.05943885  0.39459572  1
  Mn  Mn9  1  0.48331724  0.45904342  0.98608017  1
  Sb  Sb10  1  0.89187858  0.90163980  0.46093555  1
  Sb  Sb11  1  0.11339647  0.97825441  0.54575355  1
  Sb  Sb12  1  0.03348806  0.51415196  0.82499473  1
  Sb  Sb13  1  0.96439927  0.46184589  0.20454223  1
  Sb  Sb14  1  0.40650465  0.57453264  0.44957928  1
  Sb  Sb15  1  0.60512205  0.52323345  0.53935677  1
  Sb  Sb16  1  0.51936348  0.96908028  0.78784783  1
  Sb  Sb17  1  0.47343169  0.01396171  0.18073859  1
  S  S18  1  0.93252887  0.98096596  0.79306374  1
  S  S19  1  0.05841222  0.99932295  0.20308190  1
  S  S20  1  0.41256406  0.98143906  0.97495820  1
  S  S21  1  0.58449319  0.00847633  0.00611992  1
  S  S22  1  0.17234262  0.97234580  0.89857437  1
  S  S23  1  0.82637301  0.01833770  0.10550194  1
  S  S24  1  0.10608127  0.48993006  0.65819736  1
  S  S25  1  0.89401661  0.42382185  0.34782919  1
  S  S26  1  0.73729404  0.01943301  0.31022490  1
  S  S27  1  0.26374008  0.93411697  0.68535260  1
  S  S28  1  0.16538502  0.52333758  0.44098814  1
  S  S29  1  0.81794959  0.47734124  0.54791935  1
  S  S30  1  0.43500114  0.45969205  0.79742177  1
  S  S31  1  0.56430013  0.50549452  0.18442879  1
  S  S32  1  0.91140445  0.48549349  0.99141110  1
  S  S33  1  0.08246951  0.45945485  0.02651852  1
  S  S34  1  0.66585571  0.54714920  0.88696300  1
  S  S35  1  0.33513031  0.47573962  0.11559715  1
  S  S36  1  0.60410530  0.02843540  0.65222987  1
  S  S37  1  0.40121776  0.05108165  0.33559535  1
  S  S38  1  0.24423919  0.56175930  0.32291412  1
  S  S39  1  0.76559811  0.50656648  0.68783862  1
  S  S40  1  0.66623970  0.97689171  0.45711904  1
  S  S41  1  0.32979909  0.93914195  0.55236127  1
