# generated using pymatgen
data_Pr2Mn3(SbS3)4
_symmetry_space_group_name_H-M   'P 1'
_cell_length_a   20.02960800
_cell_length_b   3.90410600
_cell_length_c   14.95364829
_cell_angle_alpha   90.00000000
_cell_angle_beta   126.33350609
_cell_angle_gamma   90.00000000
_symmetry_Int_Tables_number   1
_chemical_formula_structural   Pr2Mn3(SbS3)4
_chemical_formula_sum   'Pr4 Mn6 Sb8 S24'
_cell_volume   942.00006694
_cell_formula_units_Z   2
loop_
 _symmetry_equiv_pos_site_id
 _symmetry_equiv_pos_as_xyz
  1  'x, y, z'
loop_
 _atom_site_type_symbol
 _atom_site_label
 _atom_site_symmetry_multiplicity
 _atom_site_fract_x
 _atom_site_fract_y
 _atom_site_fract_z
 _atom_site_occupancy
  Pr  Pr0  1  0.26473818  0.48185653  0.87025874  1
  Pr  Pr1  1  0.73748574  0.51025364  0.13613623  1
  Pr  Pr2  1  0.76167298  0.00910307  0.86112953  1
  Pr  Pr3  1  0.23680187  0.99876986  0.13961333  1
  Mn  Mn4  1  0.29571189  0.49507580  0.61000539  1
  Mn  Mn5  1  0.69504862  0.52166117  0.37903309  1
  Mn  Mn6  1  0.00371526  0.00227818  0.00098593  1
  Mn  Mn7  1  0.80295568  0.98950728  0.61649221  1
  Mn  Mn8  1  0.19671699  0.97658937  0.37923430  1
  Mn  Mn9  1  0.50279619  0.47416249  0.99514524  1
  Sb  Sb10  1  0.89304407  0.00306168  0.45459882  1
  Sb  Sb11  1  0.11208490  0.97036064  0.55262259  1
  Sb  Sb12  1  0.04024342  0.50249404  0.81664764  1
  Sb  Sb13  1  0.96252406  0.53100121  0.18766635  1
  Sb  Sb14  1  0.39842460  0.50038475  0.45745075  1
  Sb  Sb15  1  0.60652057  0.48861685  0.54806539  1
  Sb  Sb16  1  0.53590068  0.00843312  0.81387381  1
  Sb  Sb17  1  0.46228322  0.00528708  0.18211227  1
  S  S18  1  0.93619390  0.97571745  0.79749450  1
  S  S19  1  0.06519272  0.98878639  0.19273846  1
  S  S20  1  0.40981706  0.00981871  0.97921320  1
  S  S21  1  0.59229558  0.99515577  0.02205482  1
  S  S22  1  0.17250653  0.98952590  0.89645187  1
  S  S23  1  0.82677453  0.01961234  0.10070810  1
  S  S24  1  0.08527779  0.45551391  0.64537449  1
  S  S25  1  0.91401697  0.49046906  0.36077400  1
  S  S26  1  0.74283589  0.94849078  0.29990398  1
  S  S27  1  0.25775453  0.00235014  0.70159398  1
  S  S28  1  0.16510511  0.48487488  0.44410378  1
  S  S29  1  0.83022896  0.47433017  0.54971747  1
  S  S30  1  0.43162136  0.50816937  0.80004966  1
  S  S31  1  0.56204054  0.52651505  0.19158172  1
  S  S32  1  0.90305676  0.49275798  0.97839465  1
  S  S33  1  0.08589533  0.49411703  0.01748222  1
  S  S34  1  0.66431288  0.50544982  0.89203927  1
  S  S35  1  0.32920830  0.52769562  0.10141219  1
  S  S36  1  0.58936738  0.00408516  0.64682077  1
  S  S37  1  0.40934160  0.95918658  0.35135611  1
  S  S38  1  0.24346116  0.48605094  0.30489783  1
  S  S39  1  0.75997634  0.49822250  0.69726139  1
  S  S40  1  0.67260336  0.01042496  0.46329733  1
  S  S41  1  0.33057118  0.98711111  0.54144045  1
