# generated using pymatgen
data_Pr2Mn3(SbS3)4
_symmetry_space_group_name_H-M   'P 1'
_cell_length_a   20.02960800
_cell_length_b   3.90410600
_cell_length_c   14.95364829
_cell_angle_alpha   90.00000000
_cell_angle_beta   126.33350609
_cell_angle_gamma   90.00000000
_symmetry_Int_Tables_number   1
_chemical_formula_structural   Pr2Mn3(SbS3)4
_chemical_formula_sum   'Pr4 Mn6 Sb8 S24'
_cell_volume   942.00006694
_cell_formula_units_Z   2
loop_
 _symmetry_equiv_pos_site_id
 _symmetry_equiv_pos_as_xyz
  1  'x, y, z'
loop_
 _atom_site_type_symbol
 _atom_site_label
 _atom_site_symmetry_multiplicity
 _atom_site_fract_x
 _atom_site_fract_y
 _atom_site_fract_z
 _atom_site_occupancy
  Pr  Pr0  1  0.26859355  0.46717937  0.88785121  1
  Pr  Pr1  1  0.72755671  0.50041516  0.13570453  1
  Pr  Pr2  1  0.76145265  0.05271202  0.86871518  1
  Pr  Pr3  1  0.23297818  0.92124049  0.12775498  1
  Mn  Mn4  1  0.29457547  0.42877139  0.60213935  1
  Mn  Mn5  1  0.69465898  0.51290172  0.36404484  1
  Mn  Mn6  1  0.00504130  0.95145667  0.01388013  1
  Mn  Mn7  1  0.80144465  0.97651465  0.63283373  1
  Mn  Mn8  1  0.20840358  0.05894448  0.39454987  1
  Mn  Mn9  1  0.48324481  0.45902525  0.98615907  1
  Sb  Sb10  1  0.89193708  0.90118744  0.46111205  1
  Sb  Sb11  1  0.11332420  0.97791877  0.54574670  1
  Sb  Sb12  1  0.03343767  0.51412701  0.82504941  1
  Sb  Sb13  1  0.96433873  0.46167344  0.20432113  1
  Sb  Sb14  1  0.40653680  0.57451815  0.44948703  1
  Sb  Sb15  1  0.60503627  0.52304883  0.53919399  1
  Sb  Sb16  1  0.51935279  0.96944475  0.78785223  1
  Sb  Sb17  1  0.47338404  0.01372767  0.18050590  1
  S  S18  1  0.93212893  0.97962174  0.79256870  1
  S  S19  1  0.05852229  0.99836261  0.20327562  1
  S  S20  1  0.41279392  0.98205773  0.97514086  1
  S  S21  1  0.58453333  0.00740995  0.00572756  1
  S  S22  1  0.17254748  0.97324505  0.89877410  1
  S  S23  1  0.82638830  0.01837834  0.10577743  1
  S  S24  1  0.10592603  0.49003851  0.65788758  1
  S  S25  1  0.89406666  0.42402461  0.34791111  1
  S  S26  1  0.73735421  0.01935070  0.31035498  1
  S  S27  1  0.26363497  0.93405111  0.68526448  1
  S  S28  1  0.16565295  0.52386804  0.44136711  1
  S  S29  1  0.81780254  0.47827704  0.54750997  1
  S  S30  1  0.43465609  0.46015122  0.79701579  1
  S  S31  1  0.56413659  0.50589801  0.18472303  1
  S  S32  1  0.91143892  0.48569647  0.99144534  1
  S  S33  1  0.08242474  0.45959131  0.02657955  1
  S  S34  1  0.66574461  0.54729071  0.88707722  1
  S  S35  1  0.33497622  0.47552193  0.11564966  1
  S  S36  1  0.60411096  0.02813681  0.65224453  1
  S  S37  1  0.40110460  0.05081312  0.33565083  1
  S  S38  1  0.24454129  0.56184238  0.32341328  1
  S  S39  1  0.76548633  0.50656818  0.68749824  1
  S  S40  1  0.66604707  0.97850660  0.45686753  1
  S  S41  1  0.32969483  0.93914504  0.55229685  1
