# generated using pymatgen
data_Pr2Mn3(SbS3)4
_symmetry_space_group_name_H-M   'P 1'
_cell_length_a   20.02960800
_cell_length_b   3.90410600
_cell_length_c   14.95364829
_cell_angle_alpha   90.00000000
_cell_angle_beta   126.33350609
_cell_angle_gamma   90.00000000
_symmetry_Int_Tables_number   1
_chemical_formula_structural   Pr2Mn3(SbS3)4
_chemical_formula_sum   'Pr4 Mn6 Sb8 S24'
_cell_volume   942.00006694
_cell_formula_units_Z   2
loop_
 _symmetry_equiv_pos_site_id
 _symmetry_equiv_pos_as_xyz
  1  'x, y, z'
loop_
 _atom_site_type_symbol
 _atom_site_label
 _atom_site_symmetry_multiplicity
 _atom_site_fract_x
 _atom_site_fract_y
 _atom_site_fract_z
 _atom_site_occupancy
  Pr  Pr0  1  0.26847296  0.46686693  0.88770703  1
  Pr  Pr1  1  0.72753894  0.50028996  0.13554685  1
  Pr  Pr2  1  0.76139920  0.05311721  0.86874604  1
  Pr  Pr3  1  0.23306749  0.92120410  0.12774955  1
  Mn  Mn4  1  0.29452261  0.42809692  0.60220996  1
  Mn  Mn5  1  0.69459777  0.51285072  0.36402908  1
  Mn  Mn6  1  0.00492170  0.94985011  0.01394158  1
  Mn  Mn7  1  0.80142669  0.97658405  0.63280342  1
  Mn  Mn8  1  0.20839248  0.05846110  0.39444166  1
  Mn  Mn9  1  0.48317306  0.45945059  0.98613400  1
  Sb  Sb10  1  0.89199455  0.90078058  0.46129853  1
  Sb  Sb11  1  0.11323895  0.97729011  0.54574665  1
  Sb  Sb12  1  0.03341039  0.51403812  0.82514304  1
  Sb  Sb13  1  0.96419974  0.46175879  0.20406270  1
  Sb  Sb14  1  0.40662797  0.57474601  0.44941261  1
  Sb  Sb15  1  0.60486483  0.52251693  0.53896461  1
  Sb  Sb16  1  0.51939168  0.97000600  0.78782989  1
  Sb  Sb17  1  0.47336664  0.01324121  0.18026393  1
  S  S18  1  0.93171686  0.97867308  0.79208563  1
  S  S19  1  0.05867628  0.99768380  0.20342125  1
  S  S20  1  0.41303502  0.98242860  0.97539178  1
  S  S21  1  0.58459130  0.00595792  0.00532812  1
  S  S22  1  0.17282219  0.97417488  0.89903258  1
  S  S23  1  0.82642166  0.01844564  0.10611337  1
  S  S24  1  0.10596812  0.48978002  0.65774665  1
  S  S25  1  0.89408232  0.42389393  0.34783443  1
  S  S26  1  0.73732972  0.01954967  0.31043678  1
  S  S27  1  0.26351342  0.93386194  0.68527170  1
  S  S28  1  0.16599447  0.52437038  0.44182874  1
  S  S29  1  0.81769462  0.47944489  0.54709796  1
  S  S30  1  0.43427147  0.46036398  0.79666402  1
  S  S31  1  0.56400824  0.50619500  0.18494220  1
  S  S32  1  0.91145896  0.48567409  0.99156214  1
  S  S33  1  0.08248978  0.46021477  0.02667780  1
  S  S34  1  0.66575292  0.54724060  0.88716878  1
  S  S35  1  0.33475788  0.47520661  0.11554950  1
  S  S36  1  0.60418435  0.02759249  0.65224716  1
  S  S37  1  0.40110830  0.05089794  0.33583777  1
  S  S38  1  0.24490452  0.56131573  0.32405197  1
  S  S39  1  0.76545318  0.50667697  0.68718623  1
  S  S40  1  0.66586381  0.98013496  0.45660087  1
  S  S41  1  0.32951011  0.93918194  0.55231020  1
