# generated using pymatgen
data_Pr2Mn3(SbS3)4
_symmetry_space_group_name_H-M   'P 1'
_cell_length_a   20.02960800
_cell_length_b   3.90410600
_cell_length_c   14.95364829
_cell_angle_alpha   90.00000000
_cell_angle_beta   126.33350609
_cell_angle_gamma   90.00000000
_symmetry_Int_Tables_number   1
_chemical_formula_structural   Pr2Mn3(SbS3)4
_chemical_formula_sum   'Pr4 Mn6 Sb8 S24'
_cell_volume   942.00006694
_cell_formula_units_Z   2
loop_
 _symmetry_equiv_pos_site_id
 _symmetry_equiv_pos_as_xyz
  1  'x, y, z'
loop_
 _atom_site_type_symbol
 _atom_site_label
 _atom_site_symmetry_multiplicity
 _atom_site_fract_x
 _atom_site_fract_y
 _atom_site_fract_z
 _atom_site_occupancy
  Pr  Pr0  1  0.26832217  0.46665580  0.88752487  1
  Pr  Pr1  1  0.72755024  0.50024652  0.13538854  1
  Pr  Pr2  1  0.76142336  0.05341505  0.86882131  1
  Pr  Pr3  1  0.23313124  0.92105804  0.12770617  1
  Mn  Mn4  1  0.29459408  0.42753888  0.60236856  1
  Mn  Mn5  1  0.69455277  0.51295079  0.36400567  1
  Mn  Mn6  1  0.00480173  0.94843377  0.01396963  1
  Mn  Mn7  1  0.80127153  0.97676992  0.63264557  1
  Mn  Mn8  1  0.20844046  0.05815551  0.39442772  1
  Mn  Mn9  1  0.48319918  0.45970638  0.98626335  1
  Sb  Sb10  1  0.89204656  0.90019493  0.46149922  1
  Sb  Sb11  1  0.11314765  0.97669211  0.54566506  1
  Sb  Sb12  1  0.03339075  0.51391330  0.82524541  1
  Sb  Sb13  1  0.96406113  0.46187704  0.20389649  1
  Sb  Sb14  1  0.40666930  0.57485240  0.44934713  1
  Sb  Sb15  1  0.60471648  0.52177834  0.53871965  1
  Sb  Sb16  1  0.51948572  0.97071866  0.78786601  1
  Sb  Sb17  1  0.47334497  0.01306335  0.18003087  1
  S  S18  1  0.93130699  0.97784248  0.79158562  1
  S  S19  1  0.05868278  0.99684226  0.20342160  1
  S  S20  1  0.41324442  0.98275559  0.97556654  1
  S  S21  1  0.58453521  0.00428207  0.00494885  1
  S  S22  1  0.17298140  0.97529998  0.89919296  1
  S  S23  1  0.82642160  0.01839642  0.10642831  1
  S  S24  1  0.10590527  0.48991745  0.65742022  1
  S  S25  1  0.89411782  0.42363440  0.34778133  1
  S  S26  1  0.73735004  0.01942614  0.31058128  1
  S  S27  1  0.26333094  0.93343598  0.68528306  1
  S  S28  1  0.16632404  0.52462861  0.44210327  1
  S  S29  1  0.81767253  0.48070557  0.54677110  1
  S  S30  1  0.43396977  0.46048905  0.79631050  1
  S  S31  1  0.56385382  0.50620179  0.18502684  1
  S  S32  1  0.91152711  0.48535704  0.99187191  1
  S  S33  1  0.08256405  0.46076987  0.02685813  1
  S  S34  1  0.66590603  0.54677120  0.88738041  1
  S  S35  1  0.33457045  0.47457099  0.11534026  1
  S  S36  1  0.60423882  0.02692437  0.65213466  1
  S  S37  1  0.40103632  0.05071076  0.33590044  1
  S  S38  1  0.24520574  0.56047000  0.32468775  1
  S  S39  1  0.76546087  0.50709846  0.68697130  1
  S  S40  1  0.66555679  0.98139232  0.45621212  1
  S  S41  1  0.32920451  0.93903690  0.55205813  1
