# generated using pymatgen
data_Pr2Mn3(SbS3)4
_symmetry_space_group_name_H-M   'P 1'
_cell_length_a   20.02960800
_cell_length_b   3.90410600
_cell_length_c   14.95364829
_cell_angle_alpha   90.00000000
_cell_angle_beta   126.33350609
_cell_angle_gamma   90.00000000
_symmetry_Int_Tables_number   1
_chemical_formula_structural   Pr2Mn3(SbS3)4
_chemical_formula_sum   'Pr4 Mn6 Sb8 S24'
_cell_volume   942.00006694
_cell_formula_units_Z   2
loop_
 _symmetry_equiv_pos_site_id
 _symmetry_equiv_pos_as_xyz
  1  'x, y, z'
loop_
 _atom_site_type_symbol
 _atom_site_label
 _atom_site_symmetry_multiplicity
 _atom_site_fract_x
 _atom_site_fract_y
 _atom_site_fract_z
 _atom_site_occupancy
  Pr  Pr0  1  0.26817947  0.46644431  0.88737837  1
  Pr  Pr1  1  0.72757695  0.50015411  0.13517217  1
  Pr  Pr2  1  0.76140215  0.05357330  0.86891544  1
  Pr  Pr3  1  0.23317574  0.92106612  0.12764602  1
  Mn  Mn4  1  0.29460850  0.42675697  0.60245229  1
  Mn  Mn5  1  0.69441879  0.51300754  0.36391561  1
  Mn  Mn6  1  0.00469292  0.94724691  0.01403104  1
  Mn  Mn7  1  0.80113026  0.97685050  0.63244805  1
  Mn  Mn8  1  0.20849165  0.05772075  0.39446417  1
  Mn  Mn9  1  0.48319483  0.46002830  0.98639048  1
  Sb  Sb10  1  0.89211548  0.89976660  0.46165188  1
  Sb  Sb11  1  0.11312657  0.97625730  0.54560844  1
  Sb  Sb12  1  0.03338596  0.51375382  0.82536810  1
  Sb  Sb13  1  0.96392394  0.46177397  0.20375253  1
  Sb  Sb14  1  0.40665654  0.57502589  0.44925062  1
  Sb  Sb15  1  0.60460788  0.52131748  0.53854229  1
  Sb  Sb16  1  0.51960429  0.97084803  0.78792926  1
  Sb  Sb17  1  0.47325989  0.01264320  0.17974526  1
  S  S18  1  0.93089699  0.97741507  0.79103737  1
  S  S19  1  0.05873062  0.99598090  0.20346174  1
  S  S20  1  0.41347358  0.98316945  0.97593939  1
  S  S21  1  0.58455453  0.00320910  0.00456667  1
  S  S22  1  0.17309666  0.97613892  0.89927028  1
  S  S23  1  0.82642831  0.01863578  0.10682877  1
  S  S24  1  0.10585586  0.48935535  0.65705603  1
  S  S25  1  0.89406556  0.42300666  0.34775357  1
  S  S26  1  0.73744955  0.01879684  0.31079629  1
  S  S27  1  0.26306267  0.93300883  0.68527276  1
  S  S28  1  0.16673197  0.52496565  0.44249407  1
  S  S29  1  0.81748097  0.48120200  0.54641624  1
  S  S30  1  0.43366520  0.46049600  0.79601897  1
  S  S31  1  0.56374112  0.50598071  0.18516569  1
  S  S32  1  0.91162724  0.48473828  0.99220073  1
  S  S33  1  0.08251444  0.46132234  0.02695855  1
  S  S34  1  0.66593315  0.54639407  0.88738999  1
  S  S35  1  0.33439317  0.47369983  0.11511283  1
  S  S36  1  0.60445508  0.02646907  0.65217789  1
  S  S37  1  0.40100196  0.05037834  0.33586258  1
  S  S38  1  0.24562820  0.55983467  0.32526751  1
  S  S39  1  0.76557639  0.50722907  0.68671925  1
  S  S40  1  0.66518546  0.98241952  0.45582315  1
  S  S41  1  0.32897445  0.93919316  0.55191589  1
