# generated using pymatgen
data_Pr2Mn3(SbS3)4
_symmetry_space_group_name_H-M   'P 1'
_cell_length_a   20.02960800
_cell_length_b   3.90410600
_cell_length_c   14.95364829
_cell_angle_alpha   90.00000000
_cell_angle_beta   126.33350609
_cell_angle_gamma   90.00000000
_symmetry_Int_Tables_number   1
_chemical_formula_structural   Pr2Mn3(SbS3)4
_chemical_formula_sum   'Pr4 Mn6 Sb8 S24'
_cell_volume   942.00006694
_cell_formula_units_Z   2
loop_
 _symmetry_equiv_pos_site_id
 _symmetry_equiv_pos_as_xyz
  1  'x, y, z'
loop_
 _atom_site_type_symbol
 _atom_site_label
 _atom_site_symmetry_multiplicity
 _atom_site_fract_x
 _atom_site_fract_y
 _atom_site_fract_z
 _atom_site_occupancy
  Pr  Pr0  1  0.26806790  0.46630861  0.88724494  1
  Pr  Pr1  1  0.72763915  0.50008280  0.13501205  1
  Pr  Pr2  1  0.76139067  0.05355234  0.86907428  1
  Pr  Pr3  1  0.23325900  0.92105699  0.12766005  1
  Mn  Mn4  1  0.29459612  0.42593076  0.60250234  1
  Mn  Mn5  1  0.69434882  0.51318069  0.36378460  1
  Mn  Mn6  1  0.00462113  0.94587342  0.01409151  1
  Mn  Mn7  1  0.80098848  0.97667143  0.63218913  1
  Mn  Mn8  1  0.20865839  0.05728260  0.39460404  1
  Mn  Mn9  1  0.48320288  0.46050455  0.98646673  1
  Sb  Sb10  1  0.89217679  0.89946097  0.46172997  1
  Sb  Sb11  1  0.11313961  0.97579490  0.54553289  1
  Sb  Sb12  1  0.03337028  0.51366077  0.82548712  1
  Sb  Sb13  1  0.96377603  0.46176799  0.20356985  1
  Sb  Sb14  1  0.40669931  0.57507123  0.44917179  1
  Sb  Sb15  1  0.60451736  0.52094205  0.53836554  1
  Sb  Sb16  1  0.51970800  0.97106155  0.78796358  1
  Sb  Sb17  1  0.47313841  0.01206564  0.17949008  1
  S  S18  1  0.93062557  0.97726937  0.79054762  1
  S  S19  1  0.05883390  0.99486106  0.20347426  1
  S  S20  1  0.41372315  0.98378483  0.97636072  1
  S  S21  1  0.58466660  0.00173523  0.00422898  1
  S  S22  1  0.17334003  0.97734292  0.89935377  1
  S  S23  1  0.82634439  0.01890301  0.10704426  1
  S  S24  1  0.10580199  0.48887159  0.65678492  1
  S  S25  1  0.89403714  0.42261606  0.34774759  1
  S  S26  1  0.73748531  0.01806937  0.31105860  1
  S  S27  1  0.26288586  0.93263591  0.68521932  1
  S  S28  1  0.16717770  0.52492313  0.44297361  1
  S  S29  1  0.81738413  0.48210911  0.54609951  1
  S  S30  1  0.43336187  0.46049670  0.79575345  1
  S  S31  1  0.56373570  0.50596892  0.18529948  1
  S  S32  1  0.91156199  0.48382970  0.99238400  1
  S  S33  1  0.08241355  0.46201380  0.02692956  1
  S  S34  1  0.66589940  0.54606270  0.88738089  1
  S  S35  1  0.33411944  0.47237829  0.11468591  1
  S  S36  1  0.60465738  0.02658658  0.65226865  1
  S  S37  1  0.40096255  0.04957280  0.33570771  1
  S  S38  1  0.24606376  0.55916524  0.32579852  1
  S  S39  1  0.76562445  0.50763569  0.68644753  1
  S  S40  1  0.66481642  0.98335539  0.45544730  1
  S  S41  1  0.32872634  0.93948876  0.55175052  1
