# generated using pymatgen
data_Pr2Mn3(SbS3)4
_symmetry_space_group_name_H-M   'P 1'
_cell_length_a   20.02960800
_cell_length_b   3.90410600
_cell_length_c   14.95364829
_cell_angle_alpha   90.00000000
_cell_angle_beta   126.33350609
_cell_angle_gamma   90.00000000
_symmetry_Int_Tables_number   1
_chemical_formula_structural   Pr2Mn3(SbS3)4
_chemical_formula_sum   'Pr4 Mn6 Sb8 S24'
_cell_volume   942.00006694
_cell_formula_units_Z   2
loop_
 _symmetry_equiv_pos_site_id
 _symmetry_equiv_pos_as_xyz
  1  'x, y, z'
loop_
 _atom_site_type_symbol
 _atom_site_label
 _atom_site_symmetry_multiplicity
 _atom_site_fract_x
 _atom_site_fract_y
 _atom_site_fract_z
 _atom_site_occupancy
  Pr  Pr0  1  0.26792500  0.46619275  0.88704554  1
  Pr  Pr1  1  0.72772879  0.50008674  0.13487195  1
  Pr  Pr2  1  0.76140393  0.05334508  0.86924508  1
  Pr  Pr3  1  0.23330307  0.92121495  0.12763341  1
  Mn  Mn4  1  0.29456596  0.42550890  0.60242197  1
  Mn  Mn5  1  0.69429721  0.51380853  0.36372035  1
  Mn  Mn6  1  0.00445840  0.94450789  0.01395415  1
  Mn  Mn7  1  0.80090193  0.97667045  0.63194083  1
  Mn  Mn8  1  0.20878318  0.05671813  0.39469298  1
  Mn  Mn9  1  0.48322153  0.46097007  0.98654383  1
  Sb  Sb10  1  0.89221705  0.89925963  0.46176986  1
  Sb  Sb11  1  0.11313815  0.97549045  0.54545111  1
  Sb  Sb12  1  0.03328796  0.51374387  0.82555358  1
  Sb  Sb13  1  0.96359679  0.46189954  0.20340751  1
  Sb  Sb14  1  0.40676065  0.57520226  0.44914528  1
  Sb  Sb15  1  0.60446696  0.52068365  0.53816212  1
  Sb  Sb16  1  0.51980669  0.97124623  0.78800475  1
  Sb  Sb17  1  0.47301882  0.01170069  0.17925431  1
  S  S18  1  0.93040223  0.97753524  0.79008734  1
  S  S19  1  0.05906428  0.99388108  0.20363378  1
  S  S20  1  0.41385901  0.98434047  0.97659581  1
  S  S21  1  0.58474593  0.00039196  0.00383798  1
  S  S22  1  0.17341618  0.97860248  0.89929077  1
  S  S23  1  0.82627182  0.01911163  0.10733682  1
  S  S24  1  0.10572240  0.48838920  0.65650725  1
  S  S25  1  0.89405625  0.42191946  0.34772217  1
  S  S26  1  0.73752592  0.01747970  0.31140555  1
  S  S27  1  0.26278541  0.93256959  0.68509844  1
  S  S28  1  0.16748006  0.52476489  0.44332041  1
  S  S29  1  0.81729897  0.48287701  0.54582508  1
  S  S30  1  0.43329957  0.46047234  0.79585694  1
  S  S31  1  0.56367103  0.50600151  0.18543910  1
  S  S32  1  0.91146530  0.48341980  0.99248953  1
  S  S33  1  0.08233431  0.46332512  0.02688769  1
  S  S34  1  0.66583983  0.54564064  0.88728203  1
  S  S35  1  0.33391640  0.47135857  0.11434372  1
  S  S36  1  0.60475793  0.02630166  0.65243241  1
  S  S37  1  0.40091687  0.04867741  0.33557289  1
  S  S38  1  0.24651398  0.55861319  0.32633788  1
  S  S39  1  0.76569724  0.50787019  0.68619550  1
  S  S40  1  0.66452603  0.98410517  0.45509586  1
  S  S41  1  0.32852168  0.93998640  0.55147101  1
