# generated using pymatgen
data_Pr2Mn3(SbS3)4
_symmetry_space_group_name_H-M   'P 1'
_cell_length_a   20.02960800
_cell_length_b   3.90410600
_cell_length_c   14.95364829
_cell_angle_alpha   90.00000000
_cell_angle_beta   126.33350609
_cell_angle_gamma   90.00000000
_symmetry_Int_Tables_number   1
_chemical_formula_structural   Pr2Mn3(SbS3)4
_chemical_formula_sum   'Pr4 Mn6 Sb8 S24'
_cell_volume   942.00006694
_cell_formula_units_Z   2
loop_
 _symmetry_equiv_pos_site_id
 _symmetry_equiv_pos_as_xyz
  1  'x, y, z'
loop_
 _atom_site_type_symbol
 _atom_site_label
 _atom_site_symmetry_multiplicity
 _atom_site_fract_x
 _atom_site_fract_y
 _atom_site_fract_z
 _atom_site_occupancy
  Pr  Pr0  1  0.26778912  0.46618278  0.88683620  1
  Pr  Pr1  1  0.72777402  0.49995734  0.13473038  1
  Pr  Pr2  1  0.76136178  0.05296670  0.86938728  1
  Pr  Pr3  1  0.23330702  0.92112497  0.12755577  1
  Mn  Mn4  1  0.29451832  0.42468257  0.60236767  1
  Mn  Mn5  1  0.69431198  0.51409371  0.36372395  1
  Mn  Mn6  1  0.00423265  0.94296752  0.01388699  1
  Mn  Mn7  1  0.80077633  0.97659742  0.63167835  1
  Mn  Mn8  1  0.20893448  0.05634922  0.39478649  1
  Mn  Mn9  1  0.48329178  0.46115513  0.98670962  1
  Sb  Sb10  1  0.89233625  0.89911206  0.46175147  1
  Sb  Sb11  1  0.11311005  0.97533889  0.54535122  1
  Sb  Sb12  1  0.03312297  0.51394617  0.82552761  1
  Sb  Sb13  1  0.96336342  0.46192062  0.20322454  1
  Sb  Sb14  1  0.40681143  0.57525090  0.44915263  1
  Sb  Sb15  1  0.60441301  0.52022697  0.53799906  1
  Sb  Sb16  1  0.51986002  0.97168697  0.78800401  1
  Sb  Sb17  1  0.47291912  0.01134555  0.17911882  1
  S  S18  1  0.93020130  0.97828786  0.78956514  1
  S  S19  1  0.05929547  0.99346216  0.20362443  1
  S  S20  1  0.41401256  0.98486164  0.97669229  1
  S  S21  1  0.58481448  0.99924702  0.00342895  1
  S  S22  1  0.17351836  0.98018782  0.89931634  1
  S  S23  1  0.82613232  0.01933207  0.10754511  1
  S  S24  1  0.10561050  0.48822553  0.65618237  1
  S  S25  1  0.89415109  0.42141337  0.34776180  1
  S  S26  1  0.73755023  0.01655947  0.31178577  1
  S  S27  1  0.26274740  0.93261965  0.68509181  1
  S  S28  1  0.16777247  0.52437417  0.44373107  1
  S  S29  1  0.81722524  0.48398120  0.54555800  1
  S  S30  1  0.43332593  0.45997366  0.79616358  1
  S  S31  1  0.56359712  0.50605658  0.18544921  1
  S  S32  1  0.91140118  0.48287061  0.99272805  1
  S  S33  1  0.08225390  0.46431858  0.02683180  1
  S  S34  1  0.66576198  0.54497695  0.88715834  1
  S  S35  1  0.33371899  0.47035629  0.11400849  1
  S  S36  1  0.60492617  0.02612760  0.65271955  1
  S  S37  1  0.40090418  0.04762943  0.33558273  1
  S  S38  1  0.24688344  0.55826756  0.32668538  1
  S  S39  1  0.76560607  0.50792451  0.68589397  1
  S  S40  1  0.66435446  0.98480498  0.45484819  1
  S  S41  1  0.32836599  0.94011722  0.55125156  1
