# generated using pymatgen
data_Pr2Mn3(SbS3)4
_symmetry_space_group_name_H-M   'P 1'
_cell_length_a   20.02960800
_cell_length_b   3.90410600
_cell_length_c   14.95364829
_cell_angle_alpha   90.00000000
_cell_angle_beta   126.33350609
_cell_angle_gamma   90.00000000
_symmetry_Int_Tables_number   1
_chemical_formula_structural   Pr2Mn3(SbS3)4
_chemical_formula_sum   'Pr4 Mn6 Sb8 S24'
_cell_volume   942.00006694
_cell_formula_units_Z   2
loop_
 _symmetry_equiv_pos_site_id
 _symmetry_equiv_pos_as_xyz
  1  'x, y, z'
loop_
 _atom_site_type_symbol
 _atom_site_label
 _atom_site_symmetry_multiplicity
 _atom_site_fract_x
 _atom_site_fract_y
 _atom_site_fract_z
 _atom_site_occupancy
  Pr  Pr0  1  0.26762366  0.46603647  0.88656935  1
  Pr  Pr1  1  0.72784194  0.49987608  0.13454229  1
  Pr  Pr2  1  0.76134795  0.05280955  0.86954548  1
  Pr  Pr3  1  0.23337541  0.92105434  0.12752151  1
  Mn  Mn4  1  0.29444528  0.42414081  0.60239047  1
  Mn  Mn5  1  0.69432365  0.51433762  0.36377578  1
  Mn  Mn6  1  0.00408816  0.94129586  0.01391571  1
  Mn  Mn7  1  0.80060089  0.97634732  0.63142771  1
  Mn  Mn8  1  0.20901178  0.05597387  0.39488611  1
  Mn  Mn9  1  0.48336581  0.46154795  0.98681768  1
  Sb  Sb10  1  0.89251832  0.89913465  0.46187691  1
  Sb  Sb11  1  0.11310220  0.97525776  0.54524665  1
  Sb  Sb12  1  0.03305226  0.51426518  0.82553895  1
  Sb  Sb13  1  0.96312440  0.46189027  0.20300731  1
  Sb  Sb14  1  0.40687157  0.57522763  0.44916534  1
  Sb  Sb15  1  0.60435239  0.51965563  0.53777904  1
  Sb  Sb16  1  0.51992644  0.97227656  0.78803487  1
  Sb  Sb17  1  0.47278112  0.01112800  0.17899654  1
  S  S18  1  0.93008097  0.97874895  0.78905812  1
  S  S19  1  0.05951792  0.99345118  0.20361711  1
  S  S20  1  0.41405849  0.98496725  0.97671241  1
  S  S21  1  0.58497886  0.99806391  0.00313884  1
  S  S22  1  0.17361704  0.98098451  0.89936196  1
  S  S23  1  0.82604622  0.01968953  0.10765066  1
  S  S24  1  0.10558760  0.48784827  0.65597321  1
  S  S25  1  0.89431629  0.42118256  0.34787649  1
  S  S26  1  0.73761434  0.01585071  0.31217349  1
  S  S27  1  0.26277687  0.93247124  0.68525617  1
  S  S28  1  0.16799438  0.52389678  0.44401172  1
  S  S29  1  0.81730503  0.48518449  0.54539101  1
  S  S30  1  0.43351135  0.45974078  0.79663407  1
  S  S31  1  0.56356128  0.50584822  0.18542781  1
  S  S32  1  0.91141469  0.48257429  0.99301571  1
  S  S33  1  0.08213790  0.46547319  0.02659381  1
  S  S34  1  0.66579593  0.54454612  0.88716035  1
  S  S35  1  0.33348563  0.46947050  0.11371001  1
  S  S36  1  0.60523111  0.02636796  0.65300495  1
  S  S37  1  0.40082611  0.04649235  0.33553435  1
  S  S38  1  0.24726277  0.55753193  0.32716382  1
  S  S39  1  0.76546215  0.50798705  0.68572133  1
  S  S40  1  0.66421151  0.98526825  0.45463411  1
  S  S41  1  0.32820702  0.93973425  0.55108340  1
