# generated using pymatgen
data_Pr2Mn3(SbS3)4
_symmetry_space_group_name_H-M   'P 1'
_cell_length_a   20.02960800
_cell_length_b   3.90410600
_cell_length_c   14.95364829
_cell_angle_alpha   90.00000000
_cell_angle_beta   126.33350609
_cell_angle_gamma   90.00000000
_symmetry_Int_Tables_number   1
_chemical_formula_structural   Pr2Mn3(SbS3)4
_chemical_formula_sum   'Pr4 Mn6 Sb8 S24'
_cell_volume   942.00006694
_cell_formula_units_Z   2
loop_
 _symmetry_equiv_pos_site_id
 _symmetry_equiv_pos_as_xyz
  1  'x, y, z'
loop_
 _atom_site_type_symbol
 _atom_site_label
 _atom_site_symmetry_multiplicity
 _atom_site_fract_x
 _atom_site_fract_y
 _atom_site_fract_z
 _atom_site_occupancy
  Pr  Pr0  1  0.26750140  0.46593113  0.88637405  1
  Pr  Pr1  1  0.72792422  0.50008846  0.13434882  1
  Pr  Pr2  1  0.76130352  0.05286692  0.86963372  1
  Pr  Pr3  1  0.23342418  0.92097678  0.12743806  1
  Mn  Mn4  1  0.29434858  0.42389055  0.60229801  1
  Mn  Mn5  1  0.69436265  0.51458097  0.36383197  1
  Mn  Mn6  1  0.00396173  0.93941916  0.01386715  1
  Mn  Mn7  1  0.80042861  0.97600510  0.63124317  1
  Mn  Mn8  1  0.20913295  0.05549549  0.39499963  1
  Mn  Mn9  1  0.48343105  0.46196609  0.98689750  1
  Sb  Sb10  1  0.89272285  0.89884906  0.46205676  1
  Sb  Sb11  1  0.11309245  0.97505422  0.54522977  1
  Sb  Sb12  1  0.03298692  0.51460619  0.82555021  1
  Sb  Sb13  1  0.96289998  0.46188593  0.20277521  1
  Sb  Sb14  1  0.40690404  0.57529655  0.44917589  1
  Sb  Sb15  1  0.60427901  0.51929402  0.53761002  1
  Sb  Sb16  1  0.51997530  0.97294188  0.78799250  1
  Sb  Sb17  1  0.47262215  0.01098950  0.17892891  1
  S  S18  1  0.93004836  0.97882069  0.78875855  1
  S  S19  1  0.05978515  0.99310490  0.20370524  1
  S  S20  1  0.41409696  0.98485136  0.97671499  1
  S  S21  1  0.58507342  0.99700088  0.00280639  1
  S  S22  1  0.17372100  0.98129503  0.89932093  1
  S  S23  1  0.82597737  0.01966732  0.10764924  1
  S  S24  1  0.10557355  0.48683937  0.65570956  1
  S  S25  1  0.89442016  0.42170277  0.34794758  1
  S  S26  1  0.73759058  0.01577054  0.31241116  1
  S  S27  1  0.26286093  0.93238406  0.68533747  1
  S  S28  1  0.16804183  0.52333563  0.44413653  1
  S  S29  1  0.81742683  0.48571070  0.54525151  1
  S  S30  1  0.43366316  0.45959541  0.79708671  1
  S  S31  1  0.56354635  0.50579359  0.18546152  1
  S  S32  1  0.91134406  0.48288082  0.99316197  1
  S  S33  1  0.08208938  0.46573745  0.02643727  1
  S  S34  1  0.66588060  0.54376738  0.88711791  1
  S  S35  1  0.33325261  0.46827016  0.11355177  1
  S  S36  1  0.60554008  0.02660860  0.65334015  1
  S  S37  1  0.40076572  0.04545737  0.33545854  1
  S  S38  1  0.24765537  0.55689921  0.32770152  1
  S  S39  1  0.76523366  0.50831652  0.68547627  1
  S  S40  1  0.66411556  0.98597433  0.45460174  1
  S  S41  1  0.32813972  0.93914874  0.55093881  1
