# generated using pymatgen
data_Pr2Mn3(SbS3)4
_symmetry_space_group_name_H-M   'P 1'
_cell_length_a   20.02960800
_cell_length_b   3.90410600
_cell_length_c   14.95364829
_cell_angle_alpha   90.00000000
_cell_angle_beta   126.33350609
_cell_angle_gamma   90.00000000
_symmetry_Int_Tables_number   1
_chemical_formula_structural   Pr2Mn3(SbS3)4
_chemical_formula_sum   'Pr4 Mn6 Sb8 S24'
_cell_volume   942.00006694
_cell_formula_units_Z   2
loop_
 _symmetry_equiv_pos_site_id
 _symmetry_equiv_pos_as_xyz
  1  'x, y, z'
loop_
 _atom_site_type_symbol
 _atom_site_label
 _atom_site_symmetry_multiplicity
 _atom_site_fract_x
 _atom_site_fract_y
 _atom_site_fract_z
 _atom_site_occupancy
  Pr  Pr0  1  0.26739216  0.46587471  0.88622522  1
  Pr  Pr1  1  0.72798425  0.50015883  0.13415223  1
  Pr  Pr2  1  0.76127181  0.05290827  0.86974614  1
  Pr  Pr3  1  0.23347899  0.92112307  0.12739369  1
  Mn  Mn4  1  0.29424737  0.42422866  0.60229314  1
  Mn  Mn5  1  0.69440186  0.51491710  0.36388207  1
  Mn  Mn6  1  0.00390887  0.93760174  0.01389897  1
  Mn  Mn7  1  0.80019192  0.97594433  0.63095847  1
  Mn  Mn8  1  0.20920528  0.05476092  0.39510582  1
  Mn  Mn9  1  0.48352365  0.46227063  0.98698553  1
  Sb  Sb10  1  0.89295071  0.89867807  0.46218302  1
  Sb  Sb11  1  0.11308036  0.97491824  0.54516992  1
  Sb  Sb12  1  0.03293038  0.51503993  0.82563962  1
  Sb  Sb13  1  0.96270015  0.46179180  0.20258543  1
  Sb  Sb14  1  0.40695706  0.57536771  0.44923961  1
  Sb  Sb15  1  0.60416997  0.51871309  0.53741355  1
  Sb  Sb16  1  0.52000284  0.97362079  0.78791969  1
  Sb  Sb17  1  0.47240832  0.01072507  0.17877854  1
  S  S18  1  0.93000165  0.97897185  0.78839919  1
  S  S19  1  0.06002700  0.99260208  0.20378345  1
  S  S20  1  0.41406033  0.98462440  0.97664024  1
  S  S21  1  0.58513075  0.99601007  0.00262501  1
  S  S22  1  0.17382397  0.98189360  0.89930035  1
  S  S23  1  0.82596150  0.01939875  0.10770334  1
  S  S24  1  0.10549292  0.48578157  0.65543835  1
  S  S25  1  0.89452620  0.42218363  0.34793796  1
  S  S26  1  0.73760203  0.01564767  0.31269086  1
  S  S27  1  0.26297320  0.93230456  0.68532961  1
  S  S28  1  0.16794906  0.52285161  0.44421099  1
  S  S29  1  0.81755749  0.48624078  0.54516495  1
  S  S30  1  0.43376021  0.45983181  0.79753020  1
  S  S31  1  0.56357200  0.50603546  0.18538589  1
  S  S32  1  0.91125787  0.48350395  0.99328667  1
  S  S33  1  0.08197921  0.46562899  0.02616297  1
  S  S34  1  0.66597985  0.54346129  0.88706772  1
  S  S35  1  0.33298005  0.46697544  0.11325156  1
  S  S36  1  0.60575811  0.02703767  0.65359178  1
  S  S37  1  0.40059839  0.04485918  0.33531956  1
  S  S38  1  0.24800680  0.55610041  0.32819403  1
  S  S39  1  0.76504353  0.50852627  0.68534469  1
  S  S40  1  0.66411735  0.98636406  0.45468969  1
  S  S41  1  0.32808815  0.93877165  0.55075719  1
