# generated using pymatgen
data_Pr2Mn3(SbS3)4
_symmetry_space_group_name_H-M   'P 1'
_cell_length_a   20.02960800
_cell_length_b   3.90410600
_cell_length_c   14.95364829
_cell_angle_alpha   90.00000000
_cell_angle_beta   126.33350609
_cell_angle_gamma   90.00000000
_symmetry_Int_Tables_number   1
_chemical_formula_structural   Pr2Mn3(SbS3)4
_chemical_formula_sum   'Pr4 Mn6 Sb8 S24'
_cell_volume   942.00006694
_cell_formula_units_Z   2
loop_
 _symmetry_equiv_pos_site_id
 _symmetry_equiv_pos_as_xyz
  1  'x, y, z'
loop_
 _atom_site_type_symbol
 _atom_site_label
 _atom_site_symmetry_multiplicity
 _atom_site_fract_x
 _atom_site_fract_y
 _atom_site_fract_z
 _atom_site_occupancy
  Pr  Pr0  1  0.26478751  0.48166643  0.87016975  1
  Pr  Pr1  1  0.73753995  0.51030678  0.13605200  1
  Pr  Pr2  1  0.76188885  0.00892701  0.86130993  1
  Pr  Pr3  1  0.23670488  0.99856565  0.13950636  1
  Mn  Mn4  1  0.29560651  0.49472643  0.60977412  1
  Mn  Mn5  1  0.69496820  0.52250829  0.37895781  1
  Mn  Mn6  1  0.00377706  0.00230681  0.00094595  1
  Mn  Mn7  1  0.80289420  0.99003122  0.61655500  1
  Mn  Mn8  1  0.19661442  0.97609820  0.37912705  1
  Mn  Mn9  1  0.50271255  0.47404632  0.99502042  1
  Sb  Sb10  1  0.89295059  0.00257113  0.45453697  1
  Sb  Sb11  1  0.11206542  0.96998689  0.55259717  1
  Sb  Sb12  1  0.04038956  0.50329716  0.81684598  1
  Sb  Sb13  1  0.96250998  0.53142332  0.18761641  1
  Sb  Sb14  1  0.39857168  0.50066796  0.45759101  1
  Sb  Sb15  1  0.60646092  0.48810978  0.54802966  1
  Sb  Sb16  1  0.53578182  0.00868083  0.81374620  1
  Sb  Sb17  1  0.46226894  0.00533216  0.18214810  1
  S  S18  1  0.93624325  0.97480337  0.79774861  1
  S  S19  1  0.06528963  0.98852896  0.19247537  1
  S  S20  1  0.40979131  0.01086259  0.97924977  1
  S  S21  1  0.59235761  0.99556311  0.02208210  1
  S  S22  1  0.17253551  0.98896144  0.89654953  1
  S  S23  1  0.82659725  0.01914611  0.10039180  1
  S  S24  1  0.08528831  0.45564798  0.64548573  1
  S  S25  1  0.91396717  0.49006270  0.36065237  1
  S  S26  1  0.74256673  0.94911204  0.29996181  1
  S  S27  1  0.25766234  0.00161773  0.70160619  1
  S  S28  1  0.16533006  0.48529486  0.44434789  1
  S  S29  1  0.83004248  0.47429914  0.54967704  1
  S  S30  1  0.43154679  0.50704120  0.79983098  1
  S  S31  1  0.56207466  0.52712330  0.19134487  1
  S  S32  1  0.90339934  0.49296540  0.97894092  1
  S  S33  1  0.08554739  0.49496566  0.01707253  1
  S  S34  1  0.66424199  0.50523328  0.89195583  1
  S  S35  1  0.32917692  0.52809045  0.10128547  1
  S  S36  1  0.58942415  0.00371398  0.64710237  1
  S  S37  1  0.40916096  0.95892452  0.35101990  1
  S  S38  1  0.24354104  0.48454590  0.30518883  1
  S  S39  1  0.75993238  0.49912736  0.69737093  1
  S  S40  1  0.67265056  0.00982618  0.46299658  1
  S  S41  1  0.33050540  0.98708421  0.54113766  1
