# generated using pymatgen
data_Pr2Mn3(SbS3)4
_symmetry_space_group_name_H-M   'P 1'
_cell_length_a   20.02960800
_cell_length_b   3.90410600
_cell_length_c   14.95364829
_cell_angle_alpha   90.00000000
_cell_angle_beta   126.33350609
_cell_angle_gamma   90.00000000
_symmetry_Int_Tables_number   1
_chemical_formula_structural   Pr2Mn3(SbS3)4
_chemical_formula_sum   'Pr4 Mn6 Sb8 S24'
_cell_volume   942.00006694
_cell_formula_units_Z   2
loop_
 _symmetry_equiv_pos_site_id
 _symmetry_equiv_pos_as_xyz
  1  'x, y, z'
loop_
 _atom_site_type_symbol
 _atom_site_label
 _atom_site_symmetry_multiplicity
 _atom_site_fract_x
 _atom_site_fract_y
 _atom_site_fract_z
 _atom_site_occupancy
  Pr  Pr0  1  0.26730624  0.46600991  0.88602083  1
  Pr  Pr1  1  0.72804090  0.50048613  0.13403369  1
  Pr  Pr2  1  0.76128386  0.05293816  0.86988524  1
  Pr  Pr3  1  0.23352591  0.92090826  0.12742378  1
  Mn  Mn4  1  0.29413144  0.42433544  0.60215701  1
  Mn  Mn5  1  0.69453940  0.51547091  0.36407586  1
  Mn  Mn6  1  0.00387121  0.93581107  0.01390378  1
  Mn  Mn7  1  0.79988447  0.97576766  0.63058786  1
  Mn  Mn8  1  0.20926151  0.05391317  0.39518706  1
  Mn  Mn9  1  0.48358424  0.46247384  0.98706979  1
  Sb  Sb10  1  0.89315447  0.89861204  0.46228961  1
  Sb  Sb11  1  0.11312911  0.97488011  0.54517067  1
  Sb  Sb12  1  0.03285292  0.51531753  0.82572267  1
  Sb  Sb13  1  0.96258418  0.46162399  0.20254432  1
  Sb  Sb14  1  0.40700805  0.57547997  0.44932281  1
  Sb  Sb15  1  0.60404368  0.51839688  0.53726600  1
  Sb  Sb16  1  0.52006144  0.97421504  0.78782143  1
  Sb  Sb17  1  0.47227904  0.01054981  0.17861362  1
  S  S18  1  0.93002086  0.97949413  0.78809960  1
  S  S19  1  0.06030709  0.99223213  0.20391541  1
  S  S20  1  0.41384159  0.98491647  0.97646849  1
  S  S21  1  0.58519795  0.99500278  0.00258458  1
  S  S22  1  0.17387705  0.98306232  0.89935870  1
  S  S23  1  0.82590874  0.01929181  0.10760765  1
  S  S24  1  0.10538691  0.48454789  0.65503726  1
  S  S25  1  0.89467090  0.42267897  0.34800512  1
  S  S26  1  0.73756671  0.01575733  0.31308334  1
  S  S27  1  0.26304813  0.93204206  0.68518787  1
  S  S28  1  0.16788577  0.52316722  0.44435705  1
  S  S29  1  0.81757563  0.48612507  0.54492865  1
  S  S30  1  0.43375122  0.45984808  0.79773709  1
  S  S31  1  0.56359815  0.50569548  0.18543347  1
  S  S32  1  0.91122462  0.48428905  0.99336225  1
  S  S33  1  0.08181129  0.46543332  0.02578508  1
  S  S34  1  0.66598730  0.54400985  0.88700938  1
  S  S35  1  0.33278553  0.46534897  0.11294553  1
  S  S36  1  0.60598172  0.02660580  0.65398742  1
  S  S37  1  0.40056123  0.04436477  0.33519824  1
  S  S38  1  0.24832123  0.55565534  0.32858154  1
  S  S39  1  0.76491177  0.50872097  0.68534386  1
  S  S40  1  0.66408291  0.98634994  0.45475457  1
  S  S41  1  0.32799235  0.93925069  0.55052135  1
