# generated using pymatgen
data_Pr2Mn3(SbS3)4
_symmetry_space_group_name_H-M   'P 1'
_cell_length_a   20.02960800
_cell_length_b   3.90410600
_cell_length_c   14.95364829
_cell_angle_alpha   90.00000000
_cell_angle_beta   126.33350609
_cell_angle_gamma   90.00000000
_symmetry_Int_Tables_number   1
_chemical_formula_structural   Pr2Mn3(SbS3)4
_chemical_formula_sum   'Pr4 Mn6 Sb8 S24'
_cell_volume   942.00006694
_cell_formula_units_Z   2
loop_
 _symmetry_equiv_pos_site_id
 _symmetry_equiv_pos_as_xyz
  1  'x, y, z'
loop_
 _atom_site_type_symbol
 _atom_site_label
 _atom_site_symmetry_multiplicity
 _atom_site_fract_x
 _atom_site_fract_y
 _atom_site_fract_z
 _atom_site_occupancy
  Pr  Pr0  1  0.26720735  0.46626495  0.88582575  1
  Pr  Pr1  1  0.72804882  0.50083548  0.13391987  1
  Pr  Pr2  1  0.76128862  0.05303455  0.86999722  1
  Pr  Pr3  1  0.23354987  0.92062051  0.12743590  1
  Mn  Mn4  1  0.29402128  0.42471474  0.60206727  1
  Mn  Mn5  1  0.69458097  0.51612765  0.36404666  1
  Mn  Mn6  1  0.00380652  0.93403784  0.01389111  1
  Mn  Mn7  1  0.79961444  0.97556339  0.63013731  1
  Mn  Mn8  1  0.20937981  0.05316139  0.39527176  1
  Mn  Mn9  1  0.48372640  0.46277537  0.98714135  1
  Sb  Sb10  1  0.89329808  0.89861494  0.46239225  1
  Sb  Sb11  1  0.11314061  0.97473729  0.54519452  1
  Sb  Sb12  1  0.03281445  0.51573632  0.82584649  1
  Sb  Sb13  1  0.96251706  0.46142477  0.20256770  1
  Sb  Sb14  1  0.40707091  0.57508244  0.44936242  1
  Sb  Sb15  1  0.60394751  0.51810663  0.53712931  1
  Sb  Sb16  1  0.52018776  0.97475853  0.78776088  1
  Sb  Sb17  1  0.47214330  0.01052372  0.17844480  1
  S  S18  1  0.92993583  0.97990717  0.78775235  1
  S  S19  1  0.06072191  0.99217395  0.20424763  1
  S  S20  1  0.41347851  0.98565850  0.97620468  1
  S  S21  1  0.58535807  0.99399230  0.00257655  1
  S  S22  1  0.17406344  0.98421135  0.89936460  1
  S  S23  1  0.82587747  0.01918927  0.10750109  1
  S  S24  1  0.10535863  0.48304842  0.65457222  1
  S  S25  1  0.89474931  0.42269638  0.34786084  1
  S  S26  1  0.73750908  0.01602946  0.31351697  1
  S  S27  1  0.26309442  0.93144542  0.68503348  1
  S  S28  1  0.16773721  0.52344044  0.44444512  1
  S  S29  1  0.81756394  0.48613462  0.54482839  1
  S  S30  1  0.43377326  0.45980697  0.79797218  1
  S  S31  1  0.56350953  0.50529017  0.18549023  1
  S  S32  1  0.91107662  0.48544438  0.99332350  1
  S  S33  1  0.08158657  0.46515840  0.02555011  1
  S  S34  1  0.66602858  0.54439223  0.88702181  1
  S  S35  1  0.33257397  0.46423535  0.11262291  1
  S  S36  1  0.60623209  0.02608930  0.65449971  1
  S  S37  1  0.40044986  0.04355098  0.33494361  1
  S  S38  1  0.24867893  0.55493332  0.32892562  1
  S  S39  1  0.76480249  0.50915957  0.68548887  1
  S  S40  1  0.66405130  0.98627634  0.45475273  1
  S  S41  1  0.32782752  0.93955243  0.55021481  1
