# generated using pymatgen
data_Pr2Mn3(SbS3)4
_symmetry_space_group_name_H-M   'P 1'
_cell_length_a   20.02960800
_cell_length_b   3.90410600
_cell_length_c   14.95364829
_cell_angle_alpha   90.00000000
_cell_angle_beta   126.33350609
_cell_angle_gamma   90.00000000
_symmetry_Int_Tables_number   1
_chemical_formula_structural   Pr2Mn3(SbS3)4
_chemical_formula_sum   'Pr4 Mn6 Sb8 S24'
_cell_volume   942.00006694
_cell_formula_units_Z   2
loop_
 _symmetry_equiv_pos_site_id
 _symmetry_equiv_pos_as_xyz
  1  'x, y, z'
loop_
 _atom_site_type_symbol
 _atom_site_label
 _atom_site_symmetry_multiplicity
 _atom_site_fract_x
 _atom_site_fract_y
 _atom_site_fract_z
 _atom_site_occupancy
  Pr  Pr0  1  0.26709121  0.46650238  0.88563539  1
  Pr  Pr1  1  0.72807567  0.50115274  0.13390206  1
  Pr  Pr2  1  0.76132358  0.05310560  0.87013986  1
  Pr  Pr3  1  0.23363574  0.92027304  0.12753704  1
  Mn  Mn4  1  0.29405898  0.42563006  0.60223322  1
  Mn  Mn5  1  0.69468764  0.51679550  0.36412215  1
  Mn  Mn6  1  0.00362139  0.93239860  0.01361740  1
  Mn  Mn7  1  0.79928813  0.97522993  0.62971261  1
  Mn  Mn8  1  0.20950319  0.05280443  0.39530508  1
  Mn  Mn9  1  0.48388097  0.46306597  0.98715905  1
  Sb  Sb10  1  0.89344724  0.89861517  0.46250035  1
  Sb  Sb11  1  0.11318875  0.97474956  0.54525998  1
  Sb  Sb12  1  0.03279001  0.51600317  0.82598513  1
  Sb  Sb13  1  0.96250322  0.46122753  0.20259553  1
  Sb  Sb14  1  0.40713638  0.57474245  0.44945175  1
  Sb  Sb15  1  0.60387313  0.51772486  0.53704395  1
  Sb  Sb16  1  0.52032152  0.97528712  0.78774026  1
  Sb  Sb17  1  0.47197277  0.01042914  0.17819996  1
  S  S18  1  0.92990429  0.98027732  0.78746257  1
  S  S19  1  0.06116192  0.99258361  0.20470808  1
  S  S20  1  0.41313998  0.98654402  0.97590492  1
  S  S21  1  0.58551594  0.99293757  0.00265039  1
  S  S22  1  0.17431556  0.98543023  0.89954744  1
  S  S23  1  0.82585832  0.01929792  0.10726877  1
  S  S24  1  0.10547022  0.48189083  0.65419781  1
  S  S25  1  0.89478891  0.42318559  0.34768137  1
  S  S26  1  0.73754276  0.01659065  0.31394766  1
  S  S27  1  0.26311840  0.93168688  0.68484713  1
  S  S28  1  0.16772220  0.52354825  0.44461816  1
  S  S29  1  0.81758610  0.48615836  0.54471278  1
  S  S30  1  0.43390959  0.46022616  0.79817414  1
  S  S31  1  0.56346484  0.50483657  0.18554927  1
  S  S32  1  0.91100764  0.48660716  0.99333408  1
  S  S33  1  0.08139819  0.46514158  0.02527687  1
  S  S34  1  0.66606436  0.54483599  0.88710193  1
  S  S35  1  0.33236187  0.46355360  0.11242660  1
  S  S36  1  0.60660398  0.02512048  0.65508465  1
  S  S37  1  0.40032076  0.04304543  0.33465827  1
  S  S38  1  0.24905666  0.55429880  0.32924356  1
  S  S39  1  0.76475202  0.50909471  0.68554901  1
  S  S40  1  0.66396686  0.98640892  0.45469721  1
  S  S41  1  0.32770714  0.93922425  0.55009478  1
