# generated using pymatgen
data_Pr2Mn3(SbS3)4
_symmetry_space_group_name_H-M   'P 1'
_cell_length_a   20.02960800
_cell_length_b   3.90410600
_cell_length_c   14.95364829
_cell_angle_alpha   90.00000000
_cell_angle_beta   126.33350609
_cell_angle_gamma   90.00000000
_symmetry_Int_Tables_number   1
_chemical_formula_structural   Pr2Mn3(SbS3)4
_chemical_formula_sum   'Pr4 Mn6 Sb8 S24'
_cell_volume   942.00006694
_cell_formula_units_Z   2
loop_
 _symmetry_equiv_pos_site_id
 _symmetry_equiv_pos_as_xyz
  1  'x, y, z'
loop_
 _atom_site_type_symbol
 _atom_site_label
 _atom_site_symmetry_multiplicity
 _atom_site_fract_x
 _atom_site_fract_y
 _atom_site_fract_z
 _atom_site_occupancy
  Pr  Pr0  1  0.26702858  0.46669936  0.88542818  1
  Pr  Pr1  1  0.72809470  0.50144676  0.13387233  1
  Pr  Pr2  1  0.76133479  0.05316232  0.87025126  1
  Pr  Pr3  1  0.23368548  0.92000430  0.12762066  1
  Mn  Mn4  1  0.29406498  0.42627803  0.60240677  1
  Mn  Mn5  1  0.69474916  0.51779592  0.36405226  1
  Mn  Mn6  1  0.00342490  0.93104684  0.01339947  1
  Mn  Mn7  1  0.79907772  0.97478499  0.62937102  1
  Mn  Mn8  1  0.20952497  0.05257906  0.39523773  1
  Mn  Mn9  1  0.48402341  0.46324932  0.98721491  1
  Sb  Sb10  1  0.89359030  0.89869939  0.46255763  1
  Sb  Sb11  1  0.11313406  0.97459435  0.54529332  1
  Sb  Sb12  1  0.03281201  0.51647037  0.82612645  1
  Sb  Sb13  1  0.96247452  0.46089879  0.20258257  1
  Sb  Sb14  1  0.40710760  0.57421625  0.44942611  1
  Sb  Sb15  1  0.60379905  0.51726891  0.53694853  1
  Sb  Sb16  1  0.52041521  0.97560319  0.78770380  1
  Sb  Sb17  1  0.47179732  0.01039261  0.17792566  1
  S  S18  1  0.92987526  0.98019883  0.78716108  1
  S  S19  1  0.06160404  0.99307226  0.20507176  1
  S  S20  1  0.41299244  0.98771405  0.97575199  1
  S  S21  1  0.58563340  0.99272769  0.00266853  1
  S  S22  1  0.17450937  0.98673428  0.89973166  1
  S  S23  1  0.82594739  0.01955214  0.10716940  1
  S  S24  1  0.10561831  0.48091590  0.65381703  1
  S  S25  1  0.89482072  0.42366579  0.34730957  1
  S  S26  1  0.73761019  0.01668615  0.31440177  1
  S  S27  1  0.26314328  0.93144998  0.68462302  1
  S  S28  1  0.16758414  0.52350223  0.44471033  1
  S  S29  1  0.81769496  0.48607255  0.54470926  1
  S  S30  1  0.43397614  0.46058276  0.79833545  1
  S  S31  1  0.56341984  0.50456183  0.18561070  1
  S  S32  1  0.91100918  0.48769097  0.99335517  1
  S  S33  1  0.08114017  0.46528953  0.02480057  1
  S  S34  1  0.66603765  0.54495724  0.88707525  1
  S  S35  1  0.33222300  0.46281431  0.11222410  1
  S  S36  1  0.60689512  0.02394011  0.65554966  1
  S  S37  1  0.40019179  0.04291783  0.33450810  1
  S  S38  1  0.24939351  0.55363024  0.32953945  1
  S  S39  1  0.76461560  0.50899996  0.68552807  1
  S  S40  1  0.66380418  0.98654802  0.45461318  1
  S  S41  1  0.32775013  0.93823384  0.54996622  1
