# generated using pymatgen
data_Pr2Mn3(SbS3)4
_symmetry_space_group_name_H-M   'P 1'
_cell_length_a   20.02960800
_cell_length_b   3.90410600
_cell_length_c   14.95364829
_cell_angle_alpha   90.00000000
_cell_angle_beta   126.33350609
_cell_angle_gamma   90.00000000
_symmetry_Int_Tables_number   1
_chemical_formula_structural   Pr2Mn3(SbS3)4
_chemical_formula_sum   'Pr4 Mn6 Sb8 S24'
_cell_volume   942.00006694
_cell_formula_units_Z   2
loop_
 _symmetry_equiv_pos_site_id
 _symmetry_equiv_pos_as_xyz
  1  'x, y, z'
loop_
 _atom_site_type_symbol
 _atom_site_label
 _atom_site_symmetry_multiplicity
 _atom_site_fract_x
 _atom_site_fract_y
 _atom_site_fract_z
 _atom_site_occupancy
  Pr  Pr0  1  0.26697127  0.46714020  0.88517358  1
  Pr  Pr1  1  0.72810887  0.50191948  0.13383544  1
  Pr  Pr2  1  0.76134559  0.05322621  0.87036764  1
  Pr  Pr3  1  0.23378774  0.91999247  0.12773199  1
  Mn  Mn4  1  0.29416510  0.42730668  0.60257806  1
  Mn  Mn5  1  0.69468886  0.51879159  0.36385539  1
  Mn  Mn6  1  0.00330194  0.92964894  0.01332056  1
  Mn  Mn7  1  0.79900866  0.97460880  0.62903285  1
  Mn  Mn8  1  0.20949755  0.05279844  0.39503316  1
  Mn  Mn9  1  0.48415807  0.46341764  0.98723959  1
  Sb  Sb10  1  0.89367139  0.89861681  0.46259091  1
  Sb  Sb11  1  0.11310941  0.97450277  0.54530692  1
  Sb  Sb12  1  0.03287380  0.51671595  0.82626081  1
  Sb  Sb13  1  0.96240943  0.46072242  0.20255664  1
  Sb  Sb14  1  0.40715215  0.57386633  0.44947610  1
  Sb  Sb15  1  0.60372482  0.51684188  0.53687754  1
  Sb  Sb16  1  0.52054293  0.97618713  0.78768186  1
  Sb  Sb17  1  0.47160553  0.01035189  0.17763176  1
  S  S18  1  0.92994965  0.97966031  0.78702865  1
  S  S19  1  0.06195806  0.99329039  0.20541823  1
  S  S20  1  0.41278606  0.98839285  0.97566251  1
  S  S21  1  0.58575316  0.99242424  0.00271818  1
  S  S22  1  0.17469631  0.98828630  0.89992031  1
  S  S23  1  0.82610021  0.01965321  0.10710669  1
  S  S24  1  0.10574003  0.48009367  0.65345589  1
  S  S25  1  0.89492583  0.42449251  0.34701543  1
  S  S26  1  0.73772821  0.01653779  0.31490098  1
  S  S27  1  0.26307381  0.93111846  0.68436948  1
  S  S28  1  0.16755843  0.52340277  0.44489729  1
  S  S29  1  0.81764956  0.48559058  0.54456446  1
  S  S30  1  0.43410182  0.46088479  0.79841944  1
  S  S31  1  0.56353658  0.50387554  0.18577417  1
  S  S32  1  0.91110283  0.48862130  0.99331242  1
  S  S33  1  0.08093905  0.46572473  0.02427442  1
  S  S34  1  0.66595899  0.54494499  0.88698703  1
  S  S35  1  0.33216846  0.46227055  0.11194359  1
  S  S36  1  0.60717287  0.02334800  0.65592153  1
  S  S37  1  0.40003893  0.04310156  0.33442104  1
  S  S38  1  0.24981067  0.55276071  0.32986411  1
  S  S39  1  0.76461698  0.50915624  0.68573700  1
  S  S40  1  0.66359221  0.98632295  0.45461111  1
  S  S41  1  0.32785530  0.93707950  0.54985682  1
