# generated using pymatgen
data_Pr2Mn3(SbS3)4
_symmetry_space_group_name_H-M   'P 1'
_cell_length_a   20.02960800
_cell_length_b   3.90410600
_cell_length_c   14.95364829
_cell_angle_alpha   90.00000000
_cell_angle_beta   126.33350609
_cell_angle_gamma   90.00000000
_symmetry_Int_Tables_number   1
_chemical_formula_structural   Pr2Mn3(SbS3)4
_chemical_formula_sum   'Pr4 Mn6 Sb8 S24'
_cell_volume   942.00006694
_cell_formula_units_Z   2
loop_
 _symmetry_equiv_pos_site_id
 _symmetry_equiv_pos_as_xyz
  1  'x, y, z'
loop_
 _atom_site_type_symbol
 _atom_site_label
 _atom_site_symmetry_multiplicity
 _atom_site_fract_x
 _atom_site_fract_y
 _atom_site_fract_z
 _atom_site_occupancy
  Pr  Pr0  1  0.26698171  0.46770811  0.88503027  1
  Pr  Pr1  1  0.72809115  0.50216573  0.13376299  1
  Pr  Pr2  1  0.76138215  0.05373942  0.87048769  1
  Pr  Pr3  1  0.23386940  0.91987547  0.12783330  1
  Mn  Mn4  1  0.29432370  0.42810852  0.60279069  1
  Mn  Mn5  1  0.69459257  0.51968501  0.36356018  1
  Mn  Mn6  1  0.00309682  0.92798188  0.01304933  1
  Mn  Mn7  1  0.79883875  0.97420245  0.62859848  1
  Mn  Mn8  1  0.20947645  0.05297074  0.39481970  1
  Mn  Mn9  1  0.48430690  0.46360845  0.98726151  1
  Sb  Sb10  1  0.89375507  0.89870617  0.46263569  1
  Sb  Sb11  1  0.11311407  0.97424411  0.54538973  1
  Sb  Sb12  1  0.03297757  0.51685872  0.82649391  1
  Sb  Sb13  1  0.96228190  0.46058658  0.20247917  1
  Sb  Sb14  1  0.40718214  0.57358050  0.44952321  1
  Sb  Sb15  1  0.60357307  0.51656292  0.53671746  1
  Sb  Sb16  1  0.52071980  0.97672974  0.78777106  1
  Sb  Sb17  1  0.47139203  0.01059249  0.17735553  1
  S  S18  1  0.93009618  0.97949929  0.78703448  1
  S  S19  1  0.06234499  0.99314446  0.20577307  1
  S  S20  1  0.41261398  0.98889622  0.97563204  1
  S  S21  1  0.58585999  0.99225178  0.00284560  1
  S  S22  1  0.17498232  0.98933510  0.90009244  1
  S  S23  1  0.82617576  0.01946753  0.10688124  1
  S  S24  1  0.10578045  0.47980670  0.65308385  1
  S  S25  1  0.89502120  0.42512557  0.34667555  1
  S  S26  1  0.73772854  0.01714956  0.31520295  1
  S  S27  1  0.26305871  0.93129625  0.68424294  1
  S  S28  1  0.16758661  0.52316034  0.44518452  1
  S  S29  1  0.81768418  0.48533027  0.54435352  1
  S  S30  1  0.43426686  0.46072092  0.79841745  1
  S  S31  1  0.56361725  0.50363387  0.18581508  1
  S  S32  1  0.91135667  0.48965139  0.99329227  1
  S  S33  1  0.08079333  0.46550634  0.02389213  1
  S  S34  1  0.66580093  0.54405391  0.88685770  1
  S  S35  1  0.33213810  0.46213082  0.11170008  1
  S  S36  1  0.60744152  0.02248510  0.65626684  1
  S  S37  1  0.39987581  0.04328827  0.33430958  1
  S  S38  1  0.25024691  0.55182280  0.33028594  1
  S  S39  1  0.76445746  0.50943898  0.68578516  1
  S  S40  1  0.66336592  0.98641429  0.45460868  1
  S  S41  1  0.32793958  0.93595318  0.54976449  1
