# generated using pymatgen
data_Pr2Mn3(SbS3)4
_symmetry_space_group_name_H-M   'P 1'
_cell_length_a   20.02960800
_cell_length_b   3.90410600
_cell_length_c   14.95364829
_cell_angle_alpha   90.00000000
_cell_angle_beta   126.33350609
_cell_angle_gamma   90.00000000
_symmetry_Int_Tables_number   1
_chemical_formula_structural   Pr2Mn3(SbS3)4
_chemical_formula_sum   'Pr4 Mn6 Sb8 S24'
_cell_volume   942.00006694
_cell_formula_units_Z   2
loop_
 _symmetry_equiv_pos_site_id
 _symmetry_equiv_pos_as_xyz
  1  'x, y, z'
loop_
 _atom_site_type_symbol
 _atom_site_label
 _atom_site_symmetry_multiplicity
 _atom_site_fract_x
 _atom_site_fract_y
 _atom_site_fract_z
 _atom_site_occupancy
  Pr  Pr0  1  0.26700713  0.46808887  0.88487729  1
  Pr  Pr1  1  0.72809116  0.50235846  0.13365426  1
  Pr  Pr2  1  0.76141081  0.05428478  0.87055119  1
  Pr  Pr3  1  0.23395453  0.91975497  0.12795384  1
  Mn  Mn4  1  0.29451069  0.42910689  0.60303827  1
  Mn  Mn5  1  0.69456114  0.52050634  0.36332044  1
  Mn  Mn6  1  0.00294082  0.92661324  0.01282285  1
  Mn  Mn7  1  0.79868629  0.97390844  0.62821809  1
  Mn  Mn8  1  0.20951351  0.05308933  0.39464679  1
  Mn  Mn9  1  0.48452242  0.46394226  0.98737154  1
  Sb  Sb10  1  0.89385575  0.89863939  0.46269340  1
  Sb  Sb11  1  0.11310286  0.97402700  0.54540106  1
  Sb  Sb12  1  0.03304648  0.51679310  0.82669827  1
  Sb  Sb13  1  0.96217166  0.46028132  0.20237588  1
  Sb  Sb14  1  0.40723680  0.57381924  0.44959615  1
  Sb  Sb15  1  0.60344265  0.51639687  0.53651744  1
  Sb  Sb16  1  0.52087473  0.97728609  0.78779269  1
  Sb  Sb17  1  0.47119627  0.01076735  0.17719054  1
  S  S18  1  0.93026237  0.97976617  0.78721183  1
  S  S19  1  0.06261339  0.99287921  0.20601845  1
  S  S20  1  0.41241847  0.98975491  0.97554363  1
  S  S21  1  0.58583328  0.99216994  0.00284158  1
  S  S22  1  0.17520051  0.99049082  0.90024594  1
  S  S23  1  0.82613293  0.01940541  0.10656941  1
  S  S24  1  0.10581726  0.47944821  0.65268625  1
  S  S25  1  0.89517752  0.42556593  0.34643855  1
  S  S26  1  0.73785532  0.01758044  0.31557946  1
  S  S27  1  0.26313447  0.93118423  0.68400768  1
  S  S28  1  0.16750705  0.52322802  0.44537932  1
  S  S29  1  0.81765132  0.48559274  0.54418614  1
  S  S30  1  0.43448327  0.46079554  0.79841956  1
  S  S31  1  0.56378814  0.50334859  0.18584308  1
  S  S32  1  0.91161216  0.49046148  0.99333136  1
  S  S33  1  0.08066246  0.46588013  0.02360041  1
  S  S34  1  0.66571332  0.54364937  0.88688853  1
  S  S35  1  0.33214120  0.46207167  0.11151436  1
  S  S36  1  0.60760594  0.02143418  0.65650832  1
  S  S37  1  0.39975678  0.04328722  0.33409188  1
  S  S38  1  0.25062907  0.55057268  0.33065947  1
  S  S39  1  0.76438001  0.50979740  0.68588726  1
  S  S40  1  0.66318702  0.98573025  0.45462861  1
  S  S41  1  0.32805856  0.93522824  0.54988782  1
