# generated using pymatgen
data_Pr2Mn3(SbS3)4
_symmetry_space_group_name_H-M   'P 1'
_cell_length_a   20.02960800
_cell_length_b   3.90410600
_cell_length_c   14.95364829
_cell_angle_alpha   90.00000000
_cell_angle_beta   126.33350609
_cell_angle_gamma   90.00000000
_symmetry_Int_Tables_number   1
_chemical_formula_structural   Pr2Mn3(SbS3)4
_chemical_formula_sum   'Pr4 Mn6 Sb8 S24'
_cell_volume   942.00006694
_cell_formula_units_Z   2
loop_
 _symmetry_equiv_pos_site_id
 _symmetry_equiv_pos_as_xyz
  1  'x, y, z'
loop_
 _atom_site_type_symbol
 _atom_site_label
 _atom_site_symmetry_multiplicity
 _atom_site_fract_x
 _atom_site_fract_y
 _atom_site_fract_z
 _atom_site_occupancy
  Pr  Pr0  1  0.26702023  0.46849497  0.88471500  1
  Pr  Pr1  1  0.72804889  0.50250496  0.13355681  1
  Pr  Pr2  1  0.76136449  0.05479603  0.87057712  1
  Pr  Pr3  1  0.23401210  0.91976950  0.12803487  1
  Mn  Mn4  1  0.29477831  0.42967772  0.60339547  1
  Mn  Mn5  1  0.69454358  0.52145306  0.36312300  1
  Mn  Mn6  1  0.00279241  0.92531114  0.01259591  1
  Mn  Mn7  1  0.79857889  0.97338237  0.62788715  1
  Mn  Mn8  1  0.20952753  0.05357881  0.39447398  1
  Mn  Mn9  1  0.48469931  0.46407531  0.98748576  1
  Sb  Sb10  1  0.89399375  0.89865756  0.46277315  1
  Sb  Sb11  1  0.11305043  0.97418401  0.54539591  1
  Sb  Sb12  1  0.03305624  0.51669462  0.82684541  1
  Sb  Sb13  1  0.96212495  0.45994342  0.20239520  1
  Sb  Sb14  1  0.40723876  0.57402684  0.44959542  1
  Sb  Sb15  1  0.60335245  0.51611579  0.53639785  1
  Sb  Sb16  1  0.52102991  0.97774452  0.78780994  1
  Sb  Sb17  1  0.47105041  0.01086656  0.17708679  1
  S  S18  1  0.93050660  0.97985838  0.78738161  1
  S  S19  1  0.06283237  0.99246494  0.20632184  1
  S  S20  1  0.41210003  0.99019713  0.97528271  1
  S  S21  1  0.58574330  0.99177988  0.00262363  1
  S  S22  1  0.17534658  0.99161105  0.90030035  1
  S  S23  1  0.82597073  0.01944055  0.10617685  1
  S  S24  1  0.10579618  0.47921415  0.65228225  1
  S  S25  1  0.89532678  0.42601070  0.34622916  1
  S  S26  1  0.73793262  0.01765089  0.31585229  1
  S  S27  1  0.26308770  0.93064296  0.68363962  1
  S  S28  1  0.16763113  0.52301615  0.44569175  1
  S  S29  1  0.81762720  0.48546728  0.54406206  1
  S  S30  1  0.43469674  0.46087712  0.79841838  1
  S  S31  1  0.56390338  0.50302623  0.18588115  1
  S  S32  1  0.91177675  0.49165557  0.99335858  1
  S  S33  1  0.08050522  0.46674351  0.02329819  1
  S  S34  1  0.66563439  0.54304846  0.88693164  1
  S  S35  1  0.33231184  0.46160990  0.11139864  1
  S  S36  1  0.60772356  0.02072459  0.65667005  1
  S  S37  1  0.39957028  0.04296889  0.33392907  1
  S  S38  1  0.25103803  0.54920273  0.33109446  1
  S  S39  1  0.76428201  0.51055482  0.68590516  1
  S  S40  1  0.66307876  0.98524402  0.45468277  1
  S  S41  1  0.32810709  0.93465199  0.54988238  1
