# generated using pymatgen
data_Pr2Mn3(SbS3)4
_symmetry_space_group_name_H-M   'P 1'
_cell_length_a   20.02960800
_cell_length_b   3.90410600
_cell_length_c   14.95364829
_cell_angle_alpha   90.00000000
_cell_angle_beta   126.33350609
_cell_angle_gamma   90.00000000
_symmetry_Int_Tables_number   1
_chemical_formula_structural   Pr2Mn3(SbS3)4
_chemical_formula_sum   'Pr4 Mn6 Sb8 S24'
_cell_volume   942.00006694
_cell_formula_units_Z   2
loop_
 _symmetry_equiv_pos_site_id
 _symmetry_equiv_pos_as_xyz
  1  'x, y, z'
loop_
 _atom_site_type_symbol
 _atom_site_label
 _atom_site_symmetry_multiplicity
 _atom_site_fract_x
 _atom_site_fract_y
 _atom_site_fract_z
 _atom_site_occupancy
  Pr  Pr0  1  0.26703776  0.46888187  0.88453518  1
  Pr  Pr1  1  0.72798348  0.50266375  0.13345967  1
  Pr  Pr2  1  0.76131446  0.05513451  0.87059628  1
  Pr  Pr3  1  0.23407805  0.91974888  0.12804875  1
  Mn  Mn4  1  0.29499090  0.43006547  0.60364324  1
  Mn  Mn5  1  0.69453440  0.52256398  0.36283574  1
  Mn  Mn6  1  0.00268343  0.92406414  0.01246920  1
  Mn  Mn7  1  0.79844783  0.97305849  0.62739511  1
  Mn  Mn8  1  0.20957411  0.05374952  0.39432683  1
  Mn  Mn9  1  0.48493914  0.46441989  0.98765920  1
  Sb  Sb10  1  0.89416563  0.89865384  0.46292577  1
  Sb  Sb11  1  0.11299780  0.97422702  0.54527374  1
  Sb  Sb12  1  0.03303141  0.51654547  0.82691634  1
  Sb  Sb13  1  0.96207200  0.45950220  0.20242577  1
  Sb  Sb14  1  0.40726799  0.57445889  0.44958012  1
  Sb  Sb15  1  0.60327904  0.51593845  0.53632091  1
  Sb  Sb16  1  0.52115267  0.97793400  0.78780008  1
  Sb  Sb17  1  0.47093428  0.01097408  0.17700313  1
  S  S18  1  0.93053396  0.98001958  0.78731997  1
  S  S19  1  0.06313900  0.99196691  0.20659375  1
  S  S20  1  0.41172848  0.99010360  0.97493488  1
  S  S21  1  0.58560193  0.99203500  0.00243152  1
  S  S22  1  0.17556612  0.99248513  0.90026575  1
  S  S23  1  0.82581863  0.01885754  0.10571697  1
  S  S24  1  0.10576813  0.47905930  0.65183216  1
  S  S25  1  0.89539029  0.42690583  0.34600747  1
  S  S26  1  0.73794133  0.01776165  0.31609478  1
  S  S27  1  0.26307398  0.93048252  0.68329028  1
  S  S28  1  0.16752324  0.52249287  0.44578773  1
  S  S29  1  0.81758865  0.48504926  0.54388201  1
  S  S30  1  0.43489194  0.46125109  0.79832147  1
  S  S31  1  0.56406476  0.50263161  0.18593386  1
  S  S32  1  0.91190041  0.49261446  0.99350121  1
  S  S33  1  0.08046502  0.46711404  0.02309337  1
  S  S34  1  0.66548474  0.54273943  0.88695897  1
  S  S35  1  0.33246647  0.46139639  0.11120881  1
  S  S36  1  0.60787150  0.02056474  0.65684933  1
  S  S37  1  0.39936838  0.04217957  0.33380081  1
  S  S38  1  0.25149089  0.54819710  0.33155362  1
  S  S39  1  0.76414035  0.51177792  0.68590699  1
  S  S40  1  0.66293127  0.98414304  0.45473957  1
  S  S41  1  0.32802239  0.93383601  0.54981510  1
