# generated using pymatgen
data_Pr2Mn3(SbS3)4
_symmetry_space_group_name_H-M   'P 1'
_cell_length_a   20.02960800
_cell_length_b   3.90410600
_cell_length_c   14.95364829
_cell_angle_alpha   90.00000000
_cell_angle_beta   126.33350609
_cell_angle_gamma   90.00000000
_symmetry_Int_Tables_number   1
_chemical_formula_structural   Pr2Mn3(SbS3)4
_chemical_formula_sum   'Pr4 Mn6 Sb8 S24'
_cell_volume   942.00006694
_cell_formula_units_Z   2
loop_
 _symmetry_equiv_pos_site_id
 _symmetry_equiv_pos_as_xyz
  1  'x, y, z'
loop_
 _atom_site_type_symbol
 _atom_site_label
 _atom_site_symmetry_multiplicity
 _atom_site_fract_x
 _atom_site_fract_y
 _atom_site_fract_z
 _atom_site_occupancy
  Pr  Pr0  1  0.26703733  0.46919822  0.88434746  1
  Pr  Pr1  1  0.72792731  0.50302554  0.13337009  1
  Pr  Pr2  1  0.76121394  0.05535633  0.87059608  1
  Pr  Pr3  1  0.23415342  0.91974251  0.12808721  1
  Mn  Mn4  1  0.29522713  0.43016709  0.60395215  1
  Mn  Mn5  1  0.69456138  0.52392319  0.36245478  1
  Mn  Mn6  1  0.00256143  0.92290422  0.01224761  1
  Mn  Mn7  1  0.79824479  0.97276655  0.62685900  1
  Mn  Mn8  1  0.20955243  0.05349601  0.39408402  1
  Mn  Mn9  1  0.48512011  0.46471281  0.98782274  1
  Sb  Sb10  1  0.89435492  0.89869560  0.46307280  1
  Sb  Sb11  1  0.11295593  0.97423364  0.54517866  1
  Sb  Sb12  1  0.03301095  0.51593385  0.82699406  1
  Sb  Sb13  1  0.96198071  0.45924103  0.20238846  1
  Sb  Sb14  1  0.40730707  0.57508127  0.44954830  1
  Sb  Sb15  1  0.60322391  0.51586286  0.53621370  1
  Sb  Sb16  1  0.52125571  0.97812896  0.78778784  1
  Sb  Sb17  1  0.47083082  0.01128968  0.17695673  1
  S  S18  1  0.93060178  0.98039329  0.78730237  1
  S  S19  1  0.06329143  0.99181134  0.20697448  1
  S  S20  1  0.41138679  0.99010633  0.97467916  1
  S  S21  1  0.58539643  0.99243865  0.00215043  1
  S  S22  1  0.17560973  0.99308493  0.90026237  1
  S  S23  1  0.82572602  0.01893184  0.10536793  1
  S  S24  1  0.10550105  0.47865208  0.65114016  1
  S  S25  1  0.89544932  0.42783782  0.34593219  1
  S  S26  1  0.73786770  0.01800701  0.31632954  1
  S  S27  1  0.26300055  0.93041889  0.68276881  1
  S  S28  1  0.16740533  0.52193878  0.44585794  1
  S  S29  1  0.81747289  0.48421221  0.54378528  1
  S  S30  1  0.43515815  0.46211542  0.79815477  1
  S  S31  1  0.56421139  0.50276008  0.18600419  1
  S  S32  1  0.91197529  0.49356201  0.99352964  1
  S  S33  1  0.08046941  0.46713646  0.02290693  1
  S  S34  1  0.66533386  0.54219175  0.88698388  1
  S  S35  1  0.33255354  0.46122017  0.11103226  1
  S  S36  1  0.60798734  0.02024314  0.65701214  1
  S  S37  1  0.39912221  0.04094877  0.33369162  1
  S  S38  1  0.25185829  0.54736585  0.33186325  1
  S  S39  1  0.76394098  0.51263817  0.68585490  1
  S  S40  1  0.66287229  0.98328594  0.45496648  1
  S  S41  1  0.32797963  0.93277253  0.54966300  1
