# generated using pymatgen
data_Pr2Mn3(SbS3)4
_symmetry_space_group_name_H-M   'P 1'
_cell_length_a   20.02960800
_cell_length_b   3.90410600
_cell_length_c   14.95364829
_cell_angle_alpha   90.00000000
_cell_angle_beta   126.33350609
_cell_angle_gamma   90.00000000
_symmetry_Int_Tables_number   1
_chemical_formula_structural   Pr2Mn3(SbS3)4
_chemical_formula_sum   'Pr4 Mn6 Sb8 S24'
_cell_volume   942.00006694
_cell_formula_units_Z   2
loop_
 _symmetry_equiv_pos_site_id
 _symmetry_equiv_pos_as_xyz
  1  'x, y, z'
loop_
 _atom_site_type_symbol
 _atom_site_label
 _atom_site_symmetry_multiplicity
 _atom_site_fract_x
 _atom_site_fract_y
 _atom_site_fract_z
 _atom_site_occupancy
  Pr  Pr0  1  0.26483195  0.48146903  0.87008067  1
  Pr  Pr1  1  0.73759405  0.51017509  0.13594543  1
  Pr  Pr2  1  0.76213383  0.00873092  0.86156078  1
  Pr  Pr3  1  0.23664456  0.99837025  0.13940210  1
  Mn  Mn4  1  0.29549077  0.49420670  0.60957649  1
  Mn  Mn5  1  0.69486082  0.52300196  0.37891304  1
  Mn  Mn6  1  0.00380443  0.00192241  0.00093125  1
  Mn  Mn7  1  0.80283520  0.99043189  0.61665343  1
  Mn  Mn8  1  0.19643328  0.97577603  0.37890605  1
  Mn  Mn9  1  0.50265192  0.47400107  0.99490444  1
  Sb  Sb10  1  0.89283729  0.00210202  0.45442871  1
  Sb  Sb11  1  0.11199834  0.96980263  0.55256210  1
  Sb  Sb12  1  0.04040388  0.50413492  0.81694935  1
  Sb  Sb13  1  0.96245762  0.53185832  0.18748210  1
  Sb  Sb14  1  0.39871349  0.50090500  0.45782164  1
  Sb  Sb15  1  0.60635532  0.48763654  0.54799412  1
  Sb  Sb16  1  0.53567053  0.00875232  0.81361751  1
  Sb  Sb17  1  0.46223425  0.00537420  0.18208137  1
  S  S18  1  0.93633006  0.97421311  0.79795695  1
  S  S19  1  0.06530397  0.98800623  0.19209775  1
  S  S20  1  0.40972320  0.01188456  0.97929714  1
  S  S21  1  0.59234460  0.99641875  0.02222598  1
  S  S22  1  0.17240324  0.98832611  0.89654707  1
  S  S23  1  0.82648221  0.01895968  0.10024120  1
  S  S24  1  0.08548211  0.45596525  0.64558305  1
  S  S25  1  0.91385384  0.48920960  0.36046425  1
  S  S26  1  0.74228807  0.94951599  0.29992583  1
  S  S27  1  0.25750543  0.00129704  0.70151661  1
  S  S28  1  0.16557561  0.48556184  0.44472012  1
  S  S29  1  0.82998730  0.47454393  0.54978599  1
  S  S30  1  0.43144864  0.50624718  0.79960621  1
  S  S31  1  0.56219866  0.52779365  0.19114836  1
  S  S32  1  0.90384549  0.49318658  0.97956553  1
  S  S33  1  0.08539927  0.49517038  0.01683653  1
  S  S34  1  0.66439740  0.50497792  0.89209380  1
  S  S35  1  0.32900389  0.52860688  0.10112675  1
  S  S36  1  0.58953423  0.00328262  0.64733662  1
  S  S37  1  0.40901051  0.95889477  0.35079934  1
  S  S38  1  0.24365102  0.48276790  0.30551689  1
  S  S39  1  0.76004038  0.50009732  0.69763564  1
  S  S40  1  0.67262156  0.00921257  0.46270356  1
  S  S41  1  0.33037533  0.98735549  0.54093194  1
