# generated using pymatgen
data_Pr2Mn3(SbS3)4
_symmetry_space_group_name_H-M   'P 1'
_cell_length_a   20.02960800
_cell_length_b   3.90410600
_cell_length_c   14.95364829
_cell_angle_alpha   90.00000000
_cell_angle_beta   126.33350609
_cell_angle_gamma   90.00000000
_symmetry_Int_Tables_number   1
_chemical_formula_structural   Pr2Mn3(SbS3)4
_chemical_formula_sum   'Pr4 Mn6 Sb8 S24'
_cell_volume   942.00006694
_cell_formula_units_Z   2
loop_
 _symmetry_equiv_pos_site_id
 _symmetry_equiv_pos_as_xyz
  1  'x, y, z'
loop_
 _atom_site_type_symbol
 _atom_site_label
 _atom_site_symmetry_multiplicity
 _atom_site_fract_x
 _atom_site_fract_y
 _atom_site_fract_z
 _atom_site_occupancy
  Pr  Pr0  1  0.26698356  0.46964505  0.88420505  1
  Pr  Pr1  1  0.72783381  0.50338349  0.13329255  1
  Pr  Pr2  1  0.76113340  0.05555572  0.87057963  1
  Pr  Pr3  1  0.23419340  0.91987452  0.12810666  1
  Mn  Mn4  1  0.29535212  0.43011266  0.60413850  1
  Mn  Mn5  1  0.69470955  0.52525707  0.36218155  1
  Mn  Mn6  1  0.00247043  0.92158110  0.01218193  1
  Mn  Mn7  1  0.79802030  0.97272337  0.62647876  1
  Mn  Mn8  1  0.20953399  0.05325785  0.39395618  1
  Mn  Mn9  1  0.48526117  0.46491109  0.98792992  1
  Sb  Sb10  1  0.89448637  0.89874027  0.46315136  1
  Sb  Sb11  1  0.11285675  0.97400901  0.54506105  1
  Sb  Sb12  1  0.03296156  0.51562103  0.82699512  1
  Sb  Sb13  1  0.96185858  0.45908549  0.20231159  1
  Sb  Sb14  1  0.40737443  0.57563933  0.44962056  1
  Sb  Sb15  1  0.60320913  0.51590371  0.53614488  1
  Sb  Sb16  1  0.52137398  0.97823665  0.78778767  1
  Sb  Sb17  1  0.47075580  0.01142896  0.17683232  1
  S  S18  1  0.93055370  0.98087318  0.78719705  1
  S  S19  1  0.06357755  0.99214615  0.20735026  1
  S  S20  1  0.41121781  0.99020502  0.97462463  1
  S  S21  1  0.58518622  0.99274338  0.00205396  1
  S  S22  1  0.17567736  0.99329608  0.90027167  1
  S  S23  1  0.82571774  0.01896909  0.10503299  1
  S  S24  1  0.10511506  0.47840713  0.65038382  1
  S  S25  1  0.89548731  0.42814928  0.34581498  1
  S  S26  1  0.73781148  0.01831775  0.31660946  1
  S  S27  1  0.26291682  0.92997824  0.68231236  1
  S  S28  1  0.16723795  0.52178623  0.44583399  1
  S  S29  1  0.81736436  0.48360392  0.54366645  1
  S  S30  1  0.43526649  0.46307816  0.79787946  1
  S  S31  1  0.56439953  0.50240579  0.18613354  1
  S  S32  1  0.91212534  0.49444401  0.99366148  1
  S  S33  1  0.08046036  0.46722412  0.02281128  1
  S  S34  1  0.66527417  0.54186721  0.88715761  1
  S  S35  1  0.33250846  0.46171606  0.11087805  1
  S  S36  1  0.60804827  0.02009017  0.65713078  1
  S  S37  1  0.39900119  0.03960449  0.33370753  1
  S  S38  1  0.25217227  0.54633730  0.33211647  1
  S  S39  1  0.76369611  0.51401100  0.68580229  1
  S  S40  1  0.66277070  0.98239774  0.45518896  1
  S  S41  1  0.32798849  0.93209662  0.54949789  1
