# generated using pymatgen
data_Pr2Mn3(SbS3)4
_symmetry_space_group_name_H-M   'P 1'
_cell_length_a   20.02960800
_cell_length_b   3.90410600
_cell_length_c   14.95364829
_cell_angle_alpha   90.00000000
_cell_angle_beta   126.33350609
_cell_angle_gamma   90.00000000
_symmetry_Int_Tables_number   1
_chemical_formula_structural   Pr2Mn3(SbS3)4
_chemical_formula_sum   'Pr4 Mn6 Sb8 S24'
_cell_volume   942.00006694
_cell_formula_units_Z   2
loop_
 _symmetry_equiv_pos_site_id
 _symmetry_equiv_pos_as_xyz
  1  'x, y, z'
loop_
 _atom_site_type_symbol
 _atom_site_label
 _atom_site_symmetry_multiplicity
 _atom_site_fract_x
 _atom_site_fract_y
 _atom_site_fract_z
 _atom_site_occupancy
  Pr  Pr0  1  0.26694799  0.47001243  0.88411028  1
  Pr  Pr1  1  0.72773021  0.50361539  0.13314303  1
  Pr  Pr2  1  0.76101969  0.05562672  0.87057575  1
  Pr  Pr3  1  0.23422137  0.92021442  0.12819614  1
  Mn  Mn4  1  0.29548924  0.42983251  0.60430468  1
  Mn  Mn5  1  0.69473077  0.52648367  0.36183705  1
  Mn  Mn6  1  0.00243465  0.91998065  0.01214746  1
  Mn  Mn7  1  0.79769907  0.97249763  0.62620311  1
  Mn  Mn8  1  0.20955474  0.05312997  0.39386137  1
  Mn  Mn9  1  0.48547136  0.46536064  0.98810210  1
  Sb  Sb10  1  0.89462630  0.89875703  0.46322513  1
  Sb  Sb11  1  0.11273657  0.97372911  0.54491567  1
  Sb  Sb12  1  0.03290916  0.51547829  0.82695728  1
  Sb  Sb13  1  0.96174008  0.45893552  0.20221698  1
  Sb  Sb14  1  0.40746237  0.57626408  0.44974216  1
  Sb  Sb15  1  0.60314864  0.51609884  0.53599707  1
  Sb  Sb16  1  0.52147925  0.97839581  0.78777396  1
  Sb  Sb17  1  0.47068414  0.01195806  0.17674338  1
  S  S18  1  0.93048902  0.98144294  0.78719221  1
  S  S19  1  0.06388717  0.99242913  0.20768124  1
  S  S20  1  0.41101026  0.99026342  0.97451386  1
  S  S21  1  0.58481837  0.99307430  0.00180269  1
  S  S22  1  0.17571719  0.99367615  0.90025637  1
  S  S23  1  0.82570612  0.01873282  0.10475810  1
  S  S24  1  0.10469476  0.47837236  0.64949937  1
  S  S25  1  0.89556533  0.42809640  0.34578064  1
  S  S26  1  0.73768818  0.01850564  0.31688119  1
  S  S27  1  0.26290318  0.92921093  0.68196066  1
  S  S28  1  0.16706625  0.52166525  0.44580364  1
  S  S29  1  0.81729822  0.48364466  0.54370350  1
  S  S30  1  0.43532595  0.46362047  0.79756058  1
  S  S31  1  0.56455470  0.50190162  0.18622168  1
  S  S32  1  0.91217989  0.49562438  0.99374602  1
  S  S33  1  0.08035093  0.46754312  0.02245685  1
  S  S34  1  0.66519638  0.54135798  0.88716170  1
  S  S35  1  0.33255087  0.46186815  0.11081487  1
  S  S36  1  0.60802616  0.01962683  0.65713465  1
  S  S37  1  0.39882169  0.03840930  0.33367557  1
  S  S38  1  0.25229817  0.54490479  0.33224376  1
  S  S39  1  0.76342520  0.51506395  0.68564050  1
  S  S40  1  0.66254942  0.98143449  0.45525543  1
  S  S41  1  0.32797238  0.93133902  0.54936372  1
