# generated using pymatgen
data_Pr2Mn3(SbS3)4
_symmetry_space_group_name_H-M   'P 1'
_cell_length_a   20.02960800
_cell_length_b   3.90410600
_cell_length_c   14.95364829
_cell_angle_alpha   90.00000000
_cell_angle_beta   126.33350609
_cell_angle_gamma   90.00000000
_symmetry_Int_Tables_number   1
_chemical_formula_structural   Pr2Mn3(SbS3)4
_chemical_formula_sum   'Pr4 Mn6 Sb8 S24'
_cell_volume   942.00006694
_cell_formula_units_Z   2
loop_
 _symmetry_equiv_pos_site_id
 _symmetry_equiv_pos_as_xyz
  1  'x, y, z'
loop_
 _atom_site_type_symbol
 _atom_site_label
 _atom_site_symmetry_multiplicity
 _atom_site_fract_x
 _atom_site_fract_y
 _atom_site_fract_z
 _atom_site_occupancy
  Pr  Pr0  1  0.26694176  0.47044067  0.88403054  1
  Pr  Pr1  1  0.72771425  0.50372713  0.13304954  1
  Pr  Pr2  1  0.76093648  0.05570226  0.87055808  1
  Pr  Pr3  1  0.23420176  0.92074553  0.12823478  1
  Mn  Mn4  1  0.29555647  0.42941488  0.60442584  1
  Mn  Mn5  1  0.69470413  0.52768088  0.36154944  1
  Mn  Mn6  1  0.00231400  0.91856572  0.01203662  1
  Mn  Mn7  1  0.79745395  0.97226010  0.62597878  1
  Mn  Mn8  1  0.20955334  0.05325602  0.39374949  1
  Mn  Mn9  1  0.48566146  0.46583429  0.98826713  1
  Sb  Sb10  1  0.89473976  0.89878569  0.46331937  1
  Sb  Sb11  1  0.11261197  0.97372942  0.54473428  1
  Sb  Sb12  1  0.03285573  0.51538329  0.82696714  1
  Sb  Sb13  1  0.96164424  0.45874244  0.20210360  1
  Sb  Sb14  1  0.40749747  0.57677703  0.44986913  1
  Sb  Sb15  1  0.60303920  0.51605153  0.53581819  1
  Sb  Sb16  1  0.52159892  0.97827376  0.78779706  1
  Sb  Sb17  1  0.47065674  0.01261130  0.17671766  1
  S  S18  1  0.93057948  0.98226912  0.78727829  1
  S  S19  1  0.06413934  0.99272261  0.20785784  1
  S  S20  1  0.41086089  0.99017326  0.97443900  1
  S  S21  1  0.58437642  0.99316605  0.00141642  1
  S  S22  1  0.17581356  0.99387974  0.90026130  1
  S  S23  1  0.82584174  0.01897741  0.10462703  1
  S  S24  1  0.10433357  0.47844653  0.64864094  1
  S  S25  1  0.89556077  0.42824888  0.34578654  1
  S  S26  1  0.73764897  0.01851122  0.31722456  1
  S  S27  1  0.26280267  0.92816885  0.68159187  1
  S  S28  1  0.16712157  0.52157842  0.44594863  1
  S  S29  1  0.81715098  0.48333012  0.54383934  1
  S  S30  1  0.43537715  0.46443140  0.79727537  1
  S  S31  1  0.56466317  0.50169763  0.18626957  1
  S  S32  1  0.91224074  0.49663846  0.99376271  1
  S  S33  1  0.08016066  0.46773572  0.02214099  1
  S  S34  1  0.66516961  0.54091838  0.88716552  1
  S  S35  1  0.33266843  0.46259663  0.11086239  1
  S  S36  1  0.60809848  0.01914356  0.65722958  1
  S  S37  1  0.39860669  0.03745401  0.33366950  1
  S  S38  1  0.25249794  0.54385681  0.33254932  1
  S  S39  1  0.76319839  0.51650407  0.68548383  1
  S  S40  1  0.66234564  0.98073785  0.45540014  1
  S  S41  1  0.32792078  0.93039333  0.54916315  1
