# generated using pymatgen
data_Pr2Mn3(SbS3)4
_symmetry_space_group_name_H-M   'P 1'
_cell_length_a   20.02960800
_cell_length_b   3.90410600
_cell_length_c   14.95364829
_cell_angle_alpha   90.00000000
_cell_angle_beta   126.33350609
_cell_angle_gamma   90.00000000
_symmetry_Int_Tables_number   1
_chemical_formula_structural   Pr2Mn3(SbS3)4
_chemical_formula_sum   'Pr4 Mn6 Sb8 S24'
_cell_volume   942.00006694
_cell_formula_units_Z   2
loop_
 _symmetry_equiv_pos_site_id
 _symmetry_equiv_pos_as_xyz
  1  'x, y, z'
loop_
 _atom_site_type_symbol
 _atom_site_label
 _atom_site_symmetry_multiplicity
 _atom_site_fract_x
 _atom_site_fract_y
 _atom_site_fract_z
 _atom_site_occupancy
  Pr  Pr0  1  0.26696162  0.47114032  0.88391839  1
  Pr  Pr1  1  0.72771161  0.50380351  0.13293260  1
  Pr  Pr2  1  0.76086327  0.05556788  0.87048711  1
  Pr  Pr3  1  0.23415559  0.92092757  0.12819021  1
  Mn  Mn4  1  0.29557476  0.42887570  0.60451603  1
  Mn  Mn5  1  0.69470985  0.52870633  0.36121002  1
  Mn  Mn6  1  0.00221722  0.91714154  0.01177845  1
  Mn  Mn7  1  0.79732518  0.97189731  0.62578451  1
  Mn  Mn8  1  0.20958897  0.05369923  0.39359911  1
  Mn  Mn9  1  0.48588300  0.46606930  0.98846331  1
  Sb  Sb10  1  0.89486463  0.89889098  0.46342450  1
  Sb  Sb11  1  0.11254700  0.97397413  0.54456253  1
  Sb  Sb12  1  0.03279490  0.51494601  0.82692305  1
  Sb  Sb13  1  0.96151495  0.45874466  0.20193329  1
  Sb  Sb14  1  0.40751894  0.57703002  0.45001122  1
  Sb  Sb15  1  0.60291892  0.51626507  0.53564163  1
  Sb  Sb16  1  0.52169448  0.97819855  0.78783472  1
  Sb  Sb17  1  0.47065134  0.01313186  0.17666527  1
  S  S18  1  0.93064765  0.98247825  0.78731682  1
  S  S19  1  0.06425304  0.99286593  0.20786858  1
  S  S20  1  0.41063873  0.99041128  0.97436584  1
  S  S21  1  0.58399633  0.99341033  0.00099997  1
  S  S22  1  0.17589368  0.99372879  0.90024631  1
  S  S23  1  0.82594443  0.01884478  0.10464062  1
  S  S24  1  0.10399669  0.47844500  0.64770103  1
  S  S25  1  0.89558758  0.42816314  0.34589127  1
  S  S26  1  0.73757637  0.01846047  0.31744214  1
  S  S27  1  0.26269919  0.92727271  0.68110484  1
  S  S28  1  0.16717499  0.52104835  0.44607572  1
  S  S29  1  0.81700322  0.48315325  0.54399058  1
  S  S30  1  0.43535530  0.46500940  0.79689290  1
  S  S31  1  0.56472424  0.50122314  0.18626979  1
  S  S32  1  0.91232858  0.49720130  0.99376021  1
  S  S33  1  0.07994337  0.46769688  0.02182696  1
  S  S34  1  0.66522146  0.54016829  0.88731257  1
  S  S35  1  0.33271923  0.46328657  0.11088485  1
  S  S36  1  0.60818590  0.01895903  0.65729208  1
  S  S37  1  0.39838728  0.03622957  0.33351706  1
  S  S38  1  0.25267043  0.54305910  0.33274004  1
  S  S39  1  0.76298072  0.51784442  0.68524261  1
  S  S40  1  0.66220371  0.98006433  0.45555521  1
  S  S41  1  0.32793964  0.92927339  0.54904305  1
