# generated using pymatgen
data_Pr2Mn3(SbS3)4
_symmetry_space_group_name_H-M   'P 1'
_cell_length_a   20.02960800
_cell_length_b   3.90410600
_cell_length_c   14.95364829
_cell_angle_alpha   90.00000000
_cell_angle_beta   126.33350609
_cell_angle_gamma   90.00000000
_symmetry_Int_Tables_number   1
_chemical_formula_structural   Pr2Mn3(SbS3)4
_chemical_formula_sum   'Pr4 Mn6 Sb8 S24'
_cell_volume   942.00006694
_cell_formula_units_Z   2
loop_
 _symmetry_equiv_pos_site_id
 _symmetry_equiv_pos_as_xyz
  1  'x, y, z'
loop_
 _atom_site_type_symbol
 _atom_site_label
 _atom_site_symmetry_multiplicity
 _atom_site_fract_x
 _atom_site_fract_y
 _atom_site_fract_z
 _atom_site_occupancy
  Pr  Pr0  1  0.26704748  0.47167397  0.88392343  1
  Pr  Pr1  1  0.72773225  0.50386005  0.13282332  1
  Pr  Pr2  1  0.76081325  0.05547924  0.87046145  1
  Pr  Pr3  1  0.23410581  0.92115613  0.12819844  1
  Mn  Mn4  1  0.29555448  0.42791418  0.60461210  1
  Mn  Mn5  1  0.69475414  0.52954933  0.36088753  1
  Mn  Mn6  1  0.00216897  0.91613979  0.01164563  1
  Mn  Mn7  1  0.79718654  0.97158656  0.62557745  1
  Mn  Mn8  1  0.20964080  0.05413840  0.39348269  1
  Mn  Mn9  1  0.48607690  0.46639792  0.98871624  1
  Sb  Sb10  1  0.89488213  0.89892839  0.46342723  1
  Sb  Sb11  1  0.11246996  0.97423219  0.54439949  1
  Sb  Sb12  1  0.03272552  0.51463610  0.82681614  1
  Sb  Sb13  1  0.96141035  0.45842884  0.20178895  1
  Sb  Sb14  1  0.40755383  0.57723915  0.45020302  1
  Sb  Sb15  1  0.60288587  0.51653274  0.53552063  1
  Sb  Sb16  1  0.52176564  0.97824423  0.78784529  1
  Sb  Sb17  1  0.47064611  0.01353163  0.17654599  1
  S  S18  1  0.93072135  0.98223604  0.78735058  1
  S  S19  1  0.06435285  0.99303171  0.20779001  1
  S  S20  1  0.41055457  0.99044826  0.97433714  1
  S  S21  1  0.58359069  0.99424042  0.00056565  1
  S  S22  1  0.17590127  0.99374274  0.90031794  1
  S  S23  1  0.82606018  0.01852307  0.10459661  1
  S  S24  1  0.10368040  0.47875086  0.64693632  1
  S  S25  1  0.89559212  0.42865005  0.34603743  1
  S  S26  1  0.73758364  0.01873606  0.31768265  1
  S  S27  1  0.26266661  0.92662483  0.68064071  1
  S  S28  1  0.16736040  0.52006729  0.44626884  1
  S  S29  1  0.81672869  0.48343001  0.54403579  1
  S  S30  1  0.43532864  0.46588046  0.79659701  1
  S  S31  1  0.56469513  0.50052855  0.18614860  1
  S  S32  1  0.91245455  0.49763116  0.99381860  1
  S  S33  1  0.07979335  0.46766409  0.02160519  1
  S  S34  1  0.66536758  0.53980127  0.88752604  1
  S  S35  1  0.33285781  0.46415076  0.11103447  1
  S  S36  1  0.60832627  0.01912964  0.65734888  1
  S  S37  1  0.39821003  0.03556959  0.33347733  1
  S  S38  1  0.25270765  0.54251853  0.33287158  1
  S  S39  1  0.76283950  0.51890507  0.68511328  1
  S  S40  1  0.66211172  0.97959047  0.45574339  1
  S  S41  1  0.32792860  0.92833371  0.54900110  1
