# generated using pymatgen
data_Pr2Mn3(SbS3)4
_symmetry_space_group_name_H-M   'P 1'
_cell_length_a   20.02960800
_cell_length_b   3.90410600
_cell_length_c   14.95364829
_cell_angle_alpha   90.00000000
_cell_angle_beta   126.33350609
_cell_angle_gamma   90.00000000
_symmetry_Int_Tables_number   1
_chemical_formula_structural   Pr2Mn3(SbS3)4
_chemical_formula_sum   'Pr4 Mn6 Sb8 S24'
_cell_volume   942.00006694
_cell_formula_units_Z   2
loop_
 _symmetry_equiv_pos_site_id
 _symmetry_equiv_pos_as_xyz
  1  'x, y, z'
loop_
 _atom_site_type_symbol
 _atom_site_label
 _atom_site_symmetry_multiplicity
 _atom_site_fract_x
 _atom_site_fract_y
 _atom_site_fract_z
 _atom_site_occupancy
  Pr  Pr0  1  0.26713625  0.47236440  0.88395644  1
  Pr  Pr1  1  0.72774517  0.50410681  0.13275169  1
  Pr  Pr2  1  0.76076162  0.05558900  0.87043019  1
  Pr  Pr3  1  0.23401262  0.92125440  0.12812675  1
  Mn  Mn4  1  0.29548335  0.42680792  0.60470238  1
  Mn  Mn5  1  0.69479721  0.53024459  0.36061907  1
  Mn  Mn6  1  0.00212133  0.91498060  0.01156952  1
  Mn  Mn7  1  0.79705814  0.97129543  0.62537341  1
  Mn  Mn8  1  0.20973661  0.05470389  0.39344851  1
  Mn  Mn9  1  0.48616863  0.46664407  0.98893900  1
  Sb  Sb10  1  0.89491164  0.89894996  0.46350210  1
  Sb  Sb11  1  0.11241133  0.97452008  0.54420790  1
  Sb  Sb12  1  0.03272602  0.51471392  0.82675522  1
  Sb  Sb13  1  0.96132778  0.45825267  0.20164050  1
  Sb  Sb14  1  0.40757310  0.57772822  0.45038723  1
  Sb  Sb15  1  0.60281854  0.51695566  0.53533296  1
  Sb  Sb16  1  0.52182491  0.97829016  0.78783446  1
  Sb  Sb17  1  0.47061743  0.01404316  0.17644016  1
  S  S18  1  0.93080784  0.98187159  0.78752473  1
  S  S19  1  0.06433392  0.99279969  0.20762878  1
  S  S20  1  0.41047920  0.99058153  0.97423841  1
  S  S21  1  0.58315079  0.99524691  0.00021336  1
  S  S22  1  0.17579321  0.99385906  0.90020778  1
  S  S23  1  0.82625407  0.01837712  0.10471851  1
  S  S24  1  0.10331910  0.47834696  0.64611519  1
  S  S25  1  0.89550640  0.42915890  0.34623064  1
  S  S26  1  0.73748159  0.01849704  0.31770626  1
  S  S27  1  0.26275408  0.92582065  0.68041201  1
  S  S28  1  0.16763628  0.51949728  0.44661379  1
  S  S29  1  0.81655752  0.48351890  0.54426163  1
  S  S30  1  0.43530132  0.46714684  0.79639810  1
  S  S31  1  0.56465080  0.49987994  0.18600347  1
  S  S32  1  0.91248475  0.49777184  0.99387179  1
  S  S33  1  0.07967631  0.46754362  0.02145622  1
  S  S34  1  0.66555865  0.53901227  0.88779945  1
  S  S35  1  0.33292201  0.46512796  0.11116351  1
  S  S36  1  0.60830655  0.01861758  0.65733134  1
  S  S37  1  0.39802768  0.03508841  0.33361849  1
  S  S38  1  0.25278413  0.54189225  0.33303689  1
  S  S39  1  0.76271918  0.51929997  0.68474917  1
  S  S40  1  0.66196619  0.97876476  0.45581321  1
  S  S41  1  0.32795774  0.92745745  0.54913162  1
