# generated using pymatgen
data_Pr2Mn3(SbS3)4
_symmetry_space_group_name_H-M   'P 1'
_cell_length_a   20.02960800
_cell_length_b   3.90410600
_cell_length_c   14.95364829
_cell_angle_alpha   90.00000000
_cell_angle_beta   126.33350609
_cell_angle_gamma   90.00000000
_symmetry_Int_Tables_number   1
_chemical_formula_structural   Pr2Mn3(SbS3)4
_chemical_formula_sum   'Pr4 Mn6 Sb8 S24'
_cell_volume   942.00006694
_cell_formula_units_Z   2
loop_
 _symmetry_equiv_pos_site_id
 _symmetry_equiv_pos_as_xyz
  1  'x, y, z'
loop_
 _atom_site_type_symbol
 _atom_site_label
 _atom_site_symmetry_multiplicity
 _atom_site_fract_x
 _atom_site_fract_y
 _atom_site_fract_z
 _atom_site_occupancy
  Pr  Pr0  1  0.26724438  0.47317349  0.88392488  1
  Pr  Pr1  1  0.72771429  0.50425604  0.13261440  1
  Pr  Pr2  1  0.76072171  0.05556634  0.87042365  1
  Pr  Pr3  1  0.23387326  0.92142981  0.12798354  1
  Mn  Mn4  1  0.29547525  0.42579776  0.60482546  1
  Mn  Mn5  1  0.69489199  0.53082221  0.36039846  1
  Mn  Mn6  1  0.00213179  0.91396283  0.01148719  1
  Mn  Mn7  1  0.79687040  0.97121220  0.62518876  1
  Mn  Mn8  1  0.20974903  0.05508917  0.39342022  1
  Mn  Mn9  1  0.48623948  0.46668772  0.98917299  1
  Sb  Sb10  1  0.89492459  0.89901205  0.46362710  1
  Sb  Sb11  1  0.11237649  0.97483994  0.54408940  1
  Sb  Sb12  1  0.03273273  0.51478014  0.82671861  1
  Sb  Sb13  1  0.96118302  0.45813206  0.20151020  1
  Sb  Sb14  1  0.40759396  0.57825489  0.45053716  1
  Sb  Sb15  1  0.60272723  0.51750168  0.53505716  1
  Sb  Sb16  1  0.52187890  0.97851983  0.78782411  1
  Sb  Sb17  1  0.47056085  0.01430282  0.17627328  1
  S  S18  1  0.93099484  0.98184158  0.78773485  1
  S  S19  1  0.06421043  0.99233953  0.20740475  1
  S  S20  1  0.41047422  0.99046231  0.97429548  1
  S  S21  1  0.58276344  0.99643577  0.99985002  1
  S  S22  1  0.17579099  0.99412099  0.90036126  1
  S  S23  1  0.82654711  0.01814852  0.10479723  1
  S  S24  1  0.10305497  0.47837791  0.64551729  1
  S  S25  1  0.89551206  0.42949578  0.34644232  1
  S  S26  1  0.73746653  0.01742835  0.31778911  1
  S  S27  1  0.26294251  0.92461491  0.68032458  1
  S  S28  1  0.16793539  0.51933325  0.44687028  1
  S  S29  1  0.81644192  0.48309778  0.54452799  1
  S  S30  1  0.43528947  0.46809460  0.79626564  1
  S  S31  1  0.56472043  0.49901043  0.18592109  1
  S  S32  1  0.91256351  0.49734702  0.99382038  1
  S  S33  1  0.07957548  0.46713266  0.02141344  1
  S  S34  1  0.66580208  0.53808960  0.88809128  1
  S  S35  1  0.33294817  0.46584122  0.11110798  1
  S  S36  1  0.60832761  0.01850953  0.65732435  1
  S  S37  1  0.39777759  0.03476707  0.33356699  1
  S  S38  1  0.25288505  0.54140879  0.33316231  1
  S  S39  1  0.76262307  0.51984254  0.68436019  1
  S  S40  1  0.66174069  0.97750616  0.45579260  1
  S  S41  1  0.32791056  0.92659034  0.54931696  1
