# generated using pymatgen
data_Pr2Mn3(SbS3)4
_symmetry_space_group_name_H-M   'P 1'
_cell_length_a   20.02960800
_cell_length_b   3.90410600
_cell_length_c   14.95364829
_cell_angle_alpha   90.00000000
_cell_angle_beta   126.33350609
_cell_angle_gamma   90.00000000
_symmetry_Int_Tables_number   1
_chemical_formula_structural   Pr2Mn3(SbS3)4
_chemical_formula_sum   'Pr4 Mn6 Sb8 S24'
_cell_volume   942.00006694
_cell_formula_units_Z   2
loop_
 _symmetry_equiv_pos_site_id
 _symmetry_equiv_pos_as_xyz
  1  'x, y, z'
loop_
 _atom_site_type_symbol
 _atom_site_label
 _atom_site_symmetry_multiplicity
 _atom_site_fract_x
 _atom_site_fract_y
 _atom_site_fract_z
 _atom_site_occupancy
  Pr  Pr0  1  0.26731809  0.47366848  0.88393943  1
  Pr  Pr1  1  0.72767014  0.50447944  0.13250260  1
  Pr  Pr2  1  0.76067896  0.05558612  0.87047617  1
  Pr  Pr3  1  0.23378191  0.92157821  0.12786326  1
  Mn  Mn4  1  0.29549438  0.42470771  0.60496560  1
  Mn  Mn5  1  0.69496060  0.53138585  0.36011917  1
  Mn  Mn6  1  0.00209659  0.91283470  0.01142313  1
  Mn  Mn7  1  0.79672567  0.97124812  0.62497071  1
  Mn  Mn8  1  0.20971975  0.05557348  0.39323390  1
  Mn  Mn9  1  0.48637995  0.46662725  0.98934000  1
  Sb  Sb10  1  0.89489200  0.89913142  0.46369994  1
  Sb  Sb11  1  0.11230570  0.97507833  0.54400104  1
  Sb  Sb12  1  0.03275477  0.51507858  0.82670861  1
  Sb  Sb13  1  0.96114741  0.45800762  0.20146663  1
  Sb  Sb14  1  0.40764429  0.57875470  0.45073902  1
  Sb  Sb15  1  0.60265647  0.51801796  0.53484961  1
  Sb  Sb16  1  0.52198270  0.97881010  0.78787531  1
  Sb  Sb17  1  0.47052398  0.01453041  0.17613418  1
  S  S18  1  0.93126807  0.98206411  0.78800160  1
  S  S19  1  0.06408760  0.99199657  0.20709328  1
  S  S20  1  0.41037250  0.99038449  0.97417342  1
  S  S21  1  0.58255222  0.99721570  0.99968096  1
  S  S22  1  0.17584494  0.99402586  0.90057901  1
  S  S23  1  0.82675646  0.01775377  0.10482697  1
  S  S24  1  0.10281553  0.47789903  0.64496065  1
  S  S25  1  0.89541941  0.42966036  0.34655386  1
  S  S26  1  0.73756443  0.01585674  0.31812114  1
  S  S27  1  0.26315071  0.92275380  0.68021880  1
  S  S28  1  0.16821177  0.51961974  0.44700688  1
  S  S29  1  0.81630564  0.48241050  0.54479567  1
  S  S30  1  0.43533457  0.46917243  0.79610227  1
  S  S31  1  0.56491621  0.49836190  0.18612530  1
  S  S32  1  0.91266502  0.49688533  0.99383523  1
  S  S33  1  0.07952248  0.46630220  0.02144158  1
  S  S34  1  0.66599630  0.53727297  0.88845314  1
  S  S35  1  0.33298187  0.46648388  0.11107505  1
  S  S36  1  0.60837710  0.01875941  0.65733544  1
  S  S37  1  0.39760102  0.03500905  0.33362217  1
  S  S38  1  0.25309178  0.54118766  0.33337352  1
  S  S39  1  0.76242657  0.52026496  0.68380093  1
  S  S40  1  0.66161222  0.97615653  0.45572122  1
  S  S41  1  0.32784665  0.92618146  0.54954591  1
