# generated using pymatgen
data_Pr2Mn3(SbS3)4
_symmetry_space_group_name_H-M   'P 1'
_cell_length_a   20.02960800
_cell_length_b   3.90410600
_cell_length_c   14.95364829
_cell_angle_alpha   90.00000000
_cell_angle_beta   126.33350609
_cell_angle_gamma   90.00000000
_symmetry_Int_Tables_number   1
_chemical_formula_structural   Pr2Mn3(SbS3)4
_chemical_formula_sum   'Pr4 Mn6 Sb8 S24'
_cell_volume   942.00006694
_cell_formula_units_Z   2
loop_
 _symmetry_equiv_pos_site_id
 _symmetry_equiv_pos_as_xyz
  1  'x, y, z'
loop_
 _atom_site_type_symbol
 _atom_site_label
 _atom_site_symmetry_multiplicity
 _atom_site_fract_x
 _atom_site_fract_y
 _atom_site_fract_z
 _atom_site_occupancy
  Pr  Pr0  1  0.26743891  0.47438993  0.88394237  1
  Pr  Pr1  1  0.72764238  0.50467695  0.13241357  1
  Pr  Pr2  1  0.76062161  0.05554815  0.87050284  1
  Pr  Pr3  1  0.23377933  0.92162892  0.12780096  1
  Mn  Mn4  1  0.29559310  0.42376628  0.60518713  1
  Mn  Mn5  1  0.69497018  0.53171132  0.35986021  1
  Mn  Mn6  1  0.00210971  0.91192152  0.01135708  1
  Mn  Mn7  1  0.79661313  0.97128401  0.62470343  1
  Mn  Mn8  1  0.20967049  0.05620819  0.39304541  1
  Mn  Mn9  1  0.48647167  0.46684620  0.98941553  1
  Sb  Sb10  1  0.89484284  0.89964282  0.46368480  1
  Sb  Sb11  1  0.11223999  0.97521270  0.54387302  1
  Sb  Sb12  1  0.03276649  0.51513574  0.82671067  1
  Sb  Sb13  1  0.96110334  0.45798082  0.20142192  1
  Sb  Sb14  1  0.40764537  0.57929508  0.45096739  1
  Sb  Sb15  1  0.60260953  0.51813869  0.53465096  1
  Sb  Sb16  1  0.52206153  0.97889726  0.78789586  1
  Sb  Sb17  1  0.47049696  0.01466380  0.17598766  1
  S  S18  1  0.93150484  0.98218971  0.78832814  1
  S  S19  1  0.06399473  0.99180343  0.20686209  1
  S  S20  1  0.41025563  0.99028105  0.97410616  1
  S  S21  1  0.58238911  0.99748473  0.99955848  1
  S  S22  1  0.17576537  0.99331791  0.90058770  1
  S  S23  1  0.82701497  0.01716890  0.10504692  1
  S  S24  1  0.10253282  0.47775770  0.64459438  1
  S  S25  1  0.89531220  0.42995141  0.34666701  1
  S  S26  1  0.73767882  0.01476455  0.31840685  1
  S  S27  1  0.26341624  0.92116836  0.68026276  1
  S  S28  1  0.16843766  0.52018760  0.44724780  1
  S  S29  1  0.81605473  0.48171243  0.54490304  1
  S  S30  1  0.43543512  0.46993766  0.79610162  1
  S  S31  1  0.56508745  0.49797609  0.18637708  1
  S  S32  1  0.91267212  0.49600405  0.99372353  1
  S  S33  1  0.07940371  0.46528014  0.02145854  1
  S  S34  1  0.66614979  0.53682891  0.88878291  1
  S  S35  1  0.33298922  0.46676061  0.11108570  1
  S  S36  1  0.60848598  0.01905982  0.65742929  1
  S  S37  1  0.39751023  0.03522490  0.33387527  1
  S  S38  1  0.25333244  0.54073257  0.33356520  1
  S  S39  1  0.76220884  0.52083333  0.68320687  1
  S  S40  1  0.66161507  0.97505191  0.45577639  1
  S  S41  1  0.32771765  0.92576965  0.54974605  1
