# generated using pymatgen
data_Pr2Mn3(SbS3)4
_symmetry_space_group_name_H-M   'P 1'
_cell_length_a   20.02960800
_cell_length_b   3.90410600
_cell_length_c   14.95364829
_cell_angle_alpha   90.00000000
_cell_angle_beta   126.33350609
_cell_angle_gamma   90.00000000
_symmetry_Int_Tables_number   1
_chemical_formula_structural   Pr2Mn3(SbS3)4
_chemical_formula_sum   'Pr4 Mn6 Sb8 S24'
_cell_volume   942.00006694
_cell_formula_units_Z   2
loop_
 _symmetry_equiv_pos_site_id
 _symmetry_equiv_pos_as_xyz
  1  'x, y, z'
loop_
 _atom_site_type_symbol
 _atom_site_label
 _atom_site_symmetry_multiplicity
 _atom_site_fract_x
 _atom_site_fract_y
 _atom_site_fract_z
 _atom_site_occupancy
  Pr  Pr0  1  0.26757660  0.47512107  0.88399867  1
  Pr  Pr1  1  0.72766895  0.50498575  0.13242366  1
  Pr  Pr2  1  0.76056591  0.05534349  0.87050597  1
  Pr  Pr3  1  0.23383421  0.92165919  0.12777326  1
  Mn  Mn4  1  0.29566687  0.42281109  0.60535894  1
  Mn  Mn5  1  0.69494485  0.53205197  0.35963839  1
  Mn  Mn6  1  0.00210750  0.91067718  0.01118805  1
  Mn  Mn7  1  0.79654981  0.97145047  0.62455658  1
  Mn  Mn8  1  0.20963450  0.05673819  0.39288919  1
  Mn  Mn9  1  0.48661307  0.46716161  0.98964343  1
  Sb  Sb10  1  0.89475011  0.90034136  0.46367184  1
  Sb  Sb11  1  0.11216701  0.97550621  0.54372763  1
  Sb  Sb12  1  0.03275509  0.51501759  0.82673966  1
  Sb  Sb13  1  0.96110147  0.45789677  0.20145087  1
  Sb  Sb14  1  0.40761777  0.57976363  0.45116442  1
  Sb  Sb15  1  0.60260481  0.51812333  0.53447510  1
  Sb  Sb16  1  0.52212872  0.97922749  0.78793398  1
  Sb  Sb17  1  0.47049431  0.01496211  0.17589310  1
  S  S18  1  0.93173299  0.98221058  0.78883467  1
  S  S19  1  0.06395938  0.99142292  0.20668869  1
  S  S20  1  0.41011690  0.98953888  0.97396331  1
  S  S21  1  0.58226444  0.99824518  0.99949653  1
  S  S22  1  0.17564229  0.99190335  0.90049794  1
  S  S23  1  0.82713980  0.01682124  0.10524458  1
  S  S24  1  0.10228175  0.47805454  0.64428225  1
  S  S25  1  0.89511950  0.43044835  0.34670067  1
  S  S26  1  0.73785045  0.01458315  0.31878717  1
  S  S27  1  0.26364594  0.91942718  0.68013166  1
  S  S28  1  0.16869789  0.52024167  0.44752359  1
  S  S29  1  0.81596474  0.48109310  0.54496369  1
  S  S30  1  0.43547836  0.47141642  0.79599512  1
  S  S31  1  0.56522906  0.49741274  0.18666892  1
  S  S32  1  0.91272046  0.49515478  0.99365168  1
  S  S33  1  0.07931748  0.46438878  0.02135542  1
  S  S34  1  0.66611361  0.53664943  0.88895732  1
  S  S35  1  0.33310277  0.46695289  0.11118965  1
  S  S36  1  0.60855040  0.01924082  0.65746704  1
  S  S37  1  0.39754897  0.03525357  0.33416656  1
  S  S38  1  0.25340446  0.53969632  0.33362025  1
  S  S39  1  0.76195772  0.52146037  0.68273202  1
  S  S40  1  0.66162759  0.97375815  0.45575996  1
  S  S41  1  0.32760313  0.92574588  0.54978218  1
