# generated using pymatgen
data_Pr2Mn3(SbS3)4
_symmetry_space_group_name_H-M   'P 1'
_cell_length_a   20.02960800
_cell_length_b   3.90410600
_cell_length_c   14.95364829
_cell_angle_alpha   90.00000000
_cell_angle_beta   126.33350609
_cell_angle_gamma   90.00000000
_symmetry_Int_Tables_number   1
_chemical_formula_structural   Pr2Mn3(SbS3)4
_chemical_formula_sum   'Pr4 Mn6 Sb8 S24'
_cell_volume   942.00006694
_cell_formula_units_Z   2
loop_
 _symmetry_equiv_pos_site_id
 _symmetry_equiv_pos_as_xyz
  1  'x, y, z'
loop_
 _atom_site_type_symbol
 _atom_site_label
 _atom_site_symmetry_multiplicity
 _atom_site_fract_x
 _atom_site_fract_y
 _atom_site_fract_z
 _atom_site_occupancy
  Pr  Pr0  1  0.26484241  0.48142260  0.86994581  1
  Pr  Pr1  1  0.73768366  0.50996925  0.13589841  1
  Pr  Pr2  1  0.76237504  0.00846726  0.86180095  1
  Pr  Pr3  1  0.23655115  0.99820674  0.13920123  1
  Mn  Mn4  1  0.29523117  0.49358669  0.60920388  1
  Mn  Mn5  1  0.69476075  0.52355508  0.37898031  1
  Mn  Mn6  1  0.00386063  0.00158219  0.00088332  1
  Mn  Mn7  1  0.80277114  0.99064984  0.61674663  1
  Mn  Mn8  1  0.19631056  0.97519211  0.37879805  1
  Mn  Mn9  1  0.50266004  0.47390301  0.99494539  1
  Sb  Sb10  1  0.89266667  0.00173434  0.45431037  1
  Sb  Sb11  1  0.11193313  0.96951401  0.55256716  1
  Sb  Sb12  1  0.04043615  0.50514270  0.81701775  1
  Sb  Sb13  1  0.96238679  0.53197645  0.18732498  1
  Sb  Sb14  1  0.39883316  0.50138971  0.45803537  1
  Sb  Sb15  1  0.60624643  0.48707302  0.54784014  1
  Sb  Sb16  1  0.53553329  0.00869678  0.81349705  1
  Sb  Sb17  1  0.46216635  0.00560651  0.18202592  1
  S  S18  1  0.93644181  0.97378936  0.79827440  1
  S  S19  1  0.06522411  0.98748580  0.19166715  1
  S  S20  1  0.40965851  0.01284220  0.97930466  1
  S  S21  1  0.59239572  0.99711982  0.02245503  1
  S  S22  1  0.17244597  0.98756695  0.89657658  1
  S  S23  1  0.82628514  0.01885641  0.10002660  1
  S  S24  1  0.08567529  0.45630307  0.64573565  1
  S  S25  1  0.91378150  0.48845448  0.36035074  1
  S  S26  1  0.74198521  0.94979679  0.29979478  1
  S  S27  1  0.25736028  0.00042542  0.70151287  1
  S  S28  1  0.16579533  0.48608569  0.44506212  1
  S  S29  1  0.82997932  0.47465424  0.55004944  1
  S  S30  1  0.43147972  0.50547496  0.79965103  1
  S  S31  1  0.56213752  0.52842160  0.19071951  1
  S  S32  1  0.90423528  0.49341872  0.98019818  1
  S  S33  1  0.08527111  0.49539637  0.01660988  1
  S  S34  1  0.66452574  0.50521867  0.89224148  1
  S  S35  1  0.32894230  0.52901811  0.10085995  1
  S  S36  1  0.58969575  0.00327702  0.64756066  1
  S  S37  1  0.40880074  0.95902687  0.35049304  1
  S  S38  1  0.24382894  0.48071771  0.30577080  1
  S  S39  1  0.76006952  0.50105703  0.69784093  1
  S  S40  1  0.67274597  0.00925746  0.46237977  1
  S  S41  1  0.33019409  0.98754242  0.54077362  1
