# generated using pymatgen
data_Pr2Mn3(SbS3)4
_symmetry_space_group_name_H-M   'P 1'
_cell_length_a   20.02960800
_cell_length_b   3.90410600
_cell_length_c   14.95364829
_cell_angle_alpha   90.00000000
_cell_angle_beta   126.33350609
_cell_angle_gamma   90.00000000
_symmetry_Int_Tables_number   1
_chemical_formula_structural   Pr2Mn3(SbS3)4
_chemical_formula_sum   'Pr4 Mn6 Sb8 S24'
_cell_volume   942.00006694
_cell_formula_units_Z   2
loop_
 _symmetry_equiv_pos_site_id
 _symmetry_equiv_pos_as_xyz
  1  'x, y, z'
loop_
 _atom_site_type_symbol
 _atom_site_label
 _atom_site_symmetry_multiplicity
 _atom_site_fract_x
 _atom_site_fract_y
 _atom_site_fract_z
 _atom_site_occupancy
  Pr  Pr0  1  0.26763475  0.47589454  0.88397478  1
  Pr  Pr1  1  0.72772859  0.50530096  0.13254601  1
  Pr  Pr2  1  0.76050036  0.05507723  0.87053645  1
  Pr  Pr3  1  0.23384492  0.92169579  0.12766381  1
  Mn  Mn4  1  0.29574034  0.42187098  0.60544713  1
  Mn  Mn5  1  0.69492164  0.53195062  0.35936319  1
  Mn  Mn6  1  0.00207064  0.90965338  0.01101019  1
  Mn  Mn7  1  0.79640868  0.97152905  0.62428467  1
  Mn  Mn8  1  0.20957795  0.05725805  0.39279908  1
  Mn  Mn9  1  0.48678514  0.46741039  0.98998898  1
  Sb  Sb10  1  0.89471264  0.90093165  0.46366120  1
  Sb  Sb11  1  0.11208185  0.97562793  0.54359415  1
  Sb  Sb12  1  0.03273621  0.51495520  0.82677105  1
  Sb  Sb13  1  0.96105916  0.45790694  0.20139997  1
  Sb  Sb14  1  0.40760676  0.58055388  0.45144439  1
  Sb  Sb15  1  0.60262749  0.51824394  0.53435457  1
  Sb  Sb16  1  0.52219598  0.97941501  0.78795259  1
  Sb  Sb17  1  0.47047546  0.01515316  0.17581539  1
  S  S18  1  0.93198259  0.98223484  0.78956800  1
  S  S19  1  0.06388457  0.99119253  0.20641772  1
  S  S20  1  0.41000261  0.98918135  0.97373033  1
  S  S21  1  0.58211264  0.99929288  0.99957131  1
  S  S22  1  0.17555592  0.99024665  0.90051932  1
  S  S23  1  0.82729687  0.01611509  0.10559033  1
  S  S24  1  0.10211610  0.47845386  0.64394154  1
  S  S25  1  0.89494406  0.43145179  0.34673107  1
  S  S26  1  0.73809356  0.01448245  0.31908591  1
  S  S27  1  0.26384284  0.91802398  0.68008818  1
  S  S28  1  0.16898776  0.52071957  0.44767677  1
  S  S29  1  0.81600591  0.48048168  0.54504930  1
  S  S30  1  0.43553368  0.47230495  0.79608077  1
  S  S31  1  0.56535162  0.49650262  0.18671155  1
  S  S32  1  0.91270963  0.49415653  0.99356648  1
  S  S33  1  0.07921921  0.46409259  0.02114289  1
  S  S34  1  0.66605173  0.53656337  0.88903697  1
  S  S35  1  0.33326249  0.46721838  0.11148053  1
  S  S36  1  0.60852311  0.01948381  0.65734098  1
  S  S37  1  0.39754163  0.03596691  0.33426483  1
  S  S38  1  0.25345852  0.53879346  0.33352238  1
  S  S39  1  0.76176526  0.52208487  0.68225831  1
  S  S40  1  0.66151105  0.97216112  0.45569315  1
  S  S41  1  0.32745526  0.92593297  0.54987047  1
