# generated using pymatgen
data_Pr2Mn3(SbS3)4
_symmetry_space_group_name_H-M   'P 1'
_cell_length_a   20.02960800
_cell_length_b   3.90410600
_cell_length_c   14.95364829
_cell_angle_alpha   90.00000000
_cell_angle_beta   126.33350609
_cell_angle_gamma   90.00000000
_symmetry_Int_Tables_number   1
_chemical_formula_structural   Pr2Mn3(SbS3)4
_chemical_formula_sum   'Pr4 Mn6 Sb8 S24'
_cell_volume   942.00006694
_cell_formula_units_Z   2
loop_
 _symmetry_equiv_pos_site_id
 _symmetry_equiv_pos_as_xyz
  1  'x, y, z'
loop_
 _atom_site_type_symbol
 _atom_site_label
 _atom_site_symmetry_multiplicity
 _atom_site_fract_x
 _atom_site_fract_y
 _atom_site_fract_z
 _atom_site_occupancy
  Pr  Pr0  1  0.26766287  0.47632274  0.88394763  1
  Pr  Pr1  1  0.72767810  0.50568746  0.13254600  1
  Pr  Pr2  1  0.76047171  0.05500926  0.87062589  1
  Pr  Pr3  1  0.23383607  0.92159285  0.12754004  1
  Mn  Mn4  1  0.29596417  0.42078315  0.60560075  1
  Mn  Mn5  1  0.69487064  0.53206877  0.35907472  1
  Mn  Mn6  1  0.00196171  0.90877664  0.01075520  1
  Mn  Mn7  1  0.79631991  0.97162220  0.62420432  1
  Mn  Mn8  1  0.20958492  0.05775665  0.39275385  1
  Mn  Mn9  1  0.48687531  0.46788913  0.99023247  1
  Sb  Sb10  1  0.89472237  0.90150530  0.46365448  1
  Sb  Sb11  1  0.11202281  0.97576210  0.54354662  1
  Sb  Sb12  1  0.03272829  0.51505425  0.82690393  1
  Sb  Sb13  1  0.96106527  0.45776829  0.20138230  1
  Sb  Sb14  1  0.40756483  0.58151824  0.45161724  1
  Sb  Sb15  1  0.60264984  0.51832046  0.53431197  1
  Sb  Sb16  1  0.52226346  0.97955758  0.78802329  1
  Sb  Sb17  1  0.47045523  0.01540254  0.17578202  1
  S  S18  1  0.93228311  0.98213168  0.79027922  1
  S  S19  1  0.06380372  0.99092931  0.20623792  1
  S  S20  1  0.40977065  0.98987205  0.97342544  1
  S  S21  1  0.58215665  0.00028808  0.99969296  1
  S  S22  1  0.17546214  0.98883967  0.90042284  1
  S  S23  1  0.82739443  0.01574344  0.10584926  1
  S  S24  1  0.10188289  0.47948903  0.64377368  1
  S  S25  1  0.89475394  0.43248571  0.34674479  1
  S  S26  1  0.73828103  0.01461184  0.31922742  1
  S  S27  1  0.26393937  0.91702073  0.67997044  1
  S  S28  1  0.16932357  0.52085751  0.44787026  1
  S  S29  1  0.81591680  0.48013002  0.54505281  1
  S  S30  1  0.43545772  0.47345111  0.79598896  1
  S  S31  1  0.56535096  0.49566394  0.18661497  1
  S  S32  1  0.91271114  0.49377165  0.99344413  1
  S  S33  1  0.07913996  0.46376417  0.02102439  1
  S  S34  1  0.66598724  0.53618483  0.88915799  1
  S  S35  1  0.33336698  0.46742359  0.11164502  1
  S  S36  1  0.60834009  0.01928335  0.65705673  1
  S  S37  1  0.39766783  0.03674866  0.33438034  1
  S  S38  1  0.25339336  0.53781355  0.33327296  1
  S  S39  1  0.76162935  0.52266346  0.68184951  1
  S  S40  1  0.66139682  0.97048061  0.45562415  1
  S  S41  1  0.32741136  0.92658769  0.54992278  1
