# generated using pymatgen
data_Pr2Mn3(SbS3)4
_symmetry_space_group_name_H-M   'P 1'
_cell_length_a   20.02960800
_cell_length_b   3.90410600
_cell_length_c   14.95364829
_cell_angle_alpha   90.00000000
_cell_angle_beta   126.33350609
_cell_angle_gamma   90.00000000
_symmetry_Int_Tables_number   1
_chemical_formula_structural   Pr2Mn3(SbS3)4
_chemical_formula_sum   'Pr4 Mn6 Sb8 S24'
_cell_volume   942.00006694
_cell_formula_units_Z   2
loop_
 _symmetry_equiv_pos_site_id
 _symmetry_equiv_pos_as_xyz
  1  'x, y, z'
loop_
 _atom_site_type_symbol
 _atom_site_label
 _atom_site_symmetry_multiplicity
 _atom_site_fract_x
 _atom_site_fract_y
 _atom_site_fract_z
 _atom_site_occupancy
  Pr  Pr0  1  0.26774430  0.47682758  0.88396502  1
  Pr  Pr1  1  0.72764315  0.50577140  0.13253453  1
  Pr  Pr2  1  0.76049156  0.05492339  0.87073765  1
  Pr  Pr3  1  0.23380823  0.92139602  0.12738651  1
  Mn  Mn4  1  0.29612362  0.41944649  0.60568280  1
  Mn  Mn5  1  0.69482348  0.53239745  0.35886422  1
  Mn  Mn6  1  0.00185256  0.90799422  0.01054309  1
  Mn  Mn7  1  0.79622054  0.97162385  0.62416620  1
  Mn  Mn8  1  0.20960796  0.05810295  0.39271907  1
  Mn  Mn9  1  0.48695327  0.46827679  0.99044729  1
  Sb  Sb10  1  0.89471243  0.90190161  0.46363256  1
  Sb  Sb11  1  0.11204131  0.97594732  0.54353158  1
  Sb  Sb12  1  0.03272719  0.51521174  0.82704863  1
  Sb  Sb13  1  0.96103663  0.45755825  0.20142118  1
  Sb  Sb14  1  0.40748756  0.58243108  0.45171752  1
  Sb  Sb15  1  0.60265235  0.51853879  0.53429478  1
  Sb  Sb16  1  0.52234568  0.97984721  0.78809082  1
  Sb  Sb17  1  0.47046094  0.01542630  0.17579826  1
  S  S18  1  0.93248298  0.98165541  0.79085464  1
  S  S19  1  0.06358274  0.99094817  0.20594327  1
  S  S20  1  0.40950001  0.99104178  0.97321110  1
  S  S21  1  0.58223786  0.00108392  0.99977624  1
  S  S22  1  0.17532772  0.98792358  0.90029434  1
  S  S23  1  0.82751602  0.01511841  0.10624639  1
  S  S24  1  0.10168124  0.48047323  0.64353094  1
  S  S25  1  0.89459736  0.43272491  0.34692137  1
  S  S26  1  0.73843478  0.01461145  0.31935938  1
  S  S27  1  0.26399200  0.91592360  0.67986868  1
  S  S28  1  0.16966735  0.52107223  0.44798452  1
  S  S29  1  0.81582629  0.48035235  0.54504004  1
  S  S30  1  0.43528359  0.47433973  0.79578599  1
  S  S31  1  0.56538322  0.49523399  0.18658499  1
  S  S32  1  0.91267304  0.49341544  0.99334136  1
  S  S33  1  0.07919113  0.46369024  0.02102042  1
  S  S34  1  0.66598033  0.53605040  0.88934742  1
  S  S35  1  0.33349907  0.46777893  0.11182197  1
  S  S36  1  0.60813859  0.01870319  0.65682704  1
  S  S37  1  0.39768972  0.03736252  0.33434226  1
  S  S38  1  0.25318300  0.53704682  0.33295609  1
  S  S39  1  0.76152099  0.52339494  0.68151738  1
  S  S40  1  0.66138190  0.96865666  0.45576996  1
  S  S41  1  0.32738222  0.92717564  0.55004692  1
