# generated using pymatgen
data_Pr2Mn3(SbS3)4
_symmetry_space_group_name_H-M   'P 1'
_cell_length_a   20.02960800
_cell_length_b   3.90410600
_cell_length_c   14.95364829
_cell_angle_alpha   90.00000000
_cell_angle_beta   126.33350609
_cell_angle_gamma   90.00000000
_symmetry_Int_Tables_number   1
_chemical_formula_structural   Pr2Mn3(SbS3)4
_chemical_formula_sum   'Pr4 Mn6 Sb8 S24'
_cell_volume   942.00006694
_cell_formula_units_Z   2
loop_
 _symmetry_equiv_pos_site_id
 _symmetry_equiv_pos_as_xyz
  1  'x, y, z'
loop_
 _atom_site_type_symbol
 _atom_site_label
 _atom_site_symmetry_multiplicity
 _atom_site_fract_x
 _atom_site_fract_y
 _atom_site_fract_z
 _atom_site_occupancy
  Pr  Pr0  1  0.26777355  0.47731833  0.88394617  1
  Pr  Pr1  1  0.72757571  0.50583973  0.13251240  1
  Pr  Pr2  1  0.76059938  0.05460911  0.87095966  1
  Pr  Pr3  1  0.23381056  0.92135274  0.12725826  1
  Mn  Mn4  1  0.29626004  0.41806411  0.60575900  1
  Mn  Mn5  1  0.69479288  0.53244193  0.35871132  1
  Mn  Mn6  1  0.00183543  0.90763440  0.01042865  1
  Mn  Mn7  1  0.79617658  0.97118240  0.62424557  1
  Mn  Mn8  1  0.20955241  0.05837653  0.39256692  1
  Mn  Mn9  1  0.48698061  0.46868031  0.99056730  1
  Sb  Sb10  1  0.89468271  0.90228297  0.46355503  1
  Sb  Sb11  1  0.11212072  0.97616291  0.54352389  1
  Sb  Sb12  1  0.03272994  0.51543268  0.82712285  1
  Sb  Sb13  1  0.96105788  0.45770542  0.20141072  1
  Sb  Sb14  1  0.40738455  0.58313579  0.45169871  1
  Sb  Sb15  1  0.60260841  0.51852585  0.53412393  1
  Sb  Sb16  1  0.52245527  0.98034569  0.78819488  1
  Sb  Sb17  1  0.47048625  0.01541899  0.17579350  1
  S  S18  1  0.93273040  0.98156506  0.79149971  1
  S  S19  1  0.06337790  0.99093053  0.20556066  1
  S  S20  1  0.40921213  0.99250124  0.97304150  1
  S  S21  1  0.58234400  0.00185914  0.99979588  1
  S  S22  1  0.17517722  0.98727384  0.90011486  1
  S  S23  1  0.82765594  0.01485066  0.10655400  1
  S  S24  1  0.10141877  0.48160672  0.64328639  1
  S  S25  1  0.89451642  0.43301771  0.34710466  1
  S  S26  1  0.73855006  0.01490718  0.31949964  1
  S  S27  1  0.26423126  0.91512107  0.68005312  1
  S  S28  1  0.16993509  0.52140735  0.44797882  1
  S  S29  1  0.81575810  0.48101853  0.54500493  1
  S  S30  1  0.43508642  0.47542880  0.79557688  1
  S  S31  1  0.56544940  0.49481658  0.18651025  1
  S  S32  1  0.91267340  0.49320115  0.99322578  1
  S  S33  1  0.07913822  0.46359036  0.02101364  1
  S  S34  1  0.66598239  0.53630439  0.88947538  1
  S  S35  1  0.33358502  0.46803960  0.11204106  1
  S  S36  1  0.60794404  0.01803565  0.65664329  1
  S  S37  1  0.39770524  0.03862141  0.33426920  1
  S  S38  1  0.25288641  0.53590628  0.33263536  1
  S  S39  1  0.76150669  0.52443161  0.68127533  1
  S  S40  1  0.66144548  0.96652124  0.45604369  1
  S  S41  1  0.32733282  0.92762862  0.55021710  1
