# generated using pymatgen
data_Pr2Mn3(SbS3)4
_symmetry_space_group_name_H-M   'P 1'
_cell_length_a   20.02960800
_cell_length_b   3.90410600
_cell_length_c   14.95364829
_cell_angle_alpha   90.00000000
_cell_angle_beta   126.33350609
_cell_angle_gamma   90.00000000
_symmetry_Int_Tables_number   1
_chemical_formula_structural   Pr2Mn3(SbS3)4
_chemical_formula_sum   'Pr4 Mn6 Sb8 S24'
_cell_volume   942.00006694
_cell_formula_units_Z   2
loop_
 _symmetry_equiv_pos_site_id
 _symmetry_equiv_pos_as_xyz
  1  'x, y, z'
loop_
 _atom_site_type_symbol
 _atom_site_label
 _atom_site_symmetry_multiplicity
 _atom_site_fract_x
 _atom_site_fract_y
 _atom_site_fract_z
 _atom_site_occupancy
  Pr  Pr0  1  0.26785633  0.47761668  0.88390632  1
  Pr  Pr1  1  0.72752711  0.50594937  0.13249174  1
  Pr  Pr2  1  0.76067285  0.05408748  0.87118576  1
  Pr  Pr3  1  0.23380906  0.92133564  0.12706257  1
  Mn  Mn4  1  0.29634067  0.41664645  0.60583438  1
  Mn  Mn5  1  0.69476679  0.53223299  0.35853818  1
  Mn  Mn6  1  0.00181361  0.90749142  0.01036647  1
  Mn  Mn7  1  0.79620135  0.97109056  0.62438515  1
  Mn  Mn8  1  0.20948886  0.05851653  0.39250111  1
  Mn  Mn9  1  0.48692683  0.46952152  0.99052989  1
  Sb  Sb10  1  0.89462174  0.90276056  0.46344377  1
  Sb  Sb11  1  0.11228636  0.97668893  0.54360773  1
  Sb  Sb12  1  0.03273858  0.51575278  0.82718356  1
  Sb  Sb13  1  0.96103876  0.45784572  0.20132490  1
  Sb  Sb14  1  0.40730607  0.58412966  0.45170851  1
  Sb  Sb15  1  0.60255949  0.51838643  0.53396414  1
  Sb  Sb16  1  0.52250023  0.98081304  0.78822487  1
  Sb  Sb17  1  0.47047005  0.01533546  0.17570308  1
  S  S18  1  0.93301807  0.98161907  0.79205310  1
  S  S19  1  0.06318082  0.99147589  0.20525853  1
  S  S20  1  0.40901256  0.99366546  0.97286346  1
  S  S21  1  0.58245398  0.00329370  0.99986890  1
  S  S22  1  0.17494908  0.98652771  0.90000518  1
  S  S23  1  0.82769869  0.01452549  0.10679615  1
  S  S24  1  0.10109035  0.48265401  0.64299138  1
  S  S25  1  0.89441374  0.43320357  0.34725202  1
  S  S26  1  0.73869121  0.01520705  0.31951683  1
  S  S27  1  0.26447031  0.91371389  0.68028151  1
  S  S28  1  0.17013159  0.52182250  0.44787789  1
  S  S29  1  0.81571289  0.48188953  0.54503552  1
  S  S30  1  0.43489971  0.47710804  0.79530510  1
  S  S31  1  0.56558614  0.49386564  0.18663313  1
  S  S32  1  0.91272217  0.49269398  0.99303159  1
  S  S33  1  0.07923930  0.46395252  0.02117328  1
  S  S34  1  0.66593714  0.53588086  0.88952743  1
  S  S35  1  0.33367448  0.46826764  0.11228589  1
  S  S36  1  0.60774280  0.01738062  0.65633148  1
  S  S37  1  0.39766267  0.03974648  0.33413832  1
  S  S38  1  0.25250167  0.53469259  0.33215642  1
  S  S39  1  0.76141706  0.52483933  0.68107140  1
  S  S40  1  0.66157749  0.96452549  0.45631905  1
  S  S41  1  0.32737302  0.92791064  0.55046430  1
