# generated using pymatgen
data_Pr2Mn3(SbS3)4
_symmetry_space_group_name_H-M   'P 1'
_cell_length_a   20.02960800
_cell_length_b   3.90410600
_cell_length_c   14.95364829
_cell_angle_alpha   90.00000000
_cell_angle_beta   126.33350609
_cell_angle_gamma   90.00000000
_symmetry_Int_Tables_number   1
_chemical_formula_structural   Pr2Mn3(SbS3)4
_chemical_formula_sum   'Pr4 Mn6 Sb8 S24'
_cell_volume   942.00006694
_cell_formula_units_Z   2
loop_
 _symmetry_equiv_pos_site_id
 _symmetry_equiv_pos_as_xyz
  1  'x, y, z'
loop_
 _atom_site_type_symbol
 _atom_site_label
 _atom_site_symmetry_multiplicity
 _atom_site_fract_x
 _atom_site_fract_y
 _atom_site_fract_z
 _atom_site_occupancy
  Pr  Pr0  1  0.26793802  0.47776309  0.88380907  1
  Pr  Pr1  1  0.72745053  0.50619004  0.13248666  1
  Pr  Pr2  1  0.76075037  0.05391822  0.87145111  1
  Pr  Pr3  1  0.23383238  0.92123976  0.12693674  1
  Mn  Mn4  1  0.29650079  0.41528841  0.60589739  1
  Mn  Mn5  1  0.69473258  0.53233734  0.35840781  1
  Mn  Mn6  1  0.00189241  0.90728759  0.01038556  1
  Mn  Mn7  1  0.79622065  0.97063220  0.62452172  1
  Mn  Mn8  1  0.20945942  0.05888311  0.39254516  1
  Mn  Mn9  1  0.48689415  0.47056492  0.99052630  1
  Sb  Sb10  1  0.89448932  0.90352871  0.46332162  1
  Sb  Sb11  1  0.11244620  0.97726778  0.54365494  1
  Sb  Sb12  1  0.03272212  0.51606237  0.82719462  1
  Sb  Sb13  1  0.96106404  0.45784961  0.20128042  1
  Sb  Sb14  1  0.40723949  0.58505317  0.45173293  1
  Sb  Sb15  1  0.60253980  0.51828578  0.53385258  1
  Sb  Sb16  1  0.52261720  0.98118180  0.78832638  1
  Sb  Sb17  1  0.47046006  0.01525841  0.17568259  1
  S  S18  1  0.93332286  0.98171085  0.79264960  1
  S  S19  1  0.06316571  0.99215542  0.20509116  1
  S  S20  1  0.40877545  0.99417329  0.97266402  1
  S  S21  1  0.58244815  0.00490128  0.99980856  1
  S  S22  1  0.17478171  0.98605113  0.89988496  1
  S  S23  1  0.82763816  0.01421608  0.10691884  1
  S  S24  1  0.10094926  0.48413361  0.64283526  1
  S  S25  1  0.89424177  0.43370003  0.34728790  1
  S  S26  1  0.73876531  0.01542573  0.31957934  1
  S  S27  1  0.26458273  0.91260601  0.68040748  1
  S  S28  1  0.17029445  0.52220975  0.44783761  1
  S  S29  1  0.81556386  0.48292036  0.54492283  1
  S  S30  1  0.43478118  0.47914626  0.79505233  1
  S  S31  1  0.56583720  0.49284969  0.18683955  1
  S  S32  1  0.91293062  0.49268644  0.99290772  1
  S  S33  1  0.07931875  0.46394000  0.02126553  1
  S  S34  1  0.66591736  0.53485554  0.88973376  1
  S  S35  1  0.33368285  0.46823530  0.11248045  1
  S  S36  1  0.60756806  0.01632699  0.65590388  1
  S  S37  1  0.39755396  0.04041558  0.33400300  1
  S  S38  1  0.25215391  0.53341765  0.33180367  1
  S  S39  1  0.76139895  0.52487178  0.68095205  1
  S  S40  1  0.66160198  0.96264977  0.45639460  1
  S  S41  1  0.32736804  0.92816894  0.55046144  1
