# generated using pymatgen
data_Pr2Mn3(SbS3)4
_symmetry_space_group_name_H-M   'P 1'
_cell_length_a   20.02960800
_cell_length_b   3.90410600
_cell_length_c   14.95364829
_cell_angle_alpha   90.00000000
_cell_angle_beta   126.33350609
_cell_angle_gamma   90.00000000
_symmetry_Int_Tables_number   1
_chemical_formula_structural   Pr2Mn3(SbS3)4
_chemical_formula_sum   'Pr4 Mn6 Sb8 S24'
_cell_volume   942.00006694
_cell_formula_units_Z   2
loop_
 _symmetry_equiv_pos_site_id
 _symmetry_equiv_pos_as_xyz
  1  'x, y, z'
loop_
 _atom_site_type_symbol
 _atom_site_label
 _atom_site_symmetry_multiplicity
 _atom_site_fract_x
 _atom_site_fract_y
 _atom_site_fract_z
 _atom_site_occupancy
  Pr  Pr0  1  0.26798195  0.47806428  0.88368022  1
  Pr  Pr1  1  0.72737246  0.50631777  0.13245016  1
  Pr  Pr2  1  0.76088467  0.05387964  0.87172667  1
  Pr  Pr3  1  0.23389316  0.92132180  0.12690574  1
  Mn  Mn4  1  0.29669636  0.41400145  0.60604827  1
  Mn  Mn5  1  0.69486640  0.53241968  0.35839127  1
  Mn  Mn6  1  0.00196887  0.90666477  0.01041089  1
  Mn  Mn7  1  0.79629432  0.96992526  0.62465227  1
  Mn  Mn8  1  0.20941992  0.05906800  0.39257948  1
  Mn  Mn9  1  0.48689202  0.47190655  0.99055248  1
  Sb  Sb10  1  0.89434859  0.90394445  0.46318957  1
  Sb  Sb11  1  0.11260937  0.97778013  0.54377639  1
  Sb  Sb12  1  0.03272900  0.51614757  0.82718264  1
  Sb  Sb13  1  0.96106954  0.45803839  0.20124557  1
  Sb  Sb14  1  0.40714705  0.58555515  0.45173270  1
  Sb  Sb15  1  0.60249821  0.51814919  0.53379578  1
  Sb  Sb16  1  0.52268209  0.98135404  0.78842254  1
  Sb  Sb17  1  0.47043588  0.01496943  0.17566864  1
  S  S18  1  0.93359305  0.98135415  0.79318231  1
  S  S19  1  0.06314954  0.99304881  0.20488763  1
  S  S20  1  0.40851680  0.99425260  0.97244536  1
  S  S21  1  0.58246998  0.00657374  0.99972374  1
  S  S22  1  0.17464092  0.98547313  0.89995216  1
  S  S23  1  0.82747274  0.01391299  0.10699507  1
  S  S24  1  0.10067570  0.48633710  0.64263741  1
  S  S25  1  0.89405267  0.43431622  0.34737990  1
  S  S26  1  0.73891218  0.01558858  0.31955843  1
  S  S27  1  0.26472753  0.91125520  0.68051490  1
  S  S28  1  0.17049821  0.52219988  0.44789068  1
  S  S29  1  0.81534745  0.48396845  0.54478428  1
  S  S30  1  0.43461845  0.48148511  0.79473503  1
  S  S31  1  0.56612527  0.49169398  0.18713331  1
  S  S32  1  0.91309711  0.49296041  0.99282319  1
  S  S33  1  0.07952243  0.46386162  0.02166821  1
  S  S34  1  0.66587611  0.53389584  0.88978851  1
  S  S35  1  0.33364903  0.46776876  0.11259703  1
  S  S36  1  0.60728864  0.01555854  0.65541909  1
  S  S37  1  0.39753136  0.04076056  0.33401488  1
  S  S38  1  0.25187303  0.53267694  0.33143418  1
  S  S39  1  0.76139478  0.52437381  0.68080479  1
  S  S40  1  0.66166677  0.96042732  0.45658325  1
  S  S41  1  0.32729967  0.92856905  0.55046404  1
