# generated using pymatgen
data_Pr2Mn3(SbS3)4
_symmetry_space_group_name_H-M   'P 1'
_cell_length_a   20.02960800
_cell_length_b   3.90410600
_cell_length_c   14.95364829
_cell_angle_alpha   90.00000000
_cell_angle_beta   126.33350609
_cell_angle_gamma   90.00000000
_symmetry_Int_Tables_number   1
_chemical_formula_structural   Pr2Mn3(SbS3)4
_chemical_formula_sum   'Pr4 Mn6 Sb8 S24'
_cell_volume   942.00006694
_cell_formula_units_Z   2
loop_
 _symmetry_equiv_pos_site_id
 _symmetry_equiv_pos_as_xyz
  1  'x, y, z'
loop_
 _atom_site_type_symbol
 _atom_site_label
 _atom_site_symmetry_multiplicity
 _atom_site_fract_x
 _atom_site_fract_y
 _atom_site_fract_z
 _atom_site_occupancy
  Pr  Pr0  1  0.26810607  0.47829076  0.88361425  1
  Pr  Pr1  1  0.72732274  0.50631262  0.13238297  1
  Pr  Pr2  1  0.76101775  0.05374543  0.87196231  1
  Pr  Pr3  1  0.23398156  0.92143241  0.12692941  1
  Mn  Mn4  1  0.29695071  0.41323379  0.60623003  1
  Mn  Mn5  1  0.69502229  0.53250843  0.35844667  1
  Mn  Mn6  1  0.00200440  0.90614592  0.01044599  1
  Mn  Mn7  1  0.79639710  0.96953630  0.62476939  1
  Mn  Mn8  1  0.20931708  0.05902416  0.39258102  1
  Mn  Mn9  1  0.48691693  0.47283489  0.99065321  1
  Sb  Sb10  1  0.89420599  0.90448249  0.46303770  1
  Sb  Sb11  1  0.11271724  0.97830156  0.54396218  1
  Sb  Sb12  1  0.03272018  0.51639196  0.82709957  1
  Sb  Sb13  1  0.96111432  0.45824439  0.20122552  1
  Sb  Sb14  1  0.40705214  0.58589501  0.45169546  1
  Sb  Sb15  1  0.60247234  0.51797020  0.53375430  1
  Sb  Sb16  1  0.52271366  0.98176670  0.78843834  1
  Sb  Sb17  1  0.47045482  0.01473375  0.17567507  1
  S  S18  1  0.93381333  0.98081056  0.79369120  1
  S  S19  1  0.06307339  0.99420008  0.20453056  1
  S  S20  1  0.40812752  0.99391694  0.97199607  1
  S  S21  1  0.58250966  0.00780878  0.99964045  1
  S  S22  1  0.17439959  0.98468862  0.89982600  1
  S  S23  1  0.82737209  0.01354287  0.10706245  1
  S  S24  1  0.10034749  0.48863162  0.64243245  1
  S  S25  1  0.89375866  0.43459177  0.34728580  1
  S  S26  1  0.73902755  0.01609131  0.31952373  1
  S  S27  1  0.26484380  0.90973381  0.68068878  1
  S  S28  1  0.17074132  0.52246618  0.44795554  1
  S  S29  1  0.81524899  0.48510400  0.54480522  1
  S  S30  1  0.43455453  0.48336716  0.79448109  1
  S  S31  1  0.56644443  0.49040917  0.18721447  1
  S  S32  1  0.91322345  0.49265402  0.99281015  1
  S  S33  1  0.07965909  0.46370804  0.02196369  1
  S  S34  1  0.66597543  0.53302505  0.89000674  1
  S  S35  1  0.33366315  0.46737486  0.11274956  1
  S  S36  1  0.60697362  0.01514890  0.65480382  1
  S  S37  1  0.39752369  0.04077967  0.33390861  1
  S  S38  1  0.25171462  0.53192878  0.33113184  1
  S  S39  1  0.76139054  0.52370870  0.68047027  1
  S  S40  1  0.66176925  0.95835161  0.45669725  1
  S  S41  1  0.32728893  0.92830399  0.55051258  1
