# generated using pymatgen
data_Pr2Mn3(SbS3)4
_symmetry_space_group_name_H-M   'P 1'
_cell_length_a   20.02960800
_cell_length_b   3.90410600
_cell_length_c   14.95364829
_cell_angle_alpha   90.00000000
_cell_angle_beta   126.33350609
_cell_angle_gamma   90.00000000
_symmetry_Int_Tables_number   1
_chemical_formula_structural   Pr2Mn3(SbS3)4
_chemical_formula_sum   'Pr4 Mn6 Sb8 S24'
_cell_volume   942.00006694
_cell_formula_units_Z   2
loop_
 _symmetry_equiv_pos_site_id
 _symmetry_equiv_pos_as_xyz
  1  'x, y, z'
loop_
 _atom_site_type_symbol
 _atom_site_label
 _atom_site_symmetry_multiplicity
 _atom_site_fract_x
 _atom_site_fract_y
 _atom_site_fract_z
 _atom_site_occupancy
  Pr  Pr0  1  0.26825822  0.47845068  0.88358477  1
  Pr  Pr1  1  0.72729396  0.50627183  0.13230945  1
  Pr  Pr2  1  0.76114925  0.05370407  0.87218336  1
  Pr  Pr3  1  0.23405703  0.92164969  0.12693719  1
  Mn  Mn4  1  0.29710118  0.41248721  0.60625198  1
  Mn  Mn5  1  0.69510504  0.53270715  0.35843336  1
  Mn  Mn6  1  0.00205946  0.90625989  0.01048810  1
  Mn  Mn7  1  0.79656487  0.96898169  0.62496961  1
  Mn  Mn8  1  0.20925662  0.05909709  0.39270127  1
  Mn  Mn9  1  0.48694953  0.47329681  0.99079380  1
  Sb  Sb10  1  0.89409693  0.90487233  0.46296713  1
  Sb  Sb11  1  0.11283372  0.97871464  0.54414990  1
  Sb  Sb12  1  0.03272525  0.51644092  0.82704459  1
  Sb  Sb13  1  0.96113789  0.45870354  0.20118567  1
  Sb  Sb14  1  0.40696364  0.58618832  0.45170714  1
  Sb  Sb15  1  0.60241664  0.51769125  0.53365652  1
  Sb  Sb16  1  0.52270625  0.98203343  0.78842987  1
  Sb  Sb17  1  0.47051610  0.01453082  0.17585870  1
  S  S18  1  0.93399165  0.98069776  0.79409822  1
  S  S19  1  0.06285701  0.99512077  0.20418280  1
  S  S20  1  0.40774838  0.99382742  0.97159782  1
  S  S21  1  0.58253716  0.00921251  0.99950732  1
  S  S22  1  0.17410277  0.98393257  0.89959641  1
  S  S23  1  0.82722286  0.01302007  0.10712982  1
  S  S24  1  0.10006236  0.49061989  0.64215745  1
  S  S25  1  0.89342890  0.43471722  0.34722610  1
  S  S26  1  0.73902052  0.01577611  0.31942873  1
  S  S27  1  0.26497146  0.90823241  0.68088397  1
  S  S28  1  0.17099734  0.52266038  0.44795975  1
  S  S29  1  0.81523577  0.48631436  0.54487943  1
  S  S30  1  0.43444928  0.48509111  0.79431631  1
  S  S31  1  0.56670756  0.48889349  0.18726831  1
  S  S32  1  0.91331762  0.49296291  0.99276270  1
  S  S33  1  0.07980562  0.46390626  0.02223751  1
  S  S34  1  0.66605584  0.53221232  0.89015666  1
  S  S35  1  0.33367580  0.46728862  0.11277327  1
  S  S36  1  0.60669102  0.01466659  0.65428046  1
  S  S37  1  0.39752428  0.04076359  0.33375923  1
  S  S38  1  0.25152776  0.53089657  0.33068590  1
  S  S39  1  0.76134982  0.52242868  0.68033566  1
  S  S40  1  0.66208807  0.95636481  0.45706963  1
  S  S41  1  0.32728310  0.92841783  0.55060486  1
