# generated using pymatgen
data_Pr2Mn3(SbS3)4
_symmetry_space_group_name_H-M   'P 1'
_cell_length_a   20.02960800
_cell_length_b   3.90410600
_cell_length_c   14.95364829
_cell_angle_alpha   90.00000000
_cell_angle_beta   126.33350609
_cell_angle_gamma   90.00000000
_symmetry_Int_Tables_number   1
_chemical_formula_structural   Pr2Mn3(SbS3)4
_chemical_formula_sum   'Pr4 Mn6 Sb8 S24'
_cell_volume   942.00006694
_cell_formula_units_Z   2
loop_
 _symmetry_equiv_pos_site_id
 _symmetry_equiv_pos_as_xyz
  1  'x, y, z'
loop_
 _atom_site_type_symbol
 _atom_site_label
 _atom_site_symmetry_multiplicity
 _atom_site_fract_x
 _atom_site_fract_y
 _atom_site_fract_z
 _atom_site_occupancy
  Pr  Pr0  1  0.26836710  0.47870208  0.88357984  1
  Pr  Pr1  1  0.72719870  0.50590380  0.13223553  1
  Pr  Pr2  1  0.76123740  0.05371977  0.87233357  1
  Pr  Pr3  1  0.23410645  0.92168192  0.12688118  1
  Mn  Mn4  1  0.29719230  0.41197548  0.60614390  1
  Mn  Mn5  1  0.69514267  0.53308781  0.35839284  1
  Mn  Mn6  1  0.00216200  0.90656407  0.01057795  1
  Mn  Mn7  1  0.79667142  0.96857774  0.62504871  1
  Mn  Mn8  1  0.20911607  0.05948917  0.39283870  1
  Mn  Mn9  1  0.48694119  0.47320801  0.99076902  1
  Sb  Sb10  1  0.89403220  0.90533048  0.46284772  1
  Sb  Sb11  1  0.11293391  0.97924585  0.54429412  1
  Sb  Sb12  1  0.03276824  0.51647075  0.82700215  1
  Sb  Sb13  1  0.96114466  0.45929096  0.20112491  1
  Sb  Sb14  1  0.40694170  0.58646631  0.45173916  1
  Sb  Sb15  1  0.60229222  0.51749183  0.53350461  1
  Sb  Sb16  1  0.52272572  0.98218580  0.78845971  1
  Sb  Sb17  1  0.47053972  0.01431499  0.17598861  1
  S  S18  1  0.93401264  0.98058169  0.79444722  1
  S  S19  1  0.06269324  0.99672228  0.20397727  1
  S  S20  1  0.40735991  0.99386098  0.97117538  1
  S  S21  1  0.58251331  0.01028807  0.99934080  1
  S  S22  1  0.17384798  0.98361861  0.89932304  1
  S  S23  1  0.82722117  0.01254731  0.10743700  1
  S  S24  1  0.09983495  0.49256480  0.64199436  1
  S  S25  1  0.89309136  0.43412951  0.34700334  1
  S  S26  1  0.73898387  0.01553995  0.31921043  1
  S  S27  1  0.26514297  0.90669409  0.68097670  1
  S  S28  1  0.17120935  0.52333321  0.44793894  1
  S  S29  1  0.81525960  0.48769083  0.54494224  1
  S  S30  1  0.43428457  0.48676180  0.79421612  1
  S  S31  1  0.56687638  0.48730188  0.18728818  1
  S  S32  1  0.91346632  0.49320491  0.99278148  1
  S  S33  1  0.07984502  0.46424252  0.02247515  1
  S  S34  1  0.66604862  0.53108813  0.89033123  1
  S  S35  1  0.33376466  0.46742136  0.11288609  1
  S  S36  1  0.60647600  0.01433882  0.65392126  1
  S  S37  1  0.39751099  0.04040536  0.33352264  1
  S  S38  1  0.25140618  0.53005725  0.33032028  1
  S  S39  1  0.76120137  0.52121489  0.68010124  1
  S  S40  1  0.66248025  0.95407757  0.45741287  1
  S  S41  1  0.32732743  0.92858013  0.55068801  1
