# generated using pymatgen
data_Pr2Mn3(SbS3)4
_symmetry_space_group_name_H-M   'P 1'
_cell_length_a   20.02960800
_cell_length_b   3.90410600
_cell_length_c   14.95364829
_cell_angle_alpha   90.00000000
_cell_angle_beta   126.33350609
_cell_angle_gamma   90.00000000
_symmetry_Int_Tables_number   1
_chemical_formula_structural   Pr2Mn3(SbS3)4
_chemical_formula_sum   'Pr4 Mn6 Sb8 S24'
_cell_volume   942.00006694
_cell_formula_units_Z   2
loop_
 _symmetry_equiv_pos_site_id
 _symmetry_equiv_pos_as_xyz
  1  'x, y, z'
loop_
 _atom_site_type_symbol
 _atom_site_label
 _atom_site_symmetry_multiplicity
 _atom_site_fract_x
 _atom_site_fract_y
 _atom_site_fract_z
 _atom_site_occupancy
  Pr  Pr0  1  0.26054363  0.49909280  0.86345111  1
  Pr  Pr1  1  0.74031459  0.49854944  0.13712868  1
  Pr  Pr2  1  0.76008704  0.00374478  0.86244075  1
  Pr  Pr3  1  0.24038185  0.99512970  0.13754964  1
  Mn  Mn4  1  0.30038228  0.50399680  0.62079228  1
  Mn  Mn5  1  0.69839720  0.50053795  0.37920845  1
  Mn  Mn6  1  0.99978817  0.99736896  0.00006336  1
  Mn  Mn7  1  0.80132682  0.99879480  0.62022794  1
  Mn  Mn8  1  0.19898599  0.99576986  0.37920823  1
  Mn  Mn9  1  0.50002638  0.49377120  0.00104399  1
  Sb  Sb10  1  0.89443192  0.00112606  0.45326791  1
  Sb  Sb11  1  0.10685112  0.99838534  0.54893330  1
  Sb  Sb12  1  0.03814615  0.49656289  0.81434480  1
  Sb  Sb13  1  0.96219713  0.49685086  0.18640025  1
  Sb  Sb14  1  0.39421733  0.49834545  0.45412148  1
  Sb  Sb15  1  0.60566676  0.49859338  0.54714696  1
  Sb  Sb16  1  0.53911174  0.99786388  0.81530601  1
  Sb  Sb17  1  0.46207040  0.00000501  0.18549488  1
  S  S18  1  0.94077908  0.99747217  0.80027929  1
  S  S19  1  0.05790860  0.99580994  0.19657622  1
  S  S20  1  0.40149429  0.99326810  0.98009055  1
  S  S21  1  0.59935892  0.99830454  0.01971529  1
  S  S22  1  0.16840930  0.99198327  0.89683406  1
  S  S23  1  0.83045068  0.00137482  0.10288741  1
  S  S24  1  0.08981498  0.49806733  0.65070302  1
  S  S25  1  0.91038897  0.49751694  0.34935525  1
  S  S26  1  0.74308569  0.99457248  0.29422083  1
  S  S27  1  0.25733502  0.00479513  0.70507855  1
  S  S28  1  0.15664824  0.49437405  0.45107088  1
  S  S29  1  0.84274517  0.50274229  0.54792622  1
  S  S30  1  0.44255305  0.49740994  0.80120603  1
  S  S31  1  0.55917338  0.49941535  0.19897935  1
  S  S32  1  0.90182667  0.49561293  0.98001629  1
  S  S33  1  0.09876604  0.49432329  0.02134387  1
  S  S34  1  0.66659378  0.50581381  0.89464466  1
  S  S35  1  0.33398196  0.49934996  0.10571527  1
  S  S36  1  0.58756666  0.00527122  0.64759802  1
  S  S37  1  0.41269399  0.99634875  0.35216303  1
  S  S38  1  0.24392403  0.49229857  0.29351465  1
  S  S39  1  0.75933197  0.49986516  0.70791173  1
  S  S40  1  0.65731530  0.99693745  0.45298585  1
  S  S41  1  0.34304024  0.99570763  0.54652589  1
