# generated using pymatgen
data_Pr2Mn3(SbS3)4
_symmetry_space_group_name_H-M   'P 1'
_cell_length_a   20.02960800
_cell_length_b   3.90410600
_cell_length_c   14.95364829
_cell_angle_alpha   90.00000000
_cell_angle_beta   126.33350609
_cell_angle_gamma   90.00000000
_symmetry_Int_Tables_number   1
_chemical_formula_structural   Pr2Mn3(SbS3)4
_chemical_formula_sum   'Pr4 Mn6 Sb8 S24'
_cell_volume   942.00006694
_cell_formula_units_Z   2
loop_
 _symmetry_equiv_pos_site_id
 _symmetry_equiv_pos_as_xyz
  1  'x, y, z'
loop_
 _atom_site_type_symbol
 _atom_site_label
 _atom_site_symmetry_multiplicity
 _atom_site_fract_x
 _atom_site_fract_y
 _atom_site_fract_z
 _atom_site_occupancy
  Pr  Pr0  1  0.26488177  0.48124571  0.86986841  1
  Pr  Pr1  1  0.73781295  0.51013527  0.13590372  1
  Pr  Pr2  1  0.76264134  0.00836431  0.86206066  1
  Pr  Pr3  1  0.23645776  0.99790899  0.13906108  1
  Mn  Mn4  1  0.29495160  0.49249912  0.60879846  1
  Mn  Mn5  1  0.69465844  0.52430316  0.37895669  1
  Mn  Mn6  1  0.00391615  0.00105840  0.00088949  1
  Mn  Mn7  1  0.80278839  0.99106230  0.61676545  1
  Mn  Mn8  1  0.19622015  0.97459560  0.37870395  1
  Mn  Mn9  1  0.50257821  0.47373456  0.99495894  1
  Sb  Sb10  1  0.89246678  0.00121982  0.45421803  1
  Sb  Sb11  1  0.11191499  0.96950694  0.55252724  1
  Sb  Sb12  1  0.04046453  0.50608324  0.81704918  1
  Sb  Sb13  1  0.96227477  0.53212321  0.18712994  1
  Sb  Sb14  1  0.39893982  0.50199452  0.45822411  1
  Sb  Sb15  1  0.60609256  0.48664736  0.54769850  1
  Sb  Sb16  1  0.53548356  0.00877668  0.81352631  1
  Sb  Sb17  1  0.46209921  0.00563596  0.18199196  1
  S  S18  1  0.93654402  0.97318493  0.79844028  1
  S  S19  1  0.06518286  0.98671088  0.19147890  1
  S  S20  1  0.40956061  0.01398894  0.97932774  1
  S  S21  1  0.59250121  0.99727810  0.02275728  1
  S  S22  1  0.17241773  0.98683044  0.89643354  1
  S  S23  1  0.82614194  0.01838396  0.09979731  1
  S  S24  1  0.08587732  0.45620226  0.64591367  1
  S  S25  1  0.91373040  0.48793098  0.36026768  1
  S  S26  1  0.74183706  0.94951768  0.29973371  1
  S  S27  1  0.25721325  0.99930074  0.70155124  1
  S  S28  1  0.16610659  0.48691010  0.44554771  1
  S  S29  1  0.82995581  0.47498354  0.55028505  1
  S  S30  1  0.43161030  0.50486691  0.79968397  1
  S  S31  1  0.56208810  0.52892748  0.19031573  1
  S  S32  1  0.90464774  0.49425340  0.98086774  1
  S  S33  1  0.08510983  0.49542138  0.01636510  1
  S  S34  1  0.66456472  0.50540388  0.89215348  1
  S  S35  1  0.32883032  0.52878410  0.10047717  1
  S  S36  1  0.58979773  0.00351281  0.64797974  1
  S  S37  1  0.40865198  0.95947185  0.35022059  1
  S  S38  1  0.24398013  0.47892044  0.30595964  1
  S  S39  1  0.76001195  0.50197204  0.69806456  1
  S  S40  1  0.67293728  0.00984731  0.46197785  1
  S  S41  1  0.33005509  0.98785706  0.54065569  1
