# generated using pymatgen
data_Pr2Mn3(SbS3)4
_symmetry_space_group_name_H-M   'P 1'
_cell_length_a   20.02960800
_cell_length_b   3.90410600
_cell_length_c   14.95364829
_cell_angle_alpha   90.00000000
_cell_angle_beta   126.33350609
_cell_angle_gamma   90.00000000
_symmetry_Int_Tables_number   1
_chemical_formula_structural   Pr2Mn3(SbS3)4
_chemical_formula_sum   'Pr4 Mn6 Sb8 S24'
_cell_volume   942.00006694
_cell_formula_units_Z   2
loop_
 _symmetry_equiv_pos_site_id
 _symmetry_equiv_pos_as_xyz
  1  'x, y, z'
loop_
 _atom_site_type_symbol
 _atom_site_label
 _atom_site_symmetry_multiplicity
 _atom_site_fract_x
 _atom_site_fract_y
 _atom_site_fract_z
 _atom_site_occupancy
  Pr  Pr0  1  0.26844541  0.47902419  0.88363098  1
  Pr  Pr1  1  0.72711489  0.50557984  0.13207443  1
  Pr  Pr2  1  0.76134357  0.05369801  0.87247722  1
  Pr  Pr3  1  0.23409551  0.92163852  0.12682126  1
  Mn  Mn4  1  0.29721922  0.41115061  0.60601570  1
  Mn  Mn5  1  0.69517318  0.53357897  0.35831206  1
  Mn  Mn6  1  0.00231220  0.90674210  0.01071741  1
  Mn  Mn7  1  0.79676503  0.96811365  0.62506736  1
  Mn  Mn8  1  0.20898082  0.05942004  0.39299581  1
  Mn  Mn9  1  0.48697034  0.47303456  0.99072929  1
  Sb  Sb10  1  0.89395121  0.90577260  0.46273414  1
  Sb  Sb11  1  0.11310327  0.97988784  0.54447423  1
  Sb  Sb12  1  0.03279025  0.51678691  0.82695508  1
  Sb  Sb13  1  0.96119583  0.45972175  0.20115613  1
  Sb  Sb14  1  0.40693777  0.58670029  0.45175874  1
  Sb  Sb15  1  0.60215168  0.51755915  0.53337297  1
  Sb  Sb16  1  0.52275107  0.98240054  0.78846599  1
  Sb  Sb17  1  0.47061702  0.01422294  0.17610729  1
  S  S18  1  0.93397556  0.98090783  0.79463431  1
  S  S19  1  0.06242814  0.99787494  0.20358926  1
  S  S20  1  0.40712573  0.99391475  0.97087771  1
  S  S21  1  0.58253398  0.01161621  0.99905443  1
  S  S22  1  0.17359893  0.98328571  0.89904998  1
  S  S23  1  0.82736002  0.01175147  0.10789467  1
  S  S24  1  0.09963479  0.49405483  0.64191572  1
  S  S25  1  0.89283561  0.43369127  0.34671231  1
  S  S26  1  0.73888542  0.01543888  0.31910245  1
  S  S27  1  0.26536655  0.90560485  0.68104841  1
  S  S28  1  0.17141274  0.52393058  0.44790741  1
  S  S29  1  0.81529221  0.48939493  0.54495180  1
  S  S30  1  0.43408669  0.48868520  0.79416620  1
  S  S31  1  0.56706520  0.48593256  0.18728216  1
  S  S32  1  0.91363381  0.49359950  0.99280604  1
  S  S33  1  0.07996751  0.46518895  0.02277130  1
  S  S34  1  0.66602906  0.53015584  0.89046380  1
  S  S35  1  0.33379995  0.46746775  0.11297463  1
  S  S36  1  0.60630321  0.01415815  0.65367132  1
  S  S37  1  0.39755726  0.03976580  0.33334935  1
  S  S38  1  0.25121867  0.52873946  0.32994394  1
  S  S39  1  0.76100787  0.52017466  0.67992124  1
  S  S40  1  0.66270790  0.95224553  0.45765165  1
  S  S41  1  0.32731950  0.92884391  0.55073090  1
