# generated using pymatgen
data_Pr2Mn3(SbS3)4
_symmetry_space_group_name_H-M   'P 1'
_cell_length_a   20.02960800
_cell_length_b   3.90410600
_cell_length_c   14.95364829
_cell_angle_alpha   90.00000000
_cell_angle_beta   126.33350609
_cell_angle_gamma   90.00000000
_symmetry_Int_Tables_number   1
_chemical_formula_structural   Pr2Mn3(SbS3)4
_chemical_formula_sum   'Pr4 Mn6 Sb8 S24'
_cell_volume   942.00006694
_cell_formula_units_Z   2
loop_
 _symmetry_equiv_pos_site_id
 _symmetry_equiv_pos_as_xyz
  1  'x, y, z'
loop_
 _atom_site_type_symbol
 _atom_site_label
 _atom_site_symmetry_multiplicity
 _atom_site_fract_x
 _atom_site_fract_y
 _atom_site_fract_z
 _atom_site_occupancy
  Pr  Pr0  1  0.26851466  0.47960568  0.88368059  1
  Pr  Pr1  1  0.72701912  0.50518171  0.13194716  1
  Pr  Pr2  1  0.76142331  0.05350446  0.87253040  1
  Pr  Pr3  1  0.23404373  0.92140279  0.12674756  1
  Mn  Mn4  1  0.29729701  0.41014323  0.60609810  1
  Mn  Mn5  1  0.69527019  0.53437705  0.35820745  1
  Mn  Mn6  1  0.00248921  0.90669853  0.01085474  1
  Mn  Mn7  1  0.79680917  0.96732358  0.62506966  1
  Mn  Mn8  1  0.20882371  0.05936534  0.39312861  1
  Mn  Mn9  1  0.48696359  0.47309825  0.99063216  1
  Sb  Sb10  1  0.89392271  0.90601521  0.46265715  1
  Sb  Sb11  1  0.11331966  0.98042288  0.54476386  1
  Sb  Sb12  1  0.03285709  0.51702714  0.82683435  1
  Sb  Sb13  1  0.96122718  0.45994881  0.20114551  1
  Sb  Sb14  1  0.40688593  0.58683006  0.45177326  1
  Sb  Sb15  1  0.60200344  0.51751669  0.53317922  1
  Sb  Sb16  1  0.52273808  0.98220237  0.78847210  1
  Sb  Sb17  1  0.47067906  0.01411258  0.17623620  1
  S  S18  1  0.93394705  0.98158451  0.79505475  1
  S  S19  1  0.06218233  0.99939491  0.20322746  1
  S  S20  1  0.40688902  0.99383301  0.97060656  1
  S  S21  1  0.58252168  0.01337257  0.99890478  1
  S  S22  1  0.17344932  0.98254378  0.89883524  1
  S  S23  1  0.82747639  0.01115299  0.10850866  1
  S  S24  1  0.09943383  0.49537203  0.64176380  1
  S  S25  1  0.89260169  0.43318366  0.34642722  1
  S  S26  1  0.73887220  0.01561495  0.31912916  1
  S  S27  1  0.26556700  0.90504914  0.68129671  1
  S  S28  1  0.17154523  0.52430367  0.44780444  1
  S  S29  1  0.81530437  0.49077282  0.54496833  1
  S  S30  1  0.43382217  0.49089460  0.79393111  1
  S  S31  1  0.56728315  0.48481249  0.18726764  1
  S  S32  1  0.91379372  0.49384322  0.99287884  1
  S  S33  1  0.08010885  0.46610369  0.02310497  1
  S  S34  1  0.66611795  0.52901847  0.89067683  1
  S  S35  1  0.33382704  0.46777159  0.11300895  1
  S  S36  1  0.60610093  0.01429392  0.65347884  1
  S  S37  1  0.39760742  0.03916890  0.33322776  1
  S  S38  1  0.25096802  0.52796327  0.32955607  1
  S  S39  1  0.76093108  0.51947510  0.67985188  1
  S  S40  1  0.66293666  0.95039025  0.45787548  1
  S  S41  1  0.32732648  0.92924573  0.55076906  1
