# generated using pymatgen
data_Pr2Mn3(SbS3)4
_symmetry_space_group_name_H-M   'P 1'
_cell_length_a   20.02960800
_cell_length_b   3.90410600
_cell_length_c   14.95364829
_cell_angle_alpha   90.00000000
_cell_angle_beta   126.33350609
_cell_angle_gamma   90.00000000
_symmetry_Int_Tables_number   1
_chemical_formula_structural   Pr2Mn3(SbS3)4
_chemical_formula_sum   'Pr4 Mn6 Sb8 S24'
_cell_volume   942.00006694
_cell_formula_units_Z   2
loop_
 _symmetry_equiv_pos_site_id
 _symmetry_equiv_pos_as_xyz
  1  'x, y, z'
loop_
 _atom_site_type_symbol
 _atom_site_label
 _atom_site_symmetry_multiplicity
 _atom_site_fract_x
 _atom_site_fract_y
 _atom_site_fract_z
 _atom_site_occupancy
  Pr  Pr0  1  0.26860879  0.48031886  0.88378368  1
  Pr  Pr1  1  0.72695731  0.50485985  0.13187739  1
  Pr  Pr2  1  0.76144320  0.05332959  0.87258970  1
  Pr  Pr3  1  0.23401478  0.92111082  0.12672301  1
  Mn  Mn4  1  0.29735685  0.40940566  0.60622147  1
  Mn  Mn5  1  0.69532248  0.53549445  0.35799635  1
  Mn  Mn6  1  0.00263449  0.90680536  0.01095076  1
  Mn  Mn7  1  0.79683485  0.96630699  0.62503345  1
  Mn  Mn8  1  0.20867581  0.05959122  0.39331752  1
  Mn  Mn9  1  0.48692638  0.47301947  0.99048048  1
  Sb  Sb10  1  0.89391956  0.90606931  0.46266255  1
  Sb  Sb11  1  0.11353945  0.98099326  0.54504794  1
  Sb  Sb12  1  0.03297374  0.51747048  0.82670838  1
  Sb  Sb13  1  0.96128495  0.46037814  0.20118050  1
  Sb  Sb14  1  0.40685813  0.58684786  0.45181915  1
  Sb  Sb15  1  0.60186878  0.51734037  0.53302364  1
  Sb  Sb16  1  0.52271867  0.98195839  0.78846301  1
  Sb  Sb17  1  0.47068450  0.01407116  0.17634026  1
  S  S18  1  0.93397433  0.98186766  0.79540037  1
  S  S19  1  0.06197453  0.00078285  0.20286325  1
  S  S20  1  0.40672350  0.99366907  0.97031268  1
  S  S21  1  0.58256899  0.01497235  0.99893273  1
  S  S22  1  0.17329771  0.98165548  0.89855421  1
  S  S23  1  0.82763116  0.01097919  0.10904046  1
  S  S24  1  0.09925907  0.49663803  0.64173650  1
  S  S25  1  0.89241885  0.43271141  0.34621098  1
  S  S26  1  0.73885872  0.01529226  0.31907205  1
  S  S27  1  0.26567451  0.90516416  0.68144166  1
  S  S28  1  0.17160136  0.52450915  0.44774679  1
  S  S29  1  0.81537721  0.49173081  0.54504687  1
  S  S30  1  0.43354083  0.49262682  0.79367950  1
  S  S31  1  0.56747214  0.48353359  0.18734443  1
  S  S32  1  0.91400875  0.49420437  0.99304809  1
  S  S33  1  0.08023771  0.46604019  0.02344759  1
  S  S34  1  0.66608197  0.52813142  0.89089587  1
  S  S35  1  0.33393871  0.46806144  0.11310907  1
  S  S36  1  0.60598725  0.01398507  0.65334270  1
  S  S37  1  0.39779470  0.03835876  0.33336970  1
  S  S38  1  0.25072927  0.52698777  0.32917057  1
  S  S39  1  0.76093185  0.51875181  0.67982740  1
  S  S40  1  0.66326140  0.94899553  0.45820741  1
  S  S41  1  0.32728540  0.92952993  0.55068944  1
