# generated using pymatgen
data_Pr2Mn3(SbS3)4
_symmetry_space_group_name_H-M   'P 1'
_cell_length_a   20.02960800
_cell_length_b   3.90410600
_cell_length_c   14.95364829
_cell_angle_alpha   90.00000000
_cell_angle_beta   126.33350609
_cell_angle_gamma   90.00000000
_symmetry_Int_Tables_number   1
_chemical_formula_structural   Pr2Mn3(SbS3)4
_chemical_formula_sum   'Pr4 Mn6 Sb8 S24'
_cell_volume   942.00006694
_cell_formula_units_Z   2
loop_
 _symmetry_equiv_pos_site_id
 _symmetry_equiv_pos_as_xyz
  1  'x, y, z'
loop_
 _atom_site_type_symbol
 _atom_site_label
 _atom_site_symmetry_multiplicity
 _atom_site_fract_x
 _atom_site_fract_y
 _atom_site_fract_z
 _atom_site_occupancy
  Pr  Pr0  1  0.26872236  0.48087943  0.88386818  1
  Pr  Pr1  1  0.72687851  0.50450054  0.13179236  1
  Pr  Pr2  1  0.76141036  0.05329030  0.87263581  1
  Pr  Pr3  1  0.23401229  0.92086244  0.12672069  1
  Mn  Mn4  1  0.29744436  0.40906133  0.60629644  1
  Mn  Mn5  1  0.69527981  0.53664347  0.35772069  1
  Mn  Mn6  1  0.00277701  0.90696957  0.01110863  1
  Mn  Mn7  1  0.79678046  0.96501119  0.62495728  1
  Mn  Mn8  1  0.20854259  0.05958885  0.39347386  1
  Mn  Mn9  1  0.48677360  0.47281940  0.99027322  1
  Sb  Sb10  1  0.89390173  0.90615173  0.46267071  1
  Sb  Sb11  1  0.11373270  0.98151942  0.54534585  1
  Sb  Sb12  1  0.03316414  0.51778892  0.82663682  1
  Sb  Sb13  1  0.96130511  0.46070327  0.20121032  1
  Sb  Sb14  1  0.40686442  0.58693825  0.45187814  1
  Sb  Sb15  1  0.60170172  0.51717377  0.53277663  1
  Sb  Sb16  1  0.52273379  0.98159554  0.78846147  1
  Sb  Sb17  1  0.47069612  0.01419341  0.17646752  1
  S  S18  1  0.93392547  0.98268639  0.79559973  1
  S  S19  1  0.06168930  0.00126050  0.20249930  1
  S  S20  1  0.40647399  0.99353899  0.96984123  1
  S  S21  1  0.58267686  0.01643508  0.99898707  1
  S  S22  1  0.17303698  0.98089732  0.89823988  1
  S  S23  1  0.82769290  0.01042216  0.10939912  1
  S  S24  1  0.09920300  0.49749020  0.64180686  1
  S  S25  1  0.89244823  0.43271011  0.34619186  1
  S  S26  1  0.73872574  0.01467716  0.31897420  1
  S  S27  1  0.26589502  0.90532388  0.68178571  1
  S  S28  1  0.17169297  0.52460439  0.44760217  1
  S  S29  1  0.81531641  0.49253385  0.54490798  1
  S  S30  1  0.43317373  0.49416206  0.79337190  1
  S  S31  1  0.56757568  0.48186682  0.18740095  1
  S  S32  1  0.91423099  0.49416550  0.99318524  1
  S  S33  1  0.08038417  0.46644371  0.02388571  1
  S  S34  1  0.66620622  0.52694408  0.89130774  1
  S  S35  1  0.33399434  0.46828250  0.11310775  1
  S  S36  1  0.60582785  0.01415500  0.65311629  1
  S  S37  1  0.39782193  0.03807575  0.33348829  1
  S  S38  1  0.25047131  0.52637050  0.32873798  1
  S  S39  1  0.76105382  0.51809687  0.67978128  1
  S  S40  1  0.66358845  0.94840767  0.45842462  1
  S  S41  1  0.32721193  0.92983473  0.55048402  1
