# generated using pymatgen
data_Pr2Mn3(SbS3)4
_symmetry_space_group_name_H-M   'P 1'
_cell_length_a   20.02960800
_cell_length_b   3.90410600
_cell_length_c   14.95364829
_cell_angle_alpha   90.00000000
_cell_angle_beta   126.33350609
_cell_angle_gamma   90.00000000
_symmetry_Int_Tables_number   1
_chemical_formula_structural   Pr2Mn3(SbS3)4
_chemical_formula_sum   'Pr4 Mn6 Sb8 S24'
_cell_volume   942.00006694
_cell_formula_units_Z   2
loop_
 _symmetry_equiv_pos_site_id
 _symmetry_equiv_pos_as_xyz
  1  'x, y, z'
loop_
 _atom_site_type_symbol
 _atom_site_label
 _atom_site_symmetry_multiplicity
 _atom_site_fract_x
 _atom_site_fract_y
 _atom_site_fract_z
 _atom_site_occupancy
  Pr  Pr0  1  0.26883065  0.48135889  0.88394469  1
  Pr  Pr1  1  0.72678321  0.50409270  0.13168673  1
  Pr  Pr2  1  0.76144534  0.05311362  0.87271844  1
  Pr  Pr3  1  0.23398726  0.92023919  0.12669839  1
  Mn  Mn4  1  0.29762943  0.40857825  0.60653512  1
  Mn  Mn5  1  0.69511736  0.53768731  0.35732465  1
  Mn  Mn6  1  0.00301309  0.90737582  0.01134971  1
  Mn  Mn7  1  0.79681547  0.96411652  0.62492589  1
  Mn  Mn8  1  0.20843540  0.05979653  0.39362577  1
  Mn  Mn9  1  0.48665395  0.47279063  0.99006704  1
  Sb  Sb10  1  0.89388910  0.90638152  0.46274513  1
  Sb  Sb11  1  0.11390731  0.98217748  0.54567674  1
  Sb  Sb12  1  0.03331964  0.51775287  0.82656447  1
  Sb  Sb13  1  0.96131490  0.46092339  0.20120444  1
  Sb  Sb14  1  0.40686880  0.58690706  0.45190960  1
  Sb  Sb15  1  0.60152631  0.51688378  0.53253983  1
  Sb  Sb16  1  0.52273243  0.98096268  0.78842963  1
  Sb  Sb17  1  0.47071254  0.01424172  0.17657168  1
  S  S18  1  0.93385486  0.98386205  0.79580782  1
  S  S19  1  0.06129774  0.00129328  0.20192155  1
  S  S20  1  0.40623565  0.99317440  0.96943917  1
  S  S21  1  0.58283200  0.01806454  0.99913654  1
  S  S22  1  0.17277769  0.98047520  0.89791198  1
  S  S23  1  0.82782664  0.00950623  0.10969174  1
  S  S24  1  0.09913995  0.49854055  0.64190332  1
  S  S25  1  0.89250714  0.43301534  0.34604623  1
  S  S26  1  0.73857404  0.01339605  0.31883149  1
  S  S27  1  0.26603761  0.90538782  0.68201173  1
  S  S28  1  0.17174090  0.52455942  0.44740723  1
  S  S29  1  0.81534994  0.49344434  0.54477601  1
  S  S30  1  0.43283726  0.49570749  0.79308293  1
  S  S31  1  0.56771891  0.47962689  0.18741813  1
  S  S32  1  0.91446250  0.49373790  0.99329028  1
  S  S33  1  0.08057949  0.46669061  0.02442567  1
  S  S34  1  0.66627644  0.52601317  0.89158112  1
  S  S35  1  0.33411604  0.46796493  0.11321335  1
  S  S36  1  0.60551807  0.01485778  0.65278607  1
  S  S37  1  0.39801250  0.03797117  0.33377021  1
  S  S38  1  0.25029975  0.52600268  0.32847058  1
  S  S39  1  0.76114475  0.51736638  0.67969346  1
  S  S40  1  0.66381456  0.94766913  0.45848541  1
  S  S41  1  0.32710704  0.92957739  0.55029176  1
