# generated using pymatgen
data_Pr2Mn3(SbS3)4
_symmetry_space_group_name_H-M   'P 1'
_cell_length_a   20.02960800
_cell_length_b   3.90410600
_cell_length_c   14.95364829
_cell_angle_alpha   90.00000000
_cell_angle_beta   126.33350609
_cell_angle_gamma   90.00000000
_symmetry_Int_Tables_number   1
_chemical_formula_structural   Pr2Mn3(SbS3)4
_chemical_formula_sum   'Pr4 Mn6 Sb8 S24'
_cell_volume   942.00006694
_cell_formula_units_Z   2
loop_
 _symmetry_equiv_pos_site_id
 _symmetry_equiv_pos_as_xyz
  1  'x, y, z'
loop_
 _atom_site_type_symbol
 _atom_site_label
 _atom_site_symmetry_multiplicity
 _atom_site_fract_x
 _atom_site_fract_y
 _atom_site_fract_z
 _atom_site_occupancy
  Pr  Pr0  1  0.26885549  0.48184487  0.88398655  1
  Pr  Pr1  1  0.72668681  0.50385887  0.13159233  1
  Pr  Pr2  1  0.76152949  0.05288795  0.87281695  1
  Pr  Pr3  1  0.23396803  0.91973327  0.12671288  1
  Mn  Mn4  1  0.29779942  0.40855716  0.60668877  1
  Mn  Mn5  1  0.69484934  0.53861012  0.35689874  1
  Mn  Mn6  1  0.00321427  0.90817844  0.01162883  1
  Mn  Mn7  1  0.79693828  0.96318764  0.62495494  1
  Mn  Mn8  1  0.20839459  0.05990424  0.39377176  1
  Mn  Mn9  1  0.48647663  0.47316430  0.98977097  1
  Sb  Sb10  1  0.89379869  0.90651809  0.46269771  1
  Sb  Sb11  1  0.11408025  0.98256633  0.54591953  1
  Sb  Sb12  1  0.03342901  0.51753998  0.82646586  1
  Sb  Sb13  1  0.96134395  0.46107155  0.20122341  1
  Sb  Sb14  1  0.40682789  0.58680118  0.45184746  1
  Sb  Sb15  1  0.60135664  0.51632184  0.53228044  1
  Sb  Sb16  1  0.52268756  0.98027488  0.78843473  1
  Sb  Sb17  1  0.47074457  0.01391404  0.17669226  1
  S  S18  1  0.93378935  0.98446469  0.79604321  1
  S  S19  1  0.06100894  0.00145815  0.20134066  1
  S  S20  1  0.40596841  0.99230867  0.96898483  1
  S  S21  1  0.58284368  0.01967132  0.99910183  1
  S  S22  1  0.17261516  0.98000794  0.89763697  1
  S  S23  1  0.82808511  0.00850655  0.10993403  1
  S  S24  1  0.09905940  0.49988235  0.64195287  1
  S  S25  1  0.89256070  0.43352904  0.34589511  1
  S  S26  1  0.73846289  0.01226709  0.31877069  1
  S  S27  1  0.26624467  0.90554622  0.68225402  1
  S  S28  1  0.17179120  0.52399740  0.44704308  1
  S  S29  1  0.81537847  0.49411155  0.54457301  1
  S  S30  1  0.43253492  0.49717424  0.79278022  1
  S  S31  1  0.56790732  0.47775532  0.18736217  1
  S  S32  1  0.91476273  0.49348331  0.99354800  1
  S  S33  1  0.08081612  0.46721283  0.02485464  1
  S  S34  1  0.66636723  0.52509133  0.89175916  1
  S  S35  1  0.33423041  0.46820876  0.11344091  1
  S  S36  1  0.60515218  0.01576296  0.65246202  1
  S  S37  1  0.39819063  0.03766380  0.33413658  1
  S  S38  1  0.25014419  0.52535954  0.32818729  1
  S  S39  1  0.76131495  0.51643299  0.67973068  1
  S  S40  1  0.66410135  0.94714848  0.45857472  1
  S  S41  1  0.32699985  0.92861154  0.55013359  1
