# generated using pymatgen
data_Pr2Mn3(SbS3)4
_symmetry_space_group_name_H-M   'P 1'
_cell_length_a   20.02960800
_cell_length_b   3.90410600
_cell_length_c   14.95364829
_cell_angle_alpha   90.00000000
_cell_angle_beta   126.33350609
_cell_angle_gamma   90.00000000
_symmetry_Int_Tables_number   1
_chemical_formula_structural   Pr2Mn3(SbS3)4
_chemical_formula_sum   'Pr4 Mn6 Sb8 S24'
_cell_volume   942.00006694
_cell_formula_units_Z   2
loop_
 _symmetry_equiv_pos_site_id
 _symmetry_equiv_pos_as_xyz
  1  'x, y, z'
loop_
 _atom_site_type_symbol
 _atom_site_label
 _atom_site_symmetry_multiplicity
 _atom_site_fract_x
 _atom_site_fract_y
 _atom_site_fract_z
 _atom_site_occupancy
  Pr  Pr0  1  0.26889261  0.48225396  0.88398013  1
  Pr  Pr1  1  0.72662582  0.50378267  0.13156252  1
  Pr  Pr2  1  0.76160822  0.05267600  0.87292202  1
  Pr  Pr3  1  0.23395680  0.91929719  0.12670937  1
  Mn  Mn4  1  0.29802592  0.40850637  0.60689529  1
  Mn  Mn5  1  0.69455745  0.53952972  0.35651841  1
  Mn  Mn6  1  0.00340128  0.90907718  0.01189990  1
  Mn  Mn7  1  0.79715276  0.96223902  0.62506686  1
  Mn  Mn8  1  0.20849094  0.05958908  0.39407035  1
  Mn  Mn9  1  0.48623725  0.47326247  0.98940654  1
  Sb  Sb10  1  0.89370834  0.90681704  0.46265965  1
  Sb  Sb11  1  0.11429719  0.98281855  0.54625675  1
  Sb  Sb12  1  0.03351021  0.51745864  0.82634973  1
  Sb  Sb13  1  0.96136377  0.46127706  0.20125917  1
  Sb  Sb14  1  0.40689489  0.58694162  0.45185291  1
  Sb  Sb15  1  0.60120581  0.51560987  0.53211792  1
  Sb  Sb16  1  0.52269378  0.97959337  0.78855847  1
  Sb  Sb17  1  0.47078474  0.01381276  0.17681082  1
  S  S18  1  0.93383372  0.98575577  0.79631825  1
  S  S19  1  0.06077908  0.00123567  0.20072368  1
  S  S20  1  0.40570853  0.99187355  0.96833093  1
  S  S21  1  0.58280805  0.02075912  0.99892517  1
  S  S22  1  0.17255914  0.98018875  0.89744155  1
  S  S23  1  0.82837662  0.00784866  0.11007702  1
  S  S24  1  0.09900055  0.50107079  0.64208403  1
  S  S25  1  0.89256407  0.43450587  0.34585671  1
  S  S26  1  0.73836823  0.01133044  0.31869692  1
  S  S27  1  0.26646898  0.90571921  0.68254341  1
  S  S28  1  0.17184380  0.52316897  0.44676145  1
  S  S29  1  0.81548342  0.49489561  0.54465682  1
  S  S30  1  0.43234590  0.49877414  0.79260545  1
  S  S31  1  0.56812145  0.47645793  0.18745345  1
  S  S32  1  0.91516603  0.49299948  0.99389025  1
  S  S33  1  0.08110326  0.46728087  0.02533305  1
  S  S34  1  0.66651505  0.52412277  0.89202332  1
  S  S35  1  0.33432464  0.46803319  0.11360057  1
  S  S36  1  0.60479025  0.01703507  0.65213740  1
  S  S37  1  0.39833841  0.03741189  0.33448317  1
  S  S38  1  0.24999964  0.52486423  0.32801669  1
  S  S39  1  0.76144964  0.51536074  0.67980133  1
  S  S40  1  0.66437089  0.94640683  0.45868355  1
  S  S41  1  0.32697260  0.92763124  0.54982981  1
