# generated using pymatgen
data_Pr2Mn3(SbS3)4
_symmetry_space_group_name_H-M   'P 1'
_cell_length_a   20.02960800
_cell_length_b   3.90410600
_cell_length_c   14.95364829
_cell_angle_alpha   90.00000000
_cell_angle_beta   126.33350609
_cell_angle_gamma   90.00000000
_symmetry_Int_Tables_number   1
_chemical_formula_structural   Pr2Mn3(SbS3)4
_chemical_formula_sum   'Pr4 Mn6 Sb8 S24'
_cell_volume   942.00006694
_cell_formula_units_Z   2
loop_
 _symmetry_equiv_pos_site_id
 _symmetry_equiv_pos_as_xyz
  1  'x, y, z'
loop_
 _atom_site_type_symbol
 _atom_site_label
 _atom_site_symmetry_multiplicity
 _atom_site_fract_x
 _atom_site_fract_y
 _atom_site_fract_z
 _atom_site_occupancy
  Pr  Pr0  1  0.26896304  0.48243700  0.88401090  1
  Pr  Pr1  1  0.72658810  0.50392661  0.13154632  1
  Pr  Pr2  1  0.76166903  0.05238198  0.87296840  1
  Pr  Pr3  1  0.23402348  0.91881734  0.12678039  1
  Mn  Mn4  1  0.29827657  0.40838986  0.60709256  1
  Mn  Mn5  1  0.69433964  0.54035409  0.35626400  1
  Mn  Mn6  1  0.00349656  0.91006532  0.01201345  1
  Mn  Mn7  1  0.79738529  0.96132955  0.62527602  1
  Mn  Mn8  1  0.20857552  0.05941535  0.39439639  1
  Mn  Mn9  1  0.48601562  0.47369203  0.98914573  1
  Sb  Sb10  1  0.89353818  0.90707102  0.46247754  1
  Sb  Sb11  1  0.11447737  0.98313078  0.54649095  1
  Sb  Sb12  1  0.03354120  0.51764360  0.82617511  1
  Sb  Sb13  1  0.96140904  0.46145925  0.20129958  1
  Sb  Sb14  1  0.40695566  0.58705970  0.45188560  1
  Sb  Sb15  1  0.60108978  0.51501018  0.53200419  1
  Sb  Sb16  1  0.52276353  0.97887862  0.78870965  1
  Sb  Sb17  1  0.47081328  0.01362170  0.17688863  1
  S  S18  1  0.93382513  0.98691699  0.79657097  1
  S  S19  1  0.06046408  0.00058439  0.20012894  1
  S  S20  1  0.40554597  0.99098464  0.96784705  1
  S  S21  1  0.58273690  0.02194866  0.99871254  1
  S  S22  1  0.17243194  0.98033606  0.89727813  1
  S  S23  1  0.82863807  0.00775939  0.11039535  1
  S  S24  1  0.09886441  0.50268699  0.64214162  1
  S  S25  1  0.89257304  0.43568692  0.34590975  1
  S  S26  1  0.73824971  0.01032963  0.31860916  1
  S  S27  1  0.26679996  0.90588737  0.68287485  1
  S  S28  1  0.17180568  0.52220258  0.44643632  1
  S  S29  1  0.81562540  0.49556284  0.54470254  1
  S  S30  1  0.43222296  0.50036306  0.79259533  1
  S  S31  1  0.56832339  0.47513601  0.18751397  1
  S  S32  1  0.91544692  0.49253916  0.99424630  1
  S  S33  1  0.08140263  0.46701099  0.02575029  1
  S  S34  1  0.66657540  0.52302679  0.89228542  1
  S  S35  1  0.33444908  0.46771826  0.11374934  1
  S  S36  1  0.60436961  0.01812297  0.65188872  1
  S  S37  1  0.39825023  0.03693671  0.33459488  1
  S  S38  1  0.24982482  0.52448616  0.32792245  1
  S  S39  1  0.76153105  0.51433711  0.67988750  1
  S  S40  1  0.66458792  0.94588301  0.45884166  1
  S  S41  1  0.32695286  0.92687990  0.54947243  1
