# generated using pymatgen
data_Pr2Mn3(SbS3)4
_symmetry_space_group_name_H-M   'P 1'
_cell_length_a   20.02960800
_cell_length_b   3.90410600
_cell_length_c   14.95364829
_cell_angle_alpha   90.00000000
_cell_angle_beta   126.33350609
_cell_angle_gamma   90.00000000
_symmetry_Int_Tables_number   1
_chemical_formula_structural   Pr2Mn3(SbS3)4
_chemical_formula_sum   'Pr4 Mn6 Sb8 S24'
_cell_volume   942.00006694
_cell_formula_units_Z   2
loop_
 _symmetry_equiv_pos_site_id
 _symmetry_equiv_pos_as_xyz
  1  'x, y, z'
loop_
 _atom_site_type_symbol
 _atom_site_label
 _atom_site_symmetry_multiplicity
 _atom_site_fract_x
 _atom_site_fract_y
 _atom_site_fract_z
 _atom_site_occupancy
  Pr  Pr0  1  0.26897678  0.48274197  0.88402020  1
  Pr  Pr1  1  0.72654326  0.50408299  0.13161290  1
  Pr  Pr2  1  0.76175894  0.05222087  0.87308986  1
  Pr  Pr3  1  0.23410969  0.91829930  0.12681639  1
  Mn  Mn4  1  0.29852829  0.40832953  0.60722551  1
  Mn  Mn5  1  0.69413723  0.54118869  0.35610614  1
  Mn  Mn6  1  0.00348373  0.91152561  0.01214350  1
  Mn  Mn7  1  0.79759794  0.96036598  0.62550667  1
  Mn  Mn8  1  0.20871211  0.05866698  0.39472713  1
  Mn  Mn9  1  0.48577350  0.47425952  0.98884692  1
  Sb  Sb10  1  0.89342685  0.90707605  0.46232824  1
  Sb  Sb11  1  0.11464793  0.98332759  0.54668617  1
  Sb  Sb12  1  0.03354353  0.51786864  0.82600630  1
  Sb  Sb13  1  0.96139122  0.46185979  0.20135023  1
  Sb  Sb14  1  0.40703137  0.58726422  0.45193708  1
  Sb  Sb15  1  0.60101297  0.51427385  0.53198716  1
  Sb  Sb16  1  0.52283915  0.97845276  0.78886681  1
  Sb  Sb17  1  0.47084725  0.01319264  0.17699815  1
  S  S18  1  0.93373748  0.98808928  0.79680962  1
  S  S19  1  0.06017690  0.00042058  0.19974943  1
  S  S20  1  0.40544413  0.99008494  0.96752279  1
  S  S21  1  0.58256681  0.02240462  0.99841253  1
  S  S22  1  0.17235275  0.98090956  0.89714546  1
  S  S23  1  0.82879609  0.00698429  0.11054723  1
  S  S24  1  0.09889412  0.50403127  0.64229358  1
  S  S25  1  0.89251609  0.43643026  0.34585507  1
  S  S26  1  0.73790717  0.00974180  0.31842596  1
  S  S27  1  0.26707288  0.90603996  0.68324124  1
  S  S28  1  0.17171845  0.52188819  0.44627475  1
  S  S29  1  0.81576573  0.49609769  0.54470261  1
  S  S30  1  0.43224102  0.50181924  0.79268555  1
  S  S31  1  0.56848303  0.47414235  0.18769774  1
  S  S32  1  0.91569996  0.49208079  0.99459292  1
  S  S33  1  0.08167725  0.46685631  0.02614391  1
  S  S34  1  0.66665441  0.52159502  0.89247672  1
  S  S35  1  0.33456968  0.46728621  0.11380934  1
  S  S36  1  0.60396999  0.01875636  0.65159959  1
  S  S37  1  0.39824140  0.03645691  0.33476140  1
  S  S38  1  0.24967722  0.52407189  0.32798104  1
  S  S39  1  0.76174906  0.51301789  0.68011520  1
  S  S40  1  0.66476790  0.94538983  0.45881121  1
  S  S41  1  0.32693370  0.92630845  0.54910501  1
