# generated using pymatgen
data_Pr2Mn3(SbS3)4
_symmetry_space_group_name_H-M   'P 1'
_cell_length_a   20.02960800
_cell_length_b   3.90410600
_cell_length_c   14.95364829
_cell_angle_alpha   90.00000000
_cell_angle_beta   126.33350609
_cell_angle_gamma   90.00000000
_symmetry_Int_Tables_number   1
_chemical_formula_structural   Pr2Mn3(SbS3)4
_chemical_formula_sum   'Pr4 Mn6 Sb8 S24'
_cell_volume   942.00006694
_cell_formula_units_Z   2
loop_
 _symmetry_equiv_pos_site_id
 _symmetry_equiv_pos_as_xyz
  1  'x, y, z'
loop_
 _atom_site_type_symbol
 _atom_site_label
 _atom_site_symmetry_multiplicity
 _atom_site_fract_x
 _atom_site_fract_y
 _atom_site_fract_z
 _atom_site_occupancy
  Pr  Pr0  1  0.26893987  0.48284476  0.88398484  1
  Pr  Pr1  1  0.72652332  0.50395795  0.13166843  1
  Pr  Pr2  1  0.76180955  0.05183756  0.87309621  1
  Pr  Pr3  1  0.23411514  0.91804904  0.12678091  1
  Mn  Mn4  1  0.29865552  0.40828660  0.60735072  1
  Mn  Mn5  1  0.69401783  0.54165563  0.35599578  1
  Mn  Mn6  1  0.00349441  0.91314219  0.01219822  1
  Mn  Mn7  1  0.79785211  0.95931630  0.62580223  1
  Mn  Mn8  1  0.20883799  0.05778803  0.39501269  1
  Mn  Mn9  1  0.48549010  0.47493295  0.98851834  1
  Sb  Sb10  1  0.89326373  0.90718183  0.46220180  1
  Sb  Sb11  1  0.11471831  0.98346891  0.54673552  1
  Sb  Sb12  1  0.03361740  0.51792535  0.82588976  1
  Sb  Sb13  1  0.96137492  0.46230770  0.20133816  1
  Sb  Sb14  1  0.40706165  0.58716248  0.45193677  1
  Sb  Sb15  1  0.60089624  0.51341421  0.53198252  1
  Sb  Sb16  1  0.52291221  0.97817289  0.78899040  1
  Sb  Sb17  1  0.47084782  0.01292446  0.17709142  1
  S  S18  1  0.93357036  0.98949452  0.79688174  1
  S  S19  1  0.05985006  0.00023349  0.19944111  1
  S  S20  1  0.40531814  0.98981898  0.96735052  1
  S  S21  1  0.58254352  0.02314809  0.99832947  1
  S  S22  1  0.17223045  0.98161857  0.89701540  1
  S  S23  1  0.82892824  0.00638594  0.11067689  1
  S  S24  1  0.09891060  0.50488662  0.64230465  1
  S  S25  1  0.89259958  0.43699185  0.34589074  1
  S  S26  1  0.73746365  0.00945361  0.31824022  1
  S  S27  1  0.26733250  0.90654503  0.68364326  1
  S  S28  1  0.17172273  0.52185230  0.44621539  1
  S  S29  1  0.81599108  0.49672759  0.54470086  1
  S  S30  1  0.43234706  0.50230439  0.79276239  1
  S  S31  1  0.56854204  0.47316030  0.18787292  1
  S  S32  1  0.91594362  0.49232853  0.99493920  1
  S  S33  1  0.08193800  0.46657755  0.02649257  1
  S  S34  1  0.66666028  0.52039672  0.89263585  1
  S  S35  1  0.33465577  0.46666031  0.11380089  1
  S  S36  1  0.60370803  0.01947644  0.65143744  1
  S  S37  1  0.39824124  0.03627850  0.33499564  1
  S  S38  1  0.24948912  0.52386321  0.32806159  1
  S  S39  1  0.76192052  0.51174743  0.68029838  1
  S  S40  1  0.66483226  0.94550830  0.45862348  1
  S  S41  1  0.32686685  0.92574952  0.54861046  1
