# generated using pymatgen
data_Pr2Mn3(SbS3)4
_symmetry_space_group_name_H-M   'P 1'
_cell_length_a   20.02960800
_cell_length_b   3.90410600
_cell_length_c   14.95364829
_cell_angle_alpha   90.00000000
_cell_angle_beta   126.33350609
_cell_angle_gamma   90.00000000
_symmetry_Int_Tables_number   1
_chemical_formula_structural   Pr2Mn3(SbS3)4
_chemical_formula_sum   'Pr4 Mn6 Sb8 S24'
_cell_volume   942.00006694
_cell_formula_units_Z   2
loop_
 _symmetry_equiv_pos_site_id
 _symmetry_equiv_pos_as_xyz
  1  'x, y, z'
loop_
 _atom_site_type_symbol
 _atom_site_label
 _atom_site_symmetry_multiplicity
 _atom_site_fract_x
 _atom_site_fract_y
 _atom_site_fract_z
 _atom_site_occupancy
  Pr  Pr0  1  0.26486587  0.48083072  0.86982262  1
  Pr  Pr1  1  0.73790401  0.51061654  0.13591507  1
  Pr  Pr2  1  0.76286212  0.00818841  0.86227595  1
  Pr  Pr3  1  0.23640428  0.99768964  0.13900689  1
  Mn  Mn4  1  0.29478603  0.49141510  0.60840949  1
  Mn  Mn5  1  0.69459191  0.52490160  0.37891891  1
  Mn  Mn6  1  0.00398533  0.00050729  0.00096777  1
  Mn  Mn7  1  0.80295776  0.99151181  0.61686822  1
  Mn  Mn8  1  0.19616037  0.97429346  0.37862696  1
  Mn  Mn9  1  0.50267328  0.47341844  0.99507722  1
  Sb  Sb10  1  0.89224203  0.00087601  0.45410320  1
  Sb  Sb11  1  0.11189889  0.96939854  0.55242812  1
  Sb  Sb12  1  0.04049047  0.50697267  0.81701757  1
  Sb  Sb13  1  0.96218263  0.53220946  0.18695390  1
  Sb  Sb14  1  0.39900305  0.50239539  0.45827637  1
  Sb  Sb15  1  0.60595709  0.48613895  0.54757996  1
  Sb  Sb16  1  0.53537986  0.00904733  0.81349412  1
  Sb  Sb17  1  0.46196886  0.00563813  0.18194886  1
  S  S18  1  0.93673394  0.97241645  0.79879004  1
  S  S19  1  0.06531047  0.98537370  0.19146344  1
  S  S20  1  0.40942957  0.01502874  0.97927455  1
  S  S21  1  0.59266722  0.99787648  0.02307161  1
  S  S22  1  0.17255472  0.98598271  0.89640549  1
  S  S23  1  0.82604599  0.01788062  0.09958775  1
  S  S24  1  0.08591399  0.45600252  0.64597840  1
  S  S25  1  0.91360895  0.48754957  0.36006039  1
  S  S26  1  0.74162087  0.94985668  0.29959738  1
  S  S27  1  0.25714037  0.99837963  0.70159857  1
  S  S28  1  0.16653423  0.48720928  0.44609996  1
  S  S29  1  0.82998846  0.47548175  0.55047298  1
  S  S30  1  0.43177637  0.50410285  0.79964674  1
  S  S31  1  0.56200659  0.52957170  0.18990388  1
  S  S32  1  0.90519085  0.49513793  0.98163073  1
  S  S33  1  0.08491218  0.49498857  0.01626176  1
  S  S34  1  0.66465536  0.50525654  0.89210622  1
  S  S35  1  0.32887498  0.52868979  0.10028960  1
  S  S36  1  0.59000677  0.00412815  0.64838130  1
  S  S37  1  0.40855983  0.96052127  0.34999941  1
  S  S38  1  0.24405007  0.47755850  0.30608778  1
  S  S39  1  0.75994296  0.50287664  0.69815511  1
  S  S40  1  0.67313902  0.01064471  0.46171683  1
  S  S41  1  0.32987611  0.98846418  0.54054500  1
