# generated using pymatgen
data_Pr2Mn3(SbS3)4
_symmetry_space_group_name_H-M   'P 1'
_cell_length_a   20.02960800
_cell_length_b   3.90410600
_cell_length_c   14.95364829
_cell_angle_alpha   90.00000000
_cell_angle_beta   126.33350609
_cell_angle_gamma   90.00000000
_symmetry_Int_Tables_number   1
_chemical_formula_structural   Pr2Mn3(SbS3)4
_chemical_formula_sum   'Pr4 Mn6 Sb8 S24'
_cell_volume   942.00006694
_cell_formula_units_Z   2
loop_
 _symmetry_equiv_pos_site_id
 _symmetry_equiv_pos_as_xyz
  1  'x, y, z'
loop_
 _atom_site_type_symbol
 _atom_site_label
 _atom_site_symmetry_multiplicity
 _atom_site_fract_x
 _atom_site_fract_y
 _atom_site_fract_z
 _atom_site_occupancy
  Pr  Pr0  1  0.26889239  0.48291747  0.88390180  1
  Pr  Pr1  1  0.72648613  0.50398000  0.13171442  1
  Pr  Pr2  1  0.76192690  0.05157390  0.87312162  1
  Pr  Pr3  1  0.23413844  0.91787660  0.12669735  1
  Mn  Mn4  1  0.29875965  0.40821340  0.60749800  1
  Mn  Mn5  1  0.69391957  0.54183892  0.35592898  1
  Mn  Mn6  1  0.00351362  0.91444765  0.01228584  1
  Mn  Mn7  1  0.79809370  0.95838241  0.62606530  1
  Mn  Mn8  1  0.20895375  0.05713009  0.39529479  1
  Mn  Mn9  1  0.48535114  0.47531396  0.98833929  1
  Sb  Sb10  1  0.89305743  0.90737076  0.46207765  1
  Sb  Sb11  1  0.11476548  0.98359267  0.54677394  1
  Sb  Sb12  1  0.03365561  0.51784458  0.82580195  1
  Sb  Sb13  1  0.96139933  0.46284330  0.20134742  1
  Sb  Sb14  1  0.40711447  0.58708330  0.45193742  1
  Sb  Sb15  1  0.60082601  0.51278650  0.53201393  1
  Sb  Sb16  1  0.52300782  0.97773104  0.78914738  1
  Sb  Sb17  1  0.47082322  0.01268430  0.17714729  1
  S  S18  1  0.93347600  0.99083499  0.79698155  1
  S  S19  1  0.05960433  0.99971636  0.19931063  1
  S  S20  1  0.40522097  0.98921102  0.96718780  1
  S  S21  1  0.58263828  0.02350862  0.99836792  1
  S  S22  1  0.17214826  0.98250993  0.89677670  1
  S  S23  1  0.82902742  0.00629536  0.11090965  1
  S  S24  1  0.09901659  0.50570184  0.64230891  1
  S  S25  1  0.89250407  0.43728686  0.34578714  1
  S  S26  1  0.73718523  0.00888765  0.31816006  1
  S  S27  1  0.26758046  0.90739333  0.68396388  1
  S  S28  1  0.17174760  0.52178609  0.44620733  1
  S  S29  1  0.81620597  0.49722575  0.54465082  1
  S  S30  1  0.43239555  0.50276482  0.79283590  1
  S  S31  1  0.56857983  0.47322130  0.18812259  1
  S  S32  1  0.91617719  0.49256278  0.99528479  1
  S  S33  1  0.08216745  0.46618000  0.02680015  1
  S  S34  1  0.66665136  0.51913364  0.89287683  1
  S  S35  1  0.33477861  0.46639016  0.11382266  1
  S  S36  1  0.60349619  0.02040636  0.65126092  1
  S  S37  1  0.39832408  0.03583619  0.33527065  1
  S  S38  1  0.24931868  0.52373214  0.32812825  1
  S  S39  1  0.76209923  0.51074408  0.68046639  1
  S  S40  1  0.66495066  0.94628584  0.45852925  1
  S  S41  1  0.32686708  0.92536965  0.54829206  1
