# generated using pymatgen
data_Pr2Mn3(SbS3)4
_symmetry_space_group_name_H-M   'P 1'
_cell_length_a   20.02960800
_cell_length_b   3.90410600
_cell_length_c   14.95364829
_cell_angle_alpha   90.00000000
_cell_angle_beta   126.33350609
_cell_angle_gamma   90.00000000
_symmetry_Int_Tables_number   1
_chemical_formula_structural   Pr2Mn3(SbS3)4
_chemical_formula_sum   'Pr4 Mn6 Sb8 S24'
_cell_volume   942.00006694
_cell_formula_units_Z   2
loop_
 _symmetry_equiv_pos_site_id
 _symmetry_equiv_pos_as_xyz
  1  'x, y, z'
loop_
 _atom_site_type_symbol
 _atom_site_label
 _atom_site_symmetry_multiplicity
 _atom_site_fract_x
 _atom_site_fract_y
 _atom_site_fract_z
 _atom_site_occupancy
  Pr  Pr0  1  0.26884876  0.48276516  0.88388148  1
  Pr  Pr1  1  0.72644150  0.50387526  0.13173499  1
  Pr  Pr2  1  0.76202675  0.05155831  0.87305395  1
  Pr  Pr3  1  0.23421457  0.91794100  0.12667903  1
  Mn  Mn4  1  0.29885671  0.40824279  0.60767203  1
  Mn  Mn5  1  0.69389897  0.54169927  0.35592402  1
  Mn  Mn6  1  0.00347624  0.91600373  0.01229416  1
  Mn  Mn7  1  0.79834408  0.95745667  0.62638318  1
  Mn  Mn8  1  0.20899302  0.05661932  0.39547954  1
  Mn  Mn9  1  0.48523561  0.47538133  0.98837476  1
  Sb  Sb10  1  0.89282744  0.90749001  0.46189140  1
  Sb  Sb11  1  0.11476717  0.98384074  0.54681987  1
  Sb  Sb12  1  0.03372211  0.51812016  0.82574574  1
  Sb  Sb13  1  0.96137058  0.46307941  0.20130980  1
  Sb  Sb14  1  0.40716644  0.58691873  0.45198969  1
  Sb  Sb15  1  0.60074433  0.51268967  0.53203418  1
  Sb  Sb16  1  0.52309452  0.97741641  0.78932009  1
  Sb  Sb17  1  0.47085426  0.01241307  0.17714588  1
  S  S18  1  0.93337705  0.99210174  0.79701476  1
  S  S19  1  0.05942784  0.99899432  0.19920872  1
  S  S20  1  0.40510971  0.98886139  0.96692747  1
  S  S21  1  0.58265545  0.02416402  0.99833722  1
  S  S22  1  0.17211422  0.98363277  0.89662311  1
  S  S23  1  0.82921835  0.00615475  0.11116122  1
  S  S24  1  0.09891033  0.50641373  0.64225039  1
  S  S25  1  0.89237416  0.43772985  0.34564448  1
  S  S26  1  0.73690766  0.00821472  0.31808118  1
  S  S27  1  0.26777899  0.90813500  0.68428668  1
  S  S28  1  0.17183070  0.52194708  0.44631226  1
  S  S29  1  0.81648142  0.49752832  0.54478675  1
  S  S30  1  0.43249252  0.50336220  0.79296220  1
  S  S31  1  0.56864473  0.47287920  0.18841735  1
  S  S32  1  0.91634952  0.49256007  0.99557598  1
  S  S33  1  0.08247795  0.46545446  0.02723582  1
  S  S34  1  0.66665700  0.51869452  0.89306492  1
  S  S35  1  0.33493202  0.46597791  0.11396479  1
  S  S36  1  0.60326126  0.02073108  0.65114426  1
  S  S37  1  0.39843141  0.03542476  0.33565853  1
  S  S38  1  0.24917907  0.52393550  0.32821901  1
  S  S39  1  0.76237406  0.50994544  0.68086769  1
  S  S40  1  0.66508251  0.94685807  0.45853269  1
  S  S41  1  0.32684886  0.92526438  0.54809503  1
