# generated using pymatgen
data_Pr2Mn3(SbS3)4
_symmetry_space_group_name_H-M   'P 1'
_cell_length_a   20.02960800
_cell_length_b   3.90410600
_cell_length_c   14.95364829
_cell_angle_alpha   90.00000000
_cell_angle_beta   126.33350609
_cell_angle_gamma   90.00000000
_symmetry_Int_Tables_number   1
_chemical_formula_structural   Pr2Mn3(SbS3)4
_chemical_formula_sum   'Pr4 Mn6 Sb8 S24'
_cell_volume   942.00006694
_cell_formula_units_Z   2
loop_
 _symmetry_equiv_pos_site_id
 _symmetry_equiv_pos_as_xyz
  1  'x, y, z'
loop_
 _atom_site_type_symbol
 _atom_site_label
 _atom_site_symmetry_multiplicity
 _atom_site_fract_x
 _atom_site_fract_y
 _atom_site_fract_z
 _atom_site_occupancy
  Pr  Pr0  1  0.26888318  0.48277830  0.88386975  1
  Pr  Pr1  1  0.72639666  0.50372622  0.13176259  1
  Pr  Pr2  1  0.76212949  0.05147824  0.87298916  1
  Pr  Pr3  1  0.23430251  0.91785061  0.12672716  1
  Mn  Mn4  1  0.29894636  0.40841003  0.60786257  1
  Mn  Mn5  1  0.69392239  0.54168386  0.35599050  1
  Mn  Mn6  1  0.00353732  0.91735413  0.01238520  1
  Mn  Mn7  1  0.79857888  0.95660793  0.62674658  1
  Mn  Mn8  1  0.20891484  0.05640185  0.39549100  1
  Mn  Mn9  1  0.48520915  0.47551907  0.98842303  1
  Sb  Sb10  1  0.89261766  0.90752561  0.46170770  1
  Sb  Sb11  1  0.11474182  0.98417883  0.54686731  1
  Sb  Sb12  1  0.03384453  0.51818615  0.82568717  1
  Sb  Sb13  1  0.96131306  0.46336324  0.20126627  1
  Sb  Sb14  1  0.40721411  0.58670763  0.45201797  1
  Sb  Sb15  1  0.60073222  0.51257966  0.53208130  1
  Sb  Sb16  1  0.52319003  0.97702911  0.78949137  1
  Sb  Sb17  1  0.47087174  0.01231076  0.17713240  1
  S  S18  1  0.93337081  0.99300195  0.79710710  1
  S  S19  1  0.05931513  0.99770474  0.19921510  1
  S  S20  1  0.40493277  0.98859877  0.96666249  1
  S  S21  1  0.58257937  0.02466996  0.99835154  1
  S  S22  1  0.17202608  0.98392641  0.89657121  1
  S  S23  1  0.82937775  0.00558547  0.11140207  1
  S  S24  1  0.09881195  0.50685554  0.64218926  1
  S  S25  1  0.89234397  0.43856851  0.34566098  1
  S  S26  1  0.73654933  0.00687777  0.31802708  1
  S  S27  1  0.26793798  0.90871764  0.68457712  1
  S  S28  1  0.17196896  0.52229735  0.44642804  1
  S  S29  1  0.81675806  0.49804333  0.54500489  1
  S  S30  1  0.43255013  0.50439535  0.79308403  1
  S  S31  1  0.56875360  0.47248722  0.18868599  1
  S  S32  1  0.91660430  0.49264844  0.99583807  1
  S  S33  1  0.08275584  0.46478433  0.02771654  1
  S  S34  1  0.66667847  0.51813734  0.89330721  1
  S  S35  1  0.33510364  0.46546908  0.11433425  1
  S  S36  1  0.60311916  0.02064479  0.65106690  1
  S  S37  1  0.39850564  0.03448843  0.33594747  1
  S  S38  1  0.24901750  0.52379343  0.32812465  1
  S  S39  1  0.76261011  0.50891807  0.68129647  1
  S  S40  1  0.66521877  0.94755294  0.45845566  1
  S  S41  1  0.32683578  0.92520475  0.54791934  1
