# generated using pymatgen
data_Pr2Mn3(SbS3)4
_symmetry_space_group_name_H-M   'P 1'
_cell_length_a   20.02960800
_cell_length_b   3.90410600
_cell_length_c   14.95364829
_cell_angle_alpha   90.00000000
_cell_angle_beta   126.33350609
_cell_angle_gamma   90.00000000
_symmetry_Int_Tables_number   1
_chemical_formula_structural   Pr2Mn3(SbS3)4
_chemical_formula_sum   'Pr4 Mn6 Sb8 S24'
_cell_volume   942.00006694
_cell_formula_units_Z   2
loop_
 _symmetry_equiv_pos_site_id
 _symmetry_equiv_pos_as_xyz
  1  'x, y, z'
loop_
 _atom_site_type_symbol
 _atom_site_label
 _atom_site_symmetry_multiplicity
 _atom_site_fract_x
 _atom_site_fract_y
 _atom_site_fract_z
 _atom_site_occupancy
  Pr  Pr0  1  0.26894688  0.48262711  0.88389196  1
  Pr  Pr1  1  0.72633752  0.50375103  0.13177238  1
  Pr  Pr2  1  0.76222978  0.05153167  0.87292260  1
  Pr  Pr3  1  0.23440745  0.91771196  0.12680243  1
  Mn  Mn4  1  0.29909592  0.40819490  0.60801039  1
  Mn  Mn5  1  0.69401855  0.54144702  0.35616589  1
  Mn  Mn6  1  0.00352773  0.91865406  0.01241125  1
  Mn  Mn7  1  0.79879221  0.95600259  0.62698772  1
  Mn  Mn8  1  0.20888037  0.05602139  0.39555834  1
  Mn  Mn9  1  0.48520207  0.47568208  0.98852684  1
  Sb  Sb10  1  0.89239686  0.90780427  0.46152051  1
  Sb  Sb11  1  0.11466734  0.98456127  0.54689787  1
  Sb  Sb12  1  0.03395869  0.51833887  0.82562526  1
  Sb  Sb13  1  0.96127579  0.46368996  0.20121187  1
  Sb  Sb14  1  0.40727120  0.58654556  0.45204311  1
  Sb  Sb15  1  0.60069191  0.51222817  0.53213637  1
  Sb  Sb16  1  0.52327671  0.97660943  0.78963172  1
  Sb  Sb17  1  0.47089284  0.01205562  0.17715821  1
  S  S18  1  0.93333312  0.99397045  0.79728845  1
  S  S19  1  0.05928479  0.99621250  0.19934459  1
  S  S20  1  0.40482465  0.98857397  0.96658361  1
  S  S21  1  0.58252953  0.02476954  0.99847996  1
  S  S22  1  0.17205760  0.98396723  0.89651050  1
  S  S23  1  0.82960579  0.00483510  0.11164332  1
  S  S24  1  0.09881896  0.50730612  0.64219202  1
  S  S25  1  0.89229148  0.43922640  0.34557754  1
  S  S26  1  0.73638383  0.00572186  0.31806580  1
  S  S27  1  0.26804938  0.90942617  0.68488336  1
  S  S28  1  0.17202018  0.52254603  0.44658124  1
  S  S29  1  0.81700633  0.49871775  0.54518495  1
  S  S30  1  0.43255349  0.50567119  0.79309977  1
  S  S31  1  0.56872546  0.47210754  0.18877438  1
  S  S32  1  0.91691949  0.49318922  0.99625330  1
  S  S33  1  0.08301793  0.46396234  0.02812297  1
  S  S34  1  0.66669830  0.51762228  0.89358630  1
  S  S35  1  0.33526942  0.46485852  0.11462320  1
  S  S36  1  0.60303325  0.02079109  0.65110470  1
  S  S37  1  0.39858843  0.03321995  0.33626655  1
  S  S38  1  0.24874807  0.52351656  0.32784310  1
  S  S39  1  0.76282725  0.50819866  0.68155825  1
  S  S40  1  0.66540645  0.94791769  0.45858213  1
  S  S41  1  0.32682320  0.92517862  0.54789348  1
