# generated using pymatgen
data_Pr2Mn3(SbS3)4
_symmetry_space_group_name_H-M   'P 1'
_cell_length_a   20.02960800
_cell_length_b   3.90410600
_cell_length_c   14.95364829
_cell_angle_alpha   90.00000000
_cell_angle_beta   126.33350609
_cell_angle_gamma   90.00000000
_symmetry_Int_Tables_number   1
_chemical_formula_structural   Pr2Mn3(SbS3)4
_chemical_formula_sum   'Pr4 Mn6 Sb8 S24'
_cell_volume   942.00006694
_cell_formula_units_Z   2
loop_
 _symmetry_equiv_pos_site_id
 _symmetry_equiv_pos_as_xyz
  1  'x, y, z'
loop_
 _atom_site_type_symbol
 _atom_site_label
 _atom_site_symmetry_multiplicity
 _atom_site_fract_x
 _atom_site_fract_y
 _atom_site_fract_z
 _atom_site_occupancy
  Pr  Pr0  1  0.26903694  0.48252502  0.88393441  1
  Pr  Pr1  1  0.72627764  0.50388442  0.13182579  1
  Pr  Pr2  1  0.76228349  0.05155907  0.87288555  1
  Pr  Pr3  1  0.23451159  0.91757377  0.12691258  1
  Mn  Mn4  1  0.29924778  0.40787282  0.60812451  1
  Mn  Mn5  1  0.69416126  0.54123372  0.35641587  1
  Mn  Mn6  1  0.00356145  0.92016652  0.01252161  1
  Mn  Mn7  1  0.79903005  0.95554422  0.62726908  1
  Mn  Mn8  1  0.20874883  0.05560088  0.39556798  1
  Mn  Mn9  1  0.48515006  0.47636525  0.98864804  1
  Sb  Sb10  1  0.89222656  0.90832022  0.46133030  1
  Sb  Sb11  1  0.11457161  0.98488061  0.54689798  1
  Sb  Sb12  1  0.03411050  0.51847305  0.82564600  1
  Sb  Sb13  1  0.96120916  0.46400528  0.20121032  1
  Sb  Sb14  1  0.40732855  0.58668090  0.45209335  1
  Sb  Sb15  1  0.60069139  0.51179914  0.53223498  1
  Sb  Sb16  1  0.52334694  0.97607009  0.78977679  1
  Sb  Sb17  1  0.47095874  0.01178773  0.17720018  1
  S  S18  1  0.93334909  0.99491283  0.79733799  1
  S  S19  1  0.05934064  0.99465363  0.19951018  1
  S  S20  1  0.40489058  0.98869476  0.96665395  1
  S  S21  1  0.58239226  0.02480381  0.99844510  1
  S  S22  1  0.17201466  0.98432993  0.89649375  1
  S  S23  1  0.82992243  0.00456158  0.11192378  1
  S  S24  1  0.09889777  0.50784763  0.64228283  1
  S  S25  1  0.89225601  0.43933146  0.34555156  1
  S  S26  1  0.73624507  0.00375943  0.31809929  1
  S  S27  1  0.26808295  0.91023909  0.68509080  1
  S  S28  1  0.17210548  0.52271090  0.44676895  1
  S  S29  1  0.81722247  0.49944915  0.54559209  1
  S  S30  1  0.43257163  0.50700056  0.79322161  1
  S  S31  1  0.56860090  0.47182528  0.18876356  1
  S  S32  1  0.91724490  0.49372596  0.99668439  1
  S  S33  1  0.08327299  0.46300149  0.02841768  1
  S  S34  1  0.66665798  0.51746874  0.89383567  1
  S  S35  1  0.33542853  0.46422334  0.11486678  1
  S  S36  1  0.60296972  0.02050248  0.65124058  1
  S  S37  1  0.39863796  0.03222384  0.33647341  1
  S  S38  1  0.24844917  0.52298864  0.32751421  1
  S  S39  1  0.76304820  0.50738259  0.68169516  1
  S  S40  1  0.66556863  0.94845511  0.45865353  1
  S  S41  1  0.32688358  0.92511758  0.54796266  1
