# generated using pymatgen
data_Pr2Mn3(SbS3)4
_symmetry_space_group_name_H-M   'P 1'
_cell_length_a   20.02960800
_cell_length_b   3.90410600
_cell_length_c   14.95364829
_cell_angle_alpha   90.00000000
_cell_angle_beta   126.33350609
_cell_angle_gamma   90.00000000
_symmetry_Int_Tables_number   1
_chemical_formula_structural   Pr2Mn3(SbS3)4
_chemical_formula_sum   'Pr4 Mn6 Sb8 S24'
_cell_volume   942.00006694
_cell_formula_units_Z   2
loop_
 _symmetry_equiv_pos_site_id
 _symmetry_equiv_pos_as_xyz
  1  'x, y, z'
loop_
 _atom_site_type_symbol
 _atom_site_label
 _atom_site_symmetry_multiplicity
 _atom_site_fract_x
 _atom_site_fract_y
 _atom_site_fract_z
 _atom_site_occupancy
  Pr  Pr0  1  0.26919800  0.48237325  0.88401790  1
  Pr  Pr1  1  0.72612828  0.50393950  0.13182513  1
  Pr  Pr2  1  0.76226766  0.05188221  0.87283330  1
  Pr  Pr3  1  0.23457782  0.91732927  0.12696362  1
  Mn  Mn4  1  0.29938635  0.40749871  0.60827021  1
  Mn  Mn5  1  0.69437665  0.54079772  0.35670299  1
  Mn  Mn6  1  0.00363523  0.92143703  0.01269573  1
  Mn  Mn7  1  0.79926057  0.95563043  0.62754816  1
  Mn  Mn8  1  0.20869044  0.05525419  0.39546476  1
  Mn  Mn9  1  0.48503628  0.47729517  0.98874933  1
  Sb  Sb10  1  0.89207302  0.90874500  0.46118784  1
  Sb  Sb11  1  0.11447394  0.98528546  0.54681693  1
  Sb  Sb12  1  0.03421225  0.51859962  0.82565630  1
  Sb  Sb13  1  0.96117743  0.46396676  0.20123361  1
  Sb  Sb14  1  0.40737609  0.58661099  0.45218236  1
  Sb  Sb15  1  0.60066452  0.51113461  0.53221228  1
  Sb  Sb16  1  0.52342895  0.97531922  0.78995628  1
  Sb  Sb17  1  0.47101746  0.01136168  0.17722175  1
  S  S18  1  0.93332832  0.99587102  0.79728358  1
  S  S19  1  0.05934584  0.99359793  0.19959995  1
  S  S20  1  0.40506154  0.98829422  0.96681355  1
  S  S21  1  0.58219419  0.02476655  0.99836145  1
  S  S22  1  0.17202924  0.98421290  0.89651008  1
  S  S23  1  0.83032222  0.00454722  0.11231924  1
  S  S24  1  0.09900627  0.50879254  0.64237848  1
  S  S25  1  0.89215810  0.43922783  0.34537394  1
  S  S26  1  0.73609274  0.00202323  0.31813975  1
  S  S27  1  0.26812291  0.91089571  0.68524994  1
  S  S28  1  0.17220416  0.52314224  0.44696500  1
  S  S29  1  0.81749373  0.49998466  0.54597568  1
  S  S30  1  0.43269616  0.50802113  0.79340408  1
  S  S31  1  0.56850789  0.47130682  0.18885588  1
  S  S32  1  0.91766384  0.49449823  0.99701150  1
  S  S33  1  0.08337071  0.46252091  0.02858807  1
  S  S34  1  0.66670706  0.51700349  0.89406370  1
  S  S35  1  0.33560437  0.46387616  0.11515733  1
  S  S36  1  0.60277230  0.02044059  0.65129156  1
  S  S37  1  0.39869324  0.03130410  0.33676906  1
  S  S38  1  0.24827270  0.52263246  0.32723082  1
  S  S39  1  0.76333551  0.50668083  0.68189424  1
  S  S40  1  0.66566103  0.94911182  0.45869564  1
  S  S41  1  0.32705119  0.92536126  0.54805687  1
