# generated using pymatgen
data_Pr2Mn3(SbS3)4
_symmetry_space_group_name_H-M   'P 1'
_cell_length_a   20.02960800
_cell_length_b   3.90410600
_cell_length_c   14.95364829
_cell_angle_alpha   90.00000000
_cell_angle_beta   126.33350609
_cell_angle_gamma   90.00000000
_symmetry_Int_Tables_number   1
_chemical_formula_structural   Pr2Mn3(SbS3)4
_chemical_formula_sum   'Pr4 Mn6 Sb8 S24'
_cell_volume   942.00006694
_cell_formula_units_Z   2
loop_
 _symmetry_equiv_pos_site_id
 _symmetry_equiv_pos_as_xyz
  1  'x, y, z'
loop_
 _atom_site_type_symbol
 _atom_site_label
 _atom_site_symmetry_multiplicity
 _atom_site_fract_x
 _atom_site_fract_y
 _atom_site_fract_z
 _atom_site_occupancy
  Pr  Pr0  1  0.26941591  0.48227156  0.88420976  1
  Pr  Pr1  1  0.72599569  0.50402713  0.13183185  1
  Pr  Pr2  1  0.76226451  0.05211356  0.87276751  1
  Pr  Pr3  1  0.23461809  0.91690646  0.12696137  1
  Mn  Mn4  1  0.29939507  0.40696498  0.60830712  1
  Mn  Mn5  1  0.69454767  0.54059494  0.35699722  1
  Mn  Mn6  1  0.00363089  0.92219302  0.01282605  1
  Mn  Mn7  1  0.79935368  0.95570570  0.62769806  1
  Mn  Mn8  1  0.20868384  0.05513238  0.39530229  1
  Mn  Mn9  1  0.48500855  0.47815689  0.98890671  1
  Sb  Sb10  1  0.89188442  0.90908729  0.46110308  1
  Sb  Sb11  1  0.11429939  0.98584405  0.54662154  1
  Sb  Sb12  1  0.03436080  0.51857985  0.82567031  1
  Sb  Sb13  1  0.96113248  0.46397897  0.20122504  1
  Sb  Sb14  1  0.40747319  0.58648996  0.45231996  1
  Sb  Sb15  1  0.60061505  0.51042189  0.53213898  1
  Sb  Sb16  1  0.52351024  0.97483083  0.79009433  1
  Sb  Sb17  1  0.47110265  0.01105984  0.17728281  1
  S  S18  1  0.93339222  0.99653905  0.79731400  1
  S  S19  1  0.05938715  0.99289941  0.19962099  1
  S  S20  1  0.40519267  0.98842050  0.96692894  1
  S  S21  1  0.58195068  0.02435175  0.99819187  1
  S  S22  1  0.17199628  0.98399679  0.89648889  1
  S  S23  1  0.83079972  0.00445505  0.11289471  1
  S  S24  1  0.09914182  0.50921110  0.64247460  1
  S  S25  1  0.89207088  0.43941521  0.34519408  1
  S  S26  1  0.73586471  0.00020148  0.31819133  1
  S  S27  1  0.26813138  0.91132403  0.68530462  1
  S  S28  1  0.17210534  0.52334769  0.44703998  1
  S  S29  1  0.81768368  0.50046923  0.54620604  1
  S  S30  1  0.43279071  0.50901645  0.79372798  1
  S  S31  1  0.56837447  0.47029974  0.18902248  1
  S  S32  1  0.91795208  0.49493155  0.99737427  1
  S  S33  1  0.08351036  0.46199389  0.02884384  1
  S  S34  1  0.66671148  0.51626247  0.89424177  1
  S  S35  1  0.33561942  0.46338523  0.11529207  1
  S  S36  1  0.60265594  0.02035803  0.65131385  1
  S  S37  1  0.39880585  0.03023481  0.33707101  1
  S  S38  1  0.24813387  0.52255950  0.32699469  1
  S  S39  1  0.76364618  0.50566163  0.68206435  1
  S  S40  1  0.66557891  0.94984369  0.45862034  1
  S  S41  1  0.32723899  0.92523052  0.54810729  1
