# generated using pymatgen
data_Pr2Mn3(SbS3)4
_symmetry_space_group_name_H-M   'P 1'
_cell_length_a   20.02960800
_cell_length_b   3.90410600
_cell_length_c   14.95364829
_cell_angle_alpha   90.00000000
_cell_angle_beta   126.33350609
_cell_angle_gamma   90.00000000
_symmetry_Int_Tables_number   1
_chemical_formula_structural   Pr2Mn3(SbS3)4
_chemical_formula_sum   'Pr4 Mn6 Sb8 S24'
_cell_volume   942.00006694
_cell_formula_units_Z   2
loop_
 _symmetry_equiv_pos_site_id
 _symmetry_equiv_pos_as_xyz
  1  'x, y, z'
loop_
 _atom_site_type_symbol
 _atom_site_label
 _atom_site_symmetry_multiplicity
 _atom_site_fract_x
 _atom_site_fract_y
 _atom_site_fract_z
 _atom_site_occupancy
  Pr  Pr0  1  0.26965075  0.48223541  0.88444049  1
  Pr  Pr1  1  0.72590236  0.50434453  0.13185974  1
  Pr  Pr2  1  0.76226171  0.05244456  0.87270201  1
  Pr  Pr3  1  0.23465957  0.91665529  0.12699784  1
  Mn  Mn4  1  0.29942726  0.40656617  0.60842175  1
  Mn  Mn5  1  0.69484469  0.54067038  0.35744050  1
  Mn  Mn6  1  0.00364007  0.92291237  0.01292872  1
  Mn  Mn7  1  0.79943726  0.95551131  0.62795767  1
  Mn  Mn8  1  0.20871010  0.05483105  0.39524365  1
  Mn  Mn9  1  0.48498653  0.47892537  0.98904138  1
  Sb  Sb10  1  0.89164133  0.90936404  0.46094421  1
  Sb  Sb11  1  0.11419734  0.98616206  0.54651462  1
  Sb  Sb12  1  0.03457051  0.51866598  0.82569743  1
  Sb  Sb13  1  0.96113984  0.46393251  0.20122739  1
  Sb  Sb14  1  0.40754021  0.58645017  0.45246163  1
  Sb  Sb15  1  0.60062738  0.50986263  0.53211526  1
  Sb  Sb16  1  0.52364112  0.97425457  0.79025319  1
  Sb  Sb17  1  0.47127940  0.01065260  0.17746620  1
  S  S18  1  0.93342964  0.99693964  0.79735830  1
  S  S19  1  0.05937824  0.99209754  0.19964997  1
  S  S20  1  0.40544493  0.98813295  0.96723831  1
  S  S21  1  0.58173063  0.02468288  0.99808886  1
  S  S22  1  0.17206520  0.98340776  0.89665113  1
  S  S23  1  0.83122966  0.00478267  0.11339492  1
  S  S24  1  0.09935200  0.50954956  0.64265312  1
  S  S25  1  0.89187366  0.43984392  0.34493880  1
  S  S26  1  0.73556806  0.99888078  0.31813335  1
  S  S27  1  0.26821648  0.91166437  0.68530302  1
  S  S28  1  0.17190642  0.52349983  0.44698343  1
  S  S29  1  0.81786363  0.50100254  0.54642607  1
  S  S30  1  0.43288787  0.51006176  0.79394717  1
  S  S31  1  0.56819484  0.46933555  0.18915303  1
  S  S32  1  0.91827317  0.49570157  0.99781457  1
  S  S33  1  0.08369369  0.46173340  0.02921762  1
  S  S34  1  0.66675067  0.51572468  0.89442154  1
  S  S35  1  0.33556640  0.46279067  0.11530127  1
  S  S36  1  0.60260051  0.01974837  0.65132339  1
  S  S37  1  0.39897012  0.02914610  0.33741281  1
  S  S38  1  0.24797097  0.52227816  0.32672955  1
  S  S39  1  0.76398574  0.50499856  0.68229971  1
  S  S40  1  0.66547545  0.95056511  0.45852577  1
  S  S41  1  0.32745380  0.92570068  0.54830365  1
