# generated using pymatgen
data_Pr2Mn3(SbS3)4
_symmetry_space_group_name_H-M   'P 1'
_cell_length_a   20.02960800
_cell_length_b   3.90410600
_cell_length_c   14.95364829
_cell_angle_alpha   90.00000000
_cell_angle_beta   126.33350609
_cell_angle_gamma   90.00000000
_symmetry_Int_Tables_number   1
_chemical_formula_structural   Pr2Mn3(SbS3)4
_chemical_formula_sum   'Pr4 Mn6 Sb8 S24'
_cell_volume   942.00006694
_cell_formula_units_Z   2
loop_
 _symmetry_equiv_pos_site_id
 _symmetry_equiv_pos_as_xyz
  1  'x, y, z'
loop_
 _atom_site_type_symbol
 _atom_site_label
 _atom_site_symmetry_multiplicity
 _atom_site_fract_x
 _atom_site_fract_y
 _atom_site_fract_z
 _atom_site_occupancy
  Pr  Pr0  1  0.26981337  0.48216958  0.88461785  1
  Pr  Pr1  1  0.72577569  0.50463172  0.13179180  1
  Pr  Pr2  1  0.76231778  0.05264006  0.87255643  1
  Pr  Pr3  1  0.23471448  0.91645468  0.12710504  1
  Mn  Mn4  1  0.29937978  0.40585868  0.60835656  1
  Mn  Mn5  1  0.69522391  0.54044995  0.35799075  1
  Mn  Mn6  1  0.00363766  0.92345851  0.01301507  1
  Mn  Mn7  1  0.79958613  0.95569808  0.62822755  1
  Mn  Mn8  1  0.20872072  0.05470836  0.39510758  1
  Mn  Mn9  1  0.48496653  0.47951659  0.98912627  1
  Sb  Sb10  1  0.89147154  0.90953581  0.46085651  1
  Sb  Sb11  1  0.11412682  0.98638277  0.54648956  1
  Sb  Sb12  1  0.03474797  0.51870647  0.82570894  1
  Sb  Sb13  1  0.96116697  0.46381499  0.20124609  1
  Sb  Sb14  1  0.40759605  0.58653429  0.45257049  1
  Sb  Sb15  1  0.60060477  0.50935704  0.53203648  1
  Sb  Sb16  1  0.52374355  0.97379760  0.79041496  1
  Sb  Sb17  1  0.47140931  0.01024354  0.17761407  1
  S  S18  1  0.93344773  0.99678134  0.79731850  1
  S  S19  1  0.05941601  0.99153301  0.19975584  1
  S  S20  1  0.40565741  0.98802572  0.96753041  1
  S  S21  1  0.58166517  0.02564004  0.99813312  1
  S  S22  1  0.17206630  0.98275198  0.89689082  1
  S  S23  1  0.83170379  0.00521891  0.11390254  1
  S  S24  1  0.09958934  0.50979781  0.64287330  1
  S  S25  1  0.89165406  0.44067492  0.34463839  1
  S  S26  1  0.73519414  0.99773869  0.31802588  1
  S  S27  1  0.26836469  0.91204087  0.68536867  1
  S  S28  1  0.17173011  0.52345457  0.44703214  1
  S  S29  1  0.81809966  0.50172860  0.54650245  1
  S  S30  1  0.43299010  0.51084721  0.79424100  1
  S  S31  1  0.56805074  0.46840807  0.18943951  1
  S  S32  1  0.91857648  0.49601686  0.99828261  1
  S  S33  1  0.08383270  0.46102509  0.02961622  1
  S  S34  1  0.66680341  0.51606985  0.89466214  1
  S  S35  1  0.33546126  0.46199756  0.11519489  1
  S  S36  1  0.60243557  0.01981522  0.65129770  1
  S  S37  1  0.39914512  0.02820750  0.33779539  1
  S  S38  1  0.24788730  0.52209310  0.32665803  1
  S  S39  1  0.76426636  0.50477916  0.68256890  1
  S  S40  1  0.66535058  0.95150243  0.45833245  1
  S  S41  1  0.32772634  0.92606155  0.54860022  1
