# generated using pymatgen
data_Pr2Mn3(SbS3)4
_symmetry_space_group_name_H-M   'P 1'
_cell_length_a   20.02960800
_cell_length_b   3.90410600
_cell_length_c   14.95364829
_cell_angle_alpha   90.00000000
_cell_angle_beta   126.33350609
_cell_angle_gamma   90.00000000
_symmetry_Int_Tables_number   1
_chemical_formula_structural   Pr2Mn3(SbS3)4
_chemical_formula_sum   'Pr4 Mn6 Sb8 S24'
_cell_volume   942.00006694
_cell_formula_units_Z   2
loop_
 _symmetry_equiv_pos_site_id
 _symmetry_equiv_pos_as_xyz
  1  'x, y, z'
loop_
 _atom_site_type_symbol
 _atom_site_label
 _atom_site_symmetry_multiplicity
 _atom_site_fract_x
 _atom_site_fract_y
 _atom_site_fract_z
 _atom_site_occupancy
  Pr  Pr0  1  0.26994142  0.48186905  0.88478249  1
  Pr  Pr1  1  0.72567471  0.50494327  0.13177103  1
  Pr  Pr2  1  0.76234314  0.05290201  0.87237326  1
  Pr  Pr3  1  0.23482289  0.91625063  0.12728306  1
  Mn  Mn4  1  0.29935539  0.40549662  0.60821685  1
  Mn  Mn5  1  0.69558038  0.54007955  0.35860054  1
  Mn  Mn6  1  0.00372266  0.92433946  0.01317353  1
  Mn  Mn7  1  0.79973068  0.95556788  0.62847841  1
  Mn  Mn8  1  0.20878163  0.05460442  0.39494905  1
  Mn  Mn9  1  0.48498679  0.47993504  0.98929306  1
  Sb  Sb10  1  0.89128367  0.90950125  0.46077337  1
  Sb  Sb11  1  0.11405683  0.98664844  0.54642894  1
  Sb  Sb12  1  0.03492342  0.51883752  0.82570294  1
  Sb  Sb13  1  0.96116557  0.46344838  0.20122080  1
  Sb  Sb14  1  0.40762284  0.58658242  0.45264092  1
  Sb  Sb15  1  0.60054450  0.50914547  0.53186191  1
  Sb  Sb16  1  0.52389239  0.97302707  0.79061468  1
  Sb  Sb17  1  0.47153825  0.00974520  0.17775786  1
  S  S18  1  0.93343587  0.99695979  0.79734390  1
  S  S19  1  0.05946786  0.99074053  0.19993464  1
  S  S20  1  0.40593324  0.98790230  0.96785159  1
  S  S21  1  0.58158681  0.02646912  0.99821897  1
  S  S22  1  0.17207649  0.98185185  0.89719340  1
  S  S23  1  0.83216186  0.00532629  0.11429412  1
  S  S24  1  0.09979026  0.51035228  0.64310148  1
  S  S25  1  0.89147459  0.44165745  0.34435871  1
  S  S26  1  0.73487258  0.99635562  0.31784089  1
  S  S27  1  0.26850232  0.91233550  0.68552538  1
  S  S28  1  0.17172889  0.52359558  0.44718864  1
  S  S29  1  0.81832823  0.50198881  0.54651302  1
  S  S30  1  0.43309178  0.51161526  0.79457827  1
  S  S31  1  0.56795473  0.46726355  0.18966894  1
  S  S32  1  0.91874963  0.49641680  0.99870544  1
  S  S33  1  0.08391056  0.46027526  0.02986426  1
  S  S34  1  0.66687740  0.51607592  0.89496426  1
  S  S35  1  0.33539046  0.46083723  0.11502014  1
  S  S36  1  0.60227940  0.01995653  0.65129431  1
  S  S37  1  0.39940285  0.02709602  0.33829011  1
  S  S38  1  0.24780834  0.52187582  0.32658439  1
  S  S39  1  0.76450920  0.50495890  0.68263575  1
  S  S40  1  0.66514030  0.95179706  0.45794976  1
  S  S41  1  0.32799266  0.92665112  0.54896147  1
