# generated using pymatgen
data_Pr2Mn3(SbS3)4
_symmetry_space_group_name_H-M   'P 1'
_cell_length_a   20.02960800
_cell_length_b   3.90410600
_cell_length_c   14.95364829
_cell_angle_alpha   90.00000000
_cell_angle_beta   126.33350609
_cell_angle_gamma   90.00000000
_symmetry_Int_Tables_number   1
_chemical_formula_structural   Pr2Mn3(SbS3)4
_chemical_formula_sum   'Pr4 Mn6 Sb8 S24'
_cell_volume   942.00006694
_cell_formula_units_Z   2
loop_
 _symmetry_equiv_pos_site_id
 _symmetry_equiv_pos_as_xyz
  1  'x, y, z'
loop_
 _atom_site_type_symbol
 _atom_site_label
 _atom_site_symmetry_multiplicity
 _atom_site_fract_x
 _atom_site_fract_y
 _atom_site_fract_z
 _atom_site_occupancy
  Pr  Pr0  1  0.26478739  0.48046775  0.86973318  1
  Pr  Pr1  1  0.73795197  0.51084069  0.13590294  1
  Pr  Pr2  1  0.76299233  0.00802421  0.86245562  1
  Pr  Pr3  1  0.23634596  0.99726091  0.13897621  1
  Mn  Mn4  1  0.29457500  0.49043747  0.60785986  1
  Mn  Mn5  1  0.69466220  0.52531748  0.37901572  1
  Mn  Mn6  1  0.00411090  0.99973934  0.00114754  1
  Mn  Mn7  1  0.80316852  0.99207717  0.61692084  1
  Mn  Mn8  1  0.19615714  0.97383345  0.37864721  1
  Mn  Mn9  1  0.50258770  0.47309408  0.99502609  1
  Sb  Sb10  1  0.89203556  0.00036820  0.45394527  1
  Sb  Sb11  1  0.11183617  0.96913301  0.55230939  1
  Sb  Sb12  1  0.04048894  0.50799420  0.81695336  1
  Sb  Sb13  1  0.96214523  0.53218132  0.18682079  1
  Sb  Sb14  1  0.39904403  0.50279846  0.45832057  1
  Sb  Sb15  1  0.60590270  0.48570137  0.54749955  1
  Sb  Sb16  1  0.53521949  0.00915344  0.81338277  1
  Sb  Sb17  1  0.46186145  0.00591865  0.18189304  1
  S  S18  1  0.93683377  0.97166627  0.79899958  1
  S  S19  1  0.06552479  0.98416918  0.19145739  1
  S  S20  1  0.40931275  0.01617165  0.97915112  1
  S  S21  1  0.59286859  0.99855970  0.02342168  1
  S  S22  1  0.17272269  0.98533686  0.89644484  1
  S  S23  1  0.82591255  0.01756785  0.09937485  1
  S  S24  1  0.08600105  0.45596027  0.64601772  1
  S  S25  1  0.91358829  0.48722250  0.35994905  1
  S  S26  1  0.74135936  0.95044250  0.29952681  1
  S  S27  1  0.25694600  0.99813136  0.70152657  1
  S  S28  1  0.16695603  0.48698092  0.44642390  1
  S  S29  1  0.82994560  0.47571564  0.55060608  1
  S  S30  1  0.43186690  0.50323652  0.79961998  1
  S  S31  1  0.56200478  0.53009293  0.18957971  1
  S  S32  1  0.90568141  0.49563108  0.98237642  1
  S  S33  1  0.08468182  0.49474958  0.01616704  1
  S  S34  1  0.66473972  0.50538059  0.89192752  1
  S  S35  1  0.32890811  0.52880964  0.10010457  1
  S  S36  1  0.59024181  0.00476015  0.64890131  1
  S  S37  1  0.40847162  0.96142771  0.34974274  1
  S  S38  1  0.24404232  0.47646086  0.30612452  1
  S  S39  1  0.75989483  0.50410781  0.69829818  1
  S  S40  1  0.67329369  0.01165200  0.46148773  1
  S  S41  1  0.32978490  0.98885599  0.54045108  1
