# generated using pymatgen
data_Pr2Mn3(SbS3)4
_symmetry_space_group_name_H-M   'P 1'
_cell_length_a   20.02960800
_cell_length_b   3.90410600
_cell_length_c   14.95364829
_cell_angle_alpha   90.00000000
_cell_angle_beta   126.33350609
_cell_angle_gamma   90.00000000
_symmetry_Int_Tables_number   1
_chemical_formula_structural   Pr2Mn3(SbS3)4
_chemical_formula_sum   'Pr4 Mn6 Sb8 S24'
_cell_volume   942.00006694
_cell_formula_units_Z   2
loop_
 _symmetry_equiv_pos_site_id
 _symmetry_equiv_pos_as_xyz
  1  'x, y, z'
loop_
 _atom_site_type_symbol
 _atom_site_label
 _atom_site_symmetry_multiplicity
 _atom_site_fract_x
 _atom_site_fract_y
 _atom_site_fract_z
 _atom_site_occupancy
  Pr  Pr0  1  0.27008518  0.48132677  0.88492663  1
  Pr  Pr1  1  0.72557604  0.50535625  0.13174741  1
  Pr  Pr2  1  0.76237641  0.05310595  0.87219654  1
  Pr  Pr3  1  0.23489870  0.91611234  0.12738572  1
  Mn  Mn4  1  0.29937275  0.40521322  0.60805098  1
  Mn  Mn5  1  0.69594839  0.53967893  0.35912753  1
  Mn  Mn6  1  0.00389296  0.92552950  0.01344400  1
  Mn  Mn7  1  0.80000566  0.95551525  0.62875805  1
  Mn  Mn8  1  0.20881848  0.05466409  0.39473271  1
  Mn  Mn9  1  0.48499066  0.48017723  0.98939493  1
  Sb  Sb10  1  0.89112229  0.90965078  0.46070377  1
  Sb  Sb11  1  0.11401387  0.98676046  0.54631365  1
  Sb  Sb12  1  0.03505477  0.51905247  0.82575224  1
  Sb  Sb13  1  0.96115729  0.46318011  0.20124714  1
  Sb  Sb14  1  0.40765292  0.58674400  0.45278288  1
  Sb  Sb15  1  0.60050114  0.50871845  0.53164840  1
  Sb  Sb16  1  0.52393340  0.97214932  0.79076032  1
  Sb  Sb17  1  0.47161074  0.00937212  0.17777560  1
  S  S18  1  0.93351119  0.99661284  0.79744060  1
  S  S19  1  0.05956812  0.99032606  0.20011406  1
  S  S20  1  0.40621864  0.98813587  0.96824972  1
  S  S21  1  0.58149153  0.02718299  0.99833809  1
  S  S22  1  0.17210359  0.98056399  0.89743387  1
  S  S23  1  0.83262293  0.00558923  0.11456238  1
  S  S24  1  0.10004560  0.51086905  0.64339519  1
  S  S25  1  0.89140027  0.44253658  0.34414253  1
  S  S26  1  0.73458583  0.99531088  0.31752953  1
  S  S27  1  0.26866243  0.91198678  0.68558824  1
  S  S28  1  0.17164792  0.52365387  0.44739157  1
  S  S29  1  0.81858343  0.50244399  0.54657490  1
  S  S30  1  0.43316802  0.51203066  0.79492621  1
  S  S31  1  0.56786397  0.46615820  0.18980672  1
  S  S32  1  0.91885885  0.49681794  0.99896482  1
  S  S33  1  0.08392075  0.45975018  0.03003662  1
  S  S34  1  0.66693836  0.51560101  0.89521598  1
  S  S35  1  0.33534525  0.46017875  0.11474175  1
  S  S36  1  0.60216039  0.01995593  0.65129468  1
  S  S37  1  0.39975750  0.02596124  0.33886451  1
  S  S38  1  0.24773237  0.52189735  0.32653479  1
  S  S39  1  0.76466961  0.50489964  0.68268875  1
  S  S40  1  0.66493542  0.95226877  0.45750921  1
  S  S41  1  0.32825067  0.92706584  0.54930056  1
