# generated using pymatgen
data_Pr2Mn3(SbS3)4
_symmetry_space_group_name_H-M   'P 1'
_cell_length_a   20.02960800
_cell_length_b   3.90410600
_cell_length_c   14.95364829
_cell_angle_alpha   90.00000000
_cell_angle_beta   126.33350609
_cell_angle_gamma   90.00000000
_symmetry_Int_Tables_number   1
_chemical_formula_structural   Pr2Mn3(SbS3)4
_chemical_formula_sum   'Pr4 Mn6 Sb8 S24'
_cell_volume   942.00006694
_cell_formula_units_Z   2
loop_
 _symmetry_equiv_pos_site_id
 _symmetry_equiv_pos_as_xyz
  1  'x, y, z'
loop_
 _atom_site_type_symbol
 _atom_site_label
 _atom_site_symmetry_multiplicity
 _atom_site_fract_x
 _atom_site_fract_y
 _atom_site_fract_z
 _atom_site_occupancy
  Pr  Pr0  1  0.27017979  0.48060539  0.88505582  1
  Pr  Pr1  1  0.72548996  0.50584802  0.13169413  1
  Pr  Pr2  1  0.76237655  0.05323170  0.87199166  1
  Pr  Pr3  1  0.23499826  0.91580740  0.12753327  1
  Mn  Mn4  1  0.29936616  0.40467326  0.60789674  1
  Mn  Mn5  1  0.69622573  0.53907389  0.35961286  1
  Mn  Mn6  1  0.00412702  0.92643515  0.01377124  1
  Mn  Mn7  1  0.80025047  0.95538744  0.62917317  1
  Mn  Mn8  1  0.20888098  0.05482416  0.39448180  1
  Mn  Mn9  1  0.48499911  0.48081224  0.98947897  1
  Sb  Sb10  1  0.89103645  0.90967219  0.46071916  1
  Sb  Sb11  1  0.11395833  0.98685800  0.54616785  1
  Sb  Sb12  1  0.03517712  0.51946494  0.82581498  1
  Sb  Sb13  1  0.96114342  0.46311047  0.20124850  1
  Sb  Sb14  1  0.40770159  0.58668435  0.45290139  1
  Sb  Sb15  1  0.60041062  0.50844623  0.53142647  1
  Sb  Sb16  1  0.52400341  0.97129887  0.79093711  1
  Sb  Sb17  1  0.47170593  0.00892747  0.17784800  1
  S  S18  1  0.93365813  0.99603395  0.79764239  1
  S  S19  1  0.05970622  0.99026332  0.20030655  1
  S  S20  1  0.40640729  0.98875149  0.96865328  1
  S  S21  1  0.58149250  0.02766028  0.99847917  1
  S  S22  1  0.17219116  0.98001350  0.89777700  1
  S  S23  1  0.83294358  0.00555625  0.11466999  1
  S  S24  1  0.10030874  0.51059833  0.64364431  1
  S  S25  1  0.89143910  0.44359408  0.34402751  1
  S  S26  1  0.73440793  0.99399416  0.31734193  1
  S  S27  1  0.26864536  0.91164060  0.68563986  1
  S  S28  1  0.17152994  0.52416979  0.44748189  1
  S  S29  1  0.81888069  0.50324012  0.54663034  1
  S  S30  1  0.43309922  0.51219286  0.79522388  1
  S  S31  1  0.56775356  0.46555109  0.18992802  1
  S  S32  1  0.91897749  0.49725452  0.99921722  1
  S  S33  1  0.08410571  0.45915397  0.03043130  1
  S  S34  1  0.66695608  0.51520068  0.89539534  1
  S  S35  1  0.33531122  0.45981961  0.11442736  1
  S  S36  1  0.60204382  0.02029019  0.65129583  1
  S  S37  1  0.39994387  0.02467148  0.33924047  1
  S  S38  1  0.24759561  0.52230542  0.32634491  1
  S  S39  1  0.76488520  0.50485426  0.68288280  1
  S  S40  1  0.66477953  0.95209648  0.45726550  1
  S  S41  1  0.32843236  0.92738426  0.54973151  1
