# generated using pymatgen
data_Pr2Mn3(SbS3)4
_symmetry_space_group_name_H-M   'P 1'
_cell_length_a   20.02960800
_cell_length_b   3.90410600
_cell_length_c   14.95364829
_cell_angle_alpha   90.00000000
_cell_angle_beta   126.33350609
_cell_angle_gamma   90.00000000
_symmetry_Int_Tables_number   1
_chemical_formula_structural   Pr2Mn3(SbS3)4
_chemical_formula_sum   'Pr4 Mn6 Sb8 S24'
_cell_volume   942.00006694
_cell_formula_units_Z   2
loop_
 _symmetry_equiv_pos_site_id
 _symmetry_equiv_pos_as_xyz
  1  'x, y, z'
loop_
 _atom_site_type_symbol
 _atom_site_label
 _atom_site_symmetry_multiplicity
 _atom_site_fract_x
 _atom_site_fract_y
 _atom_site_fract_z
 _atom_site_occupancy
  Pr  Pr0  1  0.27026214  0.47989851  0.88517493  1
  Pr  Pr1  1  0.72539186  0.50628705  0.13159481  1
  Pr  Pr2  1  0.76236966  0.05317959  0.87175079  1
  Pr  Pr3  1  0.23510832  0.91542527  0.12765506  1
  Mn  Mn4  1  0.29934536  0.40424567  0.60768154  1
  Mn  Mn5  1  0.69651076  0.53856268  0.36005533  1
  Mn  Mn6  1  0.00435897  0.92723277  0.01393771  1
  Mn  Mn7  1  0.80042950  0.95547269  0.62958131  1
  Mn  Mn8  1  0.20898486  0.05454772  0.39431842  1
  Mn  Mn9  1  0.48507043  0.48152460  0.98958652  1
  Sb  Sb10  1  0.89098755  0.90993816  0.46072332  1
  Sb  Sb11  1  0.11392884  0.98701657  0.54603732  1
  Sb  Sb12  1  0.03525186  0.51980082  0.82580354  1
  Sb  Sb13  1  0.96116603  0.46328116  0.20126739  1
  Sb  Sb14  1  0.40771337  0.58663282  0.45294961  1
  Sb  Sb15  1  0.60038053  0.50812155  0.53125112  1
  Sb  Sb16  1  0.52412251  0.97057503  0.79113735  1
  Sb  Sb17  1  0.47177596  0.00871308  0.17786896  1
  S  S18  1  0.93385473  0.99554739  0.79796601  1
  S  S19  1  0.05990601  0.99020567  0.20054017  1
  S  S20  1  0.40658669  0.98929334  0.96912428  1
  S  S21  1  0.58123227  0.02855844  0.99828789  1
  S  S22  1  0.17229592  0.97951054  0.89822154  1
  S  S23  1  0.83312052  0.00534242  0.11466761  1
  S  S24  1  0.10054822  0.51019399  0.64385966  1
  S  S25  1  0.89144251  0.44485040  0.34378956  1
  S  S26  1  0.73428201  0.99258800  0.31707722  1
  S  S27  1  0.26869620  0.91128125  0.68581606  1
  S  S28  1  0.17128206  0.52498704  0.44738664  1
  S  S29  1  0.81920129  0.50346534  0.54676656  1
  S  S30  1  0.43303251  0.51278514  0.79548916  1
  S  S31  1  0.56773018  0.46472260  0.18996764  1
  S  S32  1  0.91924504  0.49749418  0.99955196  1
  S  S33  1  0.08424923  0.45864662  0.03071020  1
  S  S34  1  0.66702975  0.51479758  0.89557876  1
  S  S35  1  0.33531209  0.45937644  0.11424215  1
  S  S36  1  0.60199737  0.02059958  0.65125233  1
  S  S37  1  0.40024679  0.02369882  0.33956397  1
  S  S38  1  0.24743179  0.52250602  0.32617134  1
  S  S39  1  0.76495725  0.50418900  0.68293079  1
  S  S40  1  0.66460440  0.95169178  0.45691712  1
  S  S41  1  0.32860025  0.92785136  0.55012011  1
