# generated using pymatgen
data_Pr2Mn3(SbS3)4
_symmetry_space_group_name_H-M   'P 1'
_cell_length_a   20.02960800
_cell_length_b   3.90410600
_cell_length_c   14.95364829
_cell_angle_alpha   90.00000000
_cell_angle_beta   126.33350609
_cell_angle_gamma   90.00000000
_symmetry_Int_Tables_number   1
_chemical_formula_structural   Pr2Mn3(SbS3)4
_chemical_formula_sum   'Pr4 Mn6 Sb8 S24'
_cell_volume   942.00006694
_cell_formula_units_Z   2
loop_
 _symmetry_equiv_pos_site_id
 _symmetry_equiv_pos_as_xyz
  1  'x, y, z'
loop_
 _atom_site_type_symbol
 _atom_site_label
 _atom_site_symmetry_multiplicity
 _atom_site_fract_x
 _atom_site_fract_y
 _atom_site_fract_z
 _atom_site_occupancy
  Pr  Pr0  1  0.27034698  0.47907370  0.88526795  1
  Pr  Pr1  1  0.72534915  0.50651446  0.13152466  1
  Pr  Pr2  1  0.76239077  0.05298348  0.87152585  1
  Pr  Pr3  1  0.23520254  0.91505575  0.12780332  1
  Mn  Mn4  1  0.29926454  0.40437547  0.60744066  1
  Mn  Mn5  1  0.69669421  0.53800038  0.36047519  1
  Mn  Mn6  1  0.00463885  0.92816621  0.01415320  1
  Mn  Mn7  1  0.80058208  0.95545145  0.62982047  1
  Mn  Mn8  1  0.20915336  0.05399228  0.39424263  1
  Mn  Mn9  1  0.48516079  0.48215180  0.98969950  1
  Sb  Sb10  1  0.89099354  0.91012183  0.46076733  1
  Sb  Sb11  1  0.11383802  0.98699999  0.54587454  1
  Sb  Sb12  1  0.03529205  0.52006979  0.82578287  1
  Sb  Sb13  1  0.96120774  0.46350806  0.20122692  1
  Sb  Sb14  1  0.40777159  0.58628019  0.45307358  1
  Sb  Sb15  1  0.60034029  0.50804493  0.53104370  1
  Sb  Sb16  1  0.52429589  0.96982376  0.79136516  1
  Sb  Sb17  1  0.47183191  0.00822927  0.17791385  1
  S  S18  1  0.93397047  0.99506872  0.79809959  1
  S  S19  1  0.06005382  0.99028076  0.20064645  1
  S  S20  1  0.40690786  0.99011866  0.96968368  1
  S  S21  1  0.58095483  0.02921578  0.99811619  1
  S  S22  1  0.17238749  0.97891546  0.89858496  1
  S  S23  1  0.83330719  0.00504296  0.11470201  1
  S  S24  1  0.10077200  0.50922771  0.64407581  1
  S  S25  1  0.89143306  0.44586926  0.34357965  1
  S  S26  1  0.73409534  0.99099279  0.31679902  1
  S  S27  1  0.26881485  0.91040804  0.68602881  1
  S  S28  1  0.17109762  0.52614447  0.44745404  1
  S  S29  1  0.81954928  0.50358140  0.54687930  1
  S  S30  1  0.43291733  0.51289188  0.79586334  1
  S  S31  1  0.56767905  0.46361941  0.18997853  1
  S  S32  1  0.91945390  0.49753559  0.99981132  1
  S  S33  1  0.08431903  0.45813979  0.03076842  1
  S  S34  1  0.66717753  0.51448466  0.89573309  1
  S  S35  1  0.33533100  0.45943099  0.11409983  1
  S  S36  1  0.60199255  0.02111730  0.65126593  1
  S  S37  1  0.40062340  0.02279226  0.33993781  1
  S  S38  1  0.24727365  0.52232507  0.32599041  1
  S  S39  1  0.76505181  0.50328978  0.68295398  1
  S  S40  1  0.66444072  0.95109606  0.45653866  1
  S  S41  1  0.32865466  0.92879892  0.55043394  1
