# generated using pymatgen
data_Pr2Mn3(SbS3)4
_symmetry_space_group_name_H-M   'P 1'
_cell_length_a   20.02960800
_cell_length_b   3.90410600
_cell_length_c   14.95364829
_cell_angle_alpha   90.00000000
_cell_angle_beta   126.33350609
_cell_angle_gamma   90.00000000
_symmetry_Int_Tables_number   1
_chemical_formula_structural   Pr2Mn3(SbS3)4
_chemical_formula_sum   'Pr4 Mn6 Sb8 S24'
_cell_volume   942.00006694
_cell_formula_units_Z   2
loop_
 _symmetry_equiv_pos_site_id
 _symmetry_equiv_pos_as_xyz
  1  'x, y, z'
loop_
 _atom_site_type_symbol
 _atom_site_label
 _atom_site_symmetry_multiplicity
 _atom_site_fract_x
 _atom_site_fract_y
 _atom_site_fract_z
 _atom_site_occupancy
  Pr  Pr0  1  0.27042813  0.47830484  0.88539316  1
  Pr  Pr1  1  0.72528263  0.50659682  0.13143227  1
  Pr  Pr2  1  0.76238069  0.05279222  0.87128428  1
  Pr  Pr3  1  0.23527206  0.91473301  0.12796755  1
  Mn  Mn4  1  0.29922407  0.40425610  0.60718430  1
  Mn  Mn5  1  0.69687232  0.53758136  0.36084039  1
  Mn  Mn6  1  0.00482308  0.92871005  0.01431886  1
  Mn  Mn7  1  0.80080543  0.95531279  0.63015278  1
  Mn  Mn8  1  0.20931159  0.05351860  0.39416107  1
  Mn  Mn9  1  0.48520072  0.48227523  0.98972811  1
  Sb  Sb10  1  0.89095634  0.91004512  0.46080270  1
  Sb  Sb11  1  0.11370607  0.98721626  0.54572715  1
  Sb  Sb12  1  0.03535777  0.52012689  0.82574843  1
  Sb  Sb13  1  0.96124548  0.46385246  0.20111576  1
  Sb  Sb14  1  0.40781368  0.58591232  0.45313672  1
  Sb  Sb15  1  0.60028946  0.50787566  0.53087659  1
  Sb  Sb16  1  0.52441759  0.96888132  0.79151200  1
  Sb  Sb17  1  0.47184579  0.00754018  0.17793461  1
  S  S18  1  0.93404418  0.99474280  0.79818232  1
  S  S19  1  0.06014406  0.98981011  0.20063833  1
  S  S20  1  0.40726849  0.99085302  0.97037759  1
  S  S21  1  0.58072187  0.03003440  0.99796851  1
  S  S22  1  0.17252757  0.97847964  0.89900182  1
  S  S23  1  0.83345241  0.00451481  0.11464102  1
  S  S24  1  0.10097582  0.50809913  0.64427916  1
  S  S25  1  0.89146861  0.44670000  0.34343478  1
  S  S26  1  0.73393231  0.98972103  0.31661920  1
  S  S27  1  0.26889499  0.90993016  0.68633960  1
  S  S28  1  0.17089597  0.52764794  0.44745003  1
  S  S29  1  0.81978064  0.50395661  0.54686477  1
  S  S30  1  0.43293457  0.51353575  0.79631074  1
  S  S31  1  0.56775152  0.46255256  0.19010229  1
  S  S32  1  0.91955943  0.49774986  0.99998247  1
  S  S33  1  0.08437869  0.45780141  0.03080591  1
  S  S34  1  0.66731916  0.51465267  0.89595180  1
  S  S35  1  0.33538723  0.45908050  0.11389132  1
  S  S36  1  0.60191808  0.02141732  0.65119258  1
  S  S37  1  0.40091570  0.02162717  0.34018441  1
  S  S38  1  0.24715986  0.52217750  0.32585928  1
  S  S39  1  0.76514301  0.50214271  0.68313540  1
  S  S40  1  0.66430229  0.95065093  0.45613202  1
  S  S41  1  0.32876608  0.92963201  0.55068645  1
