# generated using pymatgen
data_Pr2Mn3(SbS3)4
_symmetry_space_group_name_H-M   'P 1'
_cell_length_a   20.02960800
_cell_length_b   3.90410600
_cell_length_c   14.95364829
_cell_angle_alpha   90.00000000
_cell_angle_beta   126.33350609
_cell_angle_gamma   90.00000000
_symmetry_Int_Tables_number   1
_chemical_formula_structural   Pr2Mn3(SbS3)4
_chemical_formula_sum   'Pr4 Mn6 Sb8 S24'
_cell_volume   942.00006694
_cell_formula_units_Z   2
loop_
 _symmetry_equiv_pos_site_id
 _symmetry_equiv_pos_as_xyz
  1  'x, y, z'
loop_
 _atom_site_type_symbol
 _atom_site_label
 _atom_site_symmetry_multiplicity
 _atom_site_fract_x
 _atom_site_fract_y
 _atom_site_fract_z
 _atom_site_occupancy
  Pr  Pr0  1  0.27062441  0.47770569  0.88554055  1
  Pr  Pr1  1  0.72527589  0.50669865  0.13136037  1
  Pr  Pr2  1  0.76236270  0.05261206  0.87105483  1
  Pr  Pr3  1  0.23536667  0.91450956  0.12812232  1
  Mn  Mn4  1  0.29917818  0.40429332  0.60691257  1
  Mn  Mn5  1  0.69713688  0.53762583  0.36134520  1
  Mn  Mn6  1  0.00504863  0.92977779  0.01460578  1
  Mn  Mn7  1  0.80096754  0.95536437  0.63038534  1
  Mn  Mn8  1  0.20942327  0.05294149  0.39407546  1
  Mn  Mn9  1  0.48525801  0.48253634  0.98989019  1
  Sb  Sb10  1  0.89090034  0.91000614  0.46080637  1
  Sb  Sb11  1  0.11358332  0.98732900  0.54559993  1
  Sb  Sb12  1  0.03542138  0.52025022  0.82571696  1
  Sb  Sb13  1  0.96123175  0.46413813  0.20092651  1
  Sb  Sb14  1  0.40774817  0.58566058  0.45319898  1
  Sb  Sb15  1  0.60027374  0.50745249  0.53074945  1
  Sb  Sb16  1  0.52458014  0.96812248  0.79160413  1
  Sb  Sb17  1  0.47177968  0.00693319  0.17787330  1
  S  S18  1  0.93411532  0.99464683  0.79834280  1
  S  S19  1  0.06017673  0.98988803  0.20052648  1
  S  S20  1  0.40771646  0.99181080  0.97099418  1
  S  S21  1  0.58061910  0.03093400  0.99785975  1
  S  S22  1  0.17260558  0.97800890  0.89941810  1
  S  S23  1  0.83362931  0.00409605  0.11470364  1
  S  S24  1  0.10102025  0.50650166  0.64451129  1
  S  S25  1  0.89160974  0.44775357  0.34339506  1
  S  S26  1  0.73385638  0.98833471  0.31648133  1
  S  S27  1  0.26898810  0.90985714  0.68674533  1
  S  S28  1  0.17092192  0.52817000  0.44756347  1
  S  S29  1  0.81998879  0.50391491  0.54680244  1
  S  S30  1  0.43282993  0.51395189  0.79655796  1
  S  S31  1  0.56788162  0.46138709  0.19038905  1
  S  S32  1  0.91971503  0.49805030  0.00027959  1
  S  S33  1  0.08444399  0.45762030  0.03072633  1
  S  S34  1  0.66747768  0.51434885  0.89625792  1
  S  S35  1  0.33550360  0.45875045  0.11379638  1
  S  S36  1  0.60184368  0.02208750  0.65113601  1
  S  S37  1  0.40119502  0.02075217  0.34042430  1
  S  S38  1  0.24698652  0.52173004  0.32550503  1
  S  S39  1  0.76527156  0.50115722  0.68336074  1
  S  S40  1  0.66405525  0.94984049  0.45550518  1
  S  S41  1  0.32894019  0.93069378  0.55107554  1
