# generated using pymatgen
data_Pr2Mn3(SbS3)4
_symmetry_space_group_name_H-M   'P 1'
_cell_length_a   20.02960800
_cell_length_b   3.90410600
_cell_length_c   14.95364829
_cell_angle_alpha   90.00000000
_cell_angle_beta   126.33350609
_cell_angle_gamma   90.00000000
_symmetry_Int_Tables_number   1
_chemical_formula_structural   Pr2Mn3(SbS3)4
_chemical_formula_sum   'Pr4 Mn6 Sb8 S24'
_cell_volume   942.00006694
_cell_formula_units_Z   2
loop_
 _symmetry_equiv_pos_site_id
 _symmetry_equiv_pos_as_xyz
  1  'x, y, z'
loop_
 _atom_site_type_symbol
 _atom_site_label
 _atom_site_symmetry_multiplicity
 _atom_site_fract_x
 _atom_site_fract_y
 _atom_site_fract_z
 _atom_site_occupancy
  Pr  Pr0  1  0.27078044  0.47695898  0.88566716  1
  Pr  Pr1  1  0.72524337  0.50713523  0.13132852  1
  Pr  Pr2  1  0.76235229  0.05248234  0.87084835  1
  Pr  Pr3  1  0.23543084  0.91424108  0.12825141  1
  Mn  Mn4  1  0.29911471  0.40415427  0.60679984  1
  Mn  Mn5  1  0.69736636  0.53779113  0.36186770  1
  Mn  Mn6  1  0.00523675  0.93039311  0.01482662  1
  Mn  Mn7  1  0.80111337  0.95518402  0.63062285  1
  Mn  Mn8  1  0.20951176  0.05241479  0.39406390  1
  Mn  Mn9  1  0.48527642  0.48308972  0.98994757  1
  Sb  Sb10  1  0.89089997  0.90990902  0.46081540  1
  Sb  Sb11  1  0.11344546  0.98754580  0.54547520  1
  Sb  Sb12  1  0.03544598  0.52028098  0.82570228  1
  Sb  Sb13  1  0.96127810  0.46450480  0.20084859  1
  Sb  Sb14  1  0.40772116  0.58526767  0.45334870  1
  Sb  Sb15  1  0.60030634  0.50715087  0.53070543  1
  Sb  Sb16  1  0.52466229  0.96765124  0.79158356  1
  Sb  Sb17  1  0.47176421  0.00655798  0.17786873  1
  S  S18  1  0.93412881  0.99489229  0.79843151  1
  S  S19  1  0.06015289  0.98935183  0.20055464  1
  S  S20  1  0.40805270  0.99287796  0.97160870  1
  S  S21  1  0.58053043  0.03244776  0.99764416  1
  S  S22  1  0.17259848  0.97746600  0.89976855  1
  S  S23  1  0.83375829  0.00346352  0.11485521  1
  S  S24  1  0.10113134  0.50503321  0.64482606  1
  S  S25  1  0.89175260  0.44882094  0.34345699  1
  S  S26  1  0.73379215  0.98759523  0.31642264  1
  S  S27  1  0.26906266  0.90968363  0.68711692  1
  S  S28  1  0.17103152  0.52878987  0.44774115  1
  S  S29  1  0.82024312  0.50382550  0.54681334  1
  S  S30  1  0.43291189  0.51434010  0.79679861  1
  S  S31  1  0.56802631  0.45972030  0.19077266  1
  S  S32  1  0.91976221  0.49816180  0.00054162  1
  S  S33  1  0.08442827  0.45754552  0.03054171  1
  S  S34  1  0.66759409  0.51369609  0.89656571  1
  S  S35  1  0.33557383  0.45872276  0.11370919  1
  S  S36  1  0.60163603  0.02255245  0.65105970  1
  S  S37  1  0.40142415  0.01982313  0.34055250  1
  S  S38  1  0.24692914  0.52110928  0.32535956  1
  S  S39  1  0.76537229  0.50092483  0.68348335  1
  S  S40  1  0.66385889  0.94924554  0.45494728  1
  S  S41  1  0.32923941  0.93105737  0.55146886  1
