# generated using pymatgen
data_Pr2Mn3(SbS3)4
_symmetry_space_group_name_H-M   'P 1'
_cell_length_a   20.02960800
_cell_length_b   3.90410600
_cell_length_c   14.95364829
_cell_angle_alpha   90.00000000
_cell_angle_beta   126.33350609
_cell_angle_gamma   90.00000000
_symmetry_Int_Tables_number   1
_chemical_formula_structural   Pr2Mn3(SbS3)4
_chemical_formula_sum   'Pr4 Mn6 Sb8 S24'
_cell_volume   942.00006694
_cell_formula_units_Z   2
loop_
 _symmetry_equiv_pos_site_id
 _symmetry_equiv_pos_as_xyz
  1  'x, y, z'
loop_
 _atom_site_type_symbol
 _atom_site_label
 _atom_site_symmetry_multiplicity
 _atom_site_fract_x
 _atom_site_fract_y
 _atom_site_fract_z
 _atom_site_occupancy
  Pr  Pr0  1  0.27092757  0.47660647  0.88583479  1
  Pr  Pr1  1  0.72516732  0.50753890  0.13132496  1
  Pr  Pr2  1  0.76230620  0.05248790  0.87065002  1
  Pr  Pr3  1  0.23543641  0.91414311  0.12831539  1
  Mn  Mn4  1  0.29906092  0.40439301  0.60657726  1
  Mn  Mn5  1  0.69762995  0.53810944  0.36242759  1
  Mn  Mn6  1  0.00536442  0.93069728  0.01503434  1
  Mn  Mn7  1  0.80108560  0.95478770  0.63071817  1
  Mn  Mn8  1  0.20963465  0.05181809  0.39394911  1
  Mn  Mn9  1  0.48531154  0.48381467  0.98999903  1
  Sb  Sb10  1  0.89086289  0.90964724  0.46077993  1
  Sb  Sb11  1  0.11330209  0.98775122  0.54538540  1
  Sb  Sb12  1  0.03545719  0.52046864  0.82566108  1
  Sb  Sb13  1  0.96131486  0.46505028  0.20085549  1
  Sb  Sb14  1  0.40766679  0.58487652  0.45345636  1
  Sb  Sb15  1  0.60036121  0.50684381  0.53065034  1
  Sb  Sb16  1  0.52470919  0.96707401  0.79161391  1
  Sb  Sb17  1  0.47172249  0.00614950  0.17785753  1
  S  S18  1  0.93417220  0.99430039  0.79872671  1
  S  S19  1  0.06020109  0.98870879  0.20075869  1
  S  S20  1  0.40831855  0.99373382  0.97217476  1
  S  S21  1  0.58035328  0.03345055  0.99730091  1
  S  S22  1  0.17255760  0.97716379  0.90013054  1
  S  S23  1  0.83382260  0.00300665  0.11487511  1
  S  S24  1  0.10118070  0.50378303  0.64511250  1
  S  S25  1  0.89190648  0.44987992  0.34346171  1
  S  S26  1  0.73381361  0.98734228  0.31653706  1
  S  S27  1  0.26914187  0.90984745  0.68730890  1
  S  S28  1  0.17107682  0.52945237  0.44779936  1
  S  S29  1  0.82052896  0.50337365  0.54690192  1
  S  S30  1  0.43305491  0.51494030  0.79704174  1
  S  S31  1  0.56819179  0.45777543  0.19131768  1
  S  S32  1  0.91988814  0.49864504  0.00092174  1
  S  S33  1  0.08438109  0.45754124  0.03039943  1
  S  S34  1  0.66773845  0.51323219  0.89686112  1
  S  S35  1  0.33580464  0.45867150  0.11389458  1
  S  S36  1  0.60153238  0.02306197  0.65100960  1
  S  S37  1  0.40163884  0.01841402  0.34057108  1
  S  S38  1  0.24690698  0.52089391  0.32517856  1
  S  S39  1  0.76546254  0.50130350  0.68347035  1
  S  S40  1  0.66376390  0.94834562  0.45445408  1
  S  S41  1  0.32940934  0.93147024  0.55174472  1
