# generated using pymatgen
data_Pr2Mn3(SbS3)4
_symmetry_space_group_name_H-M   'P 1'
_cell_length_a   20.02960800
_cell_length_b   3.90410600
_cell_length_c   14.95364829
_cell_angle_alpha   90.00000000
_cell_angle_beta   126.33350609
_cell_angle_gamma   90.00000000
_symmetry_Int_Tables_number   1
_chemical_formula_structural   Pr2Mn3(SbS3)4
_chemical_formula_sum   'Pr4 Mn6 Sb8 S24'
_cell_volume   942.00006694
_cell_formula_units_Z   2
loop_
 _symmetry_equiv_pos_site_id
 _symmetry_equiv_pos_as_xyz
  1  'x, y, z'
loop_
 _atom_site_type_symbol
 _atom_site_label
 _atom_site_symmetry_multiplicity
 _atom_site_fract_x
 _atom_site_fract_y
 _atom_site_fract_z
 _atom_site_occupancy
  Pr  Pr0  1  0.27100708  0.47597951  0.88592894  1
  Pr  Pr1  1  0.72514535  0.50775147  0.13141129  1
  Pr  Pr2  1  0.76226169  0.05240386  0.87044927  1
  Pr  Pr3  1  0.23543928  0.91409966  0.12830806  1
  Mn  Mn4  1  0.29901510  0.40480890  0.60644002  1
  Mn  Mn5  1  0.69783271  0.53836198  0.36302085  1
  Mn  Mn6  1  0.00550084  0.93070636  0.01529224  1
  Mn  Mn7  1  0.80103825  0.95443236  0.63070182  1
  Mn  Mn8  1  0.20968189  0.05118271  0.39368382  1
  Mn  Mn9  1  0.48522145  0.48457474  0.98989697  1
  Sb  Sb10  1  0.89078400  0.90962929  0.46061053  1
  Sb  Sb11  1  0.11320804  0.98826707  0.54531353  1
  Sb  Sb12  1  0.03553378  0.52090198  0.82568030  1
  Sb  Sb13  1  0.96135136  0.46532881  0.20092095  1
  Sb  Sb14  1  0.40762325  0.58431944  0.45350836  1
  Sb  Sb15  1  0.60040538  0.50669955  0.53057212  1
  Sb  Sb16  1  0.52478225  0.96695853  0.79167494  1
  Sb  Sb17  1  0.47167563  0.00575167  0.17783515  1
  S  S18  1  0.93418073  0.99369225  0.79911473  1
  S  S19  1  0.06014504  0.98778909  0.20086573  1
  S  S20  1  0.40865822  0.99446000  0.97258674  1
  S  S21  1  0.58018533  0.03455241  0.99688112  1
  S  S22  1  0.17240215  0.97752988  0.90026495  1
  S  S23  1  0.83383770  0.00314732  0.11501201  1
  S  S24  1  0.10120239  0.50288481  0.64536739  1
  S  S25  1  0.89197730  0.45009984  0.34331433  1
  S  S26  1  0.73377968  0.98663463  0.31662591  1
  S  S27  1  0.26924362  0.90989879  0.68750499  1
  S  S28  1  0.17107373  0.53023011  0.44762006  1
  S  S29  1  0.82087958  0.50332328  0.54706055  1
  S  S30  1  0.43328840  0.51544280  0.79726524  1
  S  S31  1  0.56820750  0.45593900  0.19151755  1
  S  S32  1  0.92005358  0.49937290  0.00129954  1
  S  S33  1  0.08443273  0.45779279  0.03021912  1
  S  S34  1  0.66791473  0.51293918  0.89714224  1
  S  S35  1  0.33595955  0.45899782  0.11405598  1
  S  S36  1  0.60138090  0.02304413  0.65090616  1
  S  S37  1  0.40188614  0.01762837  0.34063131  1
  S  S38  1  0.24686583  0.52115813  0.32509283  1
  S  S39  1  0.76553272  0.50189448  0.68349253  1
  S  S40  1  0.66370850  0.94712957  0.45392833  1
  S  S41  1  0.32972706  0.93197184  0.55211653  1
