# generated using pymatgen
data_Pr2Mn3(SbS3)4
_symmetry_space_group_name_H-M   'P 1'
_cell_length_a   20.02960800
_cell_length_b   3.90410600
_cell_length_c   14.95364829
_cell_angle_alpha   90.00000000
_cell_angle_beta   126.33350609
_cell_angle_gamma   90.00000000
_symmetry_Int_Tables_number   1
_chemical_formula_structural   Pr2Mn3(SbS3)4
_chemical_formula_sum   'Pr4 Mn6 Sb8 S24'
_cell_volume   942.00006694
_cell_formula_units_Z   2
loop_
 _symmetry_equiv_pos_site_id
 _symmetry_equiv_pos_as_xyz
  1  'x, y, z'
loop_
 _atom_site_type_symbol
 _atom_site_label
 _atom_site_symmetry_multiplicity
 _atom_site_fract_x
 _atom_site_fract_y
 _atom_site_fract_z
 _atom_site_occupancy
  Pr  Pr0  1  0.27116108  0.47512904  0.88606852  1
  Pr  Pr1  1  0.72517121  0.50807122  0.13149881  1
  Pr  Pr2  1  0.76221928  0.05229411  0.87028336  1
  Pr  Pr3  1  0.23547500  0.91406031  0.12831349  1
  Mn  Mn4  1  0.29900204  0.40569667  0.60636264  1
  Mn  Mn5  1  0.69810139  0.53841260  0.36366397  1
  Mn  Mn6  1  0.00562609  0.93061252  0.01552840  1
  Mn  Mn7  1  0.80110846  0.95417522  0.63081914  1
  Mn  Mn8  1  0.20966437  0.05085964  0.39340012  1
  Mn  Mn9  1  0.48513712  0.48536313  0.98981448  1
  Sb  Sb10  1  0.89069287  0.90931568  0.46038137  1
  Sb  Sb11  1  0.11307432  0.98888699  0.54526966  1
  Sb  Sb12  1  0.03556922  0.52140793  0.82571366  1
  Sb  Sb13  1  0.96137489  0.46563408  0.20091475  1
  Sb  Sb14  1  0.40757986  0.58373546  0.45349867  1
  Sb  Sb15  1  0.60043551  0.50679866  0.53048615  1
  Sb  Sb16  1  0.52491355  0.96684250  0.79179365  1
  Sb  Sb17  1  0.47167323  0.00537245  0.17781383  1
  S  S18  1  0.93411028  0.99325174  0.79949465  1
  S  S19  1  0.06009267  0.98667174  0.20108342  1
  S  S20  1  0.40901008  0.99549405  0.97290899  1
  S  S21  1  0.58010182  0.03534563  0.99653251  1
  S  S22  1  0.17223237  0.97784874  0.90036750  1
  S  S23  1  0.83394040  0.00331095  0.11519152  1
  S  S24  1  0.10129851  0.50256138  0.64557829  1
  S  S25  1  0.89201237  0.45037035  0.34306876  1
  S  S26  1  0.73382653  0.98569169  0.31672357  1
  S  S27  1  0.26925240  0.91037110  0.68747355  1
  S  S28  1  0.17117005  0.53148471  0.44739629  1
  S  S29  1  0.82126429  0.50344939  0.54722923  1
  S  S30  1  0.43342949  0.51556108  0.79739609  1
  S  S31  1  0.56829648  0.45416732  0.19162169  1
  S  S32  1  0.92021290  0.49985123  0.00166708  1
  S  S33  1  0.08452055  0.45771330  0.03021109  1
  S  S34  1  0.66804667  0.51310689  0.89735009  1
  S  S35  1  0.33603998  0.45934545  0.11413643  1
  S  S36  1  0.60125728  0.02279310  0.65084384  1
  S  S37  1  0.40201601  0.01725159  0.34060176  1
  S  S38  1  0.24693622  0.52094847  0.32487558  1
  S  S39  1  0.76570918  0.50249476  0.68355033  1
  S  S40  1  0.66363910  0.94568952  0.45347563  1
  S  S41  1  0.33002338  0.93270509  0.55235637  1
