# generated using pymatgen
data_Pr2Mn3(SbS3)4
_symmetry_space_group_name_H-M   'P 1'
_cell_length_a   20.02960800
_cell_length_b   3.90410600
_cell_length_c   14.95364829
_cell_angle_alpha   90.00000000
_cell_angle_beta   126.33350609
_cell_angle_gamma   90.00000000
_symmetry_Int_Tables_number   1
_chemical_formula_structural   Pr2Mn3(SbS3)4
_chemical_formula_sum   'Pr4 Mn6 Sb8 S24'
_cell_volume   942.00006694
_cell_formula_units_Z   2
loop_
 _symmetry_equiv_pos_site_id
 _symmetry_equiv_pos_as_xyz
  1  'x, y, z'
loop_
 _atom_site_type_symbol
 _atom_site_label
 _atom_site_symmetry_multiplicity
 _atom_site_fract_x
 _atom_site_fract_y
 _atom_site_fract_z
 _atom_site_occupancy
  Pr  Pr0  1  0.26472423  0.48013053  0.86961592  1
  Pr  Pr1  1  0.73802156  0.51101864  0.13597027  1
  Pr  Pr2  1  0.76308604  0.00785394  0.86265812  1
  Pr  Pr3  1  0.23629823  0.99714374  0.13900058  1
  Mn  Mn4  1  0.29445641  0.48955857  0.60747763  1
  Mn  Mn5  1  0.69471346  0.52571230  0.37909838  1
  Mn  Mn6  1  0.00422689  0.99925421  0.00128322  1
  Mn  Mn7  1  0.80328742  0.99251177  0.61696700  1
  Mn  Mn8  1  0.19613767  0.97310890  0.37865094  1
  Mn  Mn9  1  0.50247950  0.47243326  0.99494039  1
  Sb  Sb10  1  0.89189468  0.99983698  0.45393753  1
  Sb  Sb11  1  0.11179324  0.96905199  0.55226015  1
  Sb  Sb12  1  0.04043293  0.50866091  0.81688567  1
  Sb  Sb13  1  0.96211512  0.53197237  0.18674355  1
  Sb  Sb14  1  0.39910848  0.50318207  0.45833513  1
  Sb  Sb15  1  0.60586930  0.48528994  0.54741739  1
  Sb  Sb16  1  0.53500057  0.00916757  0.81318779  1
  Sb  Sb17  1  0.46173779  0.00585674  0.18192310  1
  S  S18  1  0.93692462  0.97098153  0.79922209  1
  S  S19  1  0.06573085  0.98274509  0.19133733  1
  S  S20  1  0.40908954  0.01690907  0.97888077  1
  S  S21  1  0.59302980  0.99952449  0.02374306  1
  S  S22  1  0.17285594  0.98470928  0.89631640  1
  S  S23  1  0.82574579  0.01700603  0.09918421  1
  S  S24  1  0.08597875  0.45630642  0.64599095  1
  S  S25  1  0.91359648  0.48664756  0.35991389  1
  S  S26  1  0.74109685  0.95105984  0.29928100  1
  S  S27  1  0.25683171  0.99834858  0.70132095  1
  S  S28  1  0.16739598  0.48730974  0.44664850  1
  S  S29  1  0.82982657  0.47625365  0.55057584  1
  S  S30  1  0.43187792  0.50250132  0.79933863  1
  S  S31  1  0.56202786  0.53057591  0.18933342  1
  S  S32  1  0.90617255  0.49611573  0.98309062  1
  S  S33  1  0.08447854  0.49462502  0.01616978  1
  S  S34  1  0.66477676  0.50523255  0.89170406  1
  S  S35  1  0.32891948  0.52864744  0.09997952  1
  S  S36  1  0.59045382  0.00466432  0.64965584  1
  S  S37  1  0.40841349  0.96235482  0.34957801  1
  S  S38  1  0.24400087  0.47544578  0.30601097  1
  S  S39  1  0.75982190  0.50514452  0.69840812  1
  S  S40  1  0.67338298  0.01302473  0.46121778  1
  S  S41  1  0.32972156  0.98909043  0.54060094  1
