# generated using pymatgen
data_Pr2Mn3(SbS3)4
_symmetry_space_group_name_H-M   'P 1'
_cell_length_a   20.02960800
_cell_length_b   3.90410600
_cell_length_c   14.95364829
_cell_angle_alpha   90.00000000
_cell_angle_beta   126.33350609
_cell_angle_gamma   90.00000000
_symmetry_Int_Tables_number   1
_chemical_formula_structural   Pr2Mn3(SbS3)4
_chemical_formula_sum   'Pr4 Mn6 Sb8 S24'
_cell_volume   942.00006694
_cell_formula_units_Z   2
loop_
 _symmetry_equiv_pos_site_id
 _symmetry_equiv_pos_as_xyz
  1  'x, y, z'
loop_
 _atom_site_type_symbol
 _atom_site_label
 _atom_site_symmetry_multiplicity
 _atom_site_fract_x
 _atom_site_fract_y
 _atom_site_fract_z
 _atom_site_occupancy
  Pr  Pr0  1  0.27128469  0.47440719  0.88614767  1
  Pr  Pr1  1  0.72526195  0.50812202  0.13155635  1
  Pr  Pr2  1  0.76212868  0.05226219  0.87012180  1
  Pr  Pr3  1  0.23545364  0.91413334  0.12830486  1
  Mn  Mn4  1  0.29894363  0.40636296  0.60639288  1
  Mn  Mn5  1  0.69834967  0.53858853  0.36426165  1
  Mn  Mn6  1  0.00580375  0.93022168  0.01580828  1
  Mn  Mn7  1  0.80108671  0.95418062  0.63084612  1
  Mn  Mn8  1  0.20963736  0.05061669  0.39311907  1
  Mn  Mn9  1  0.48509350  0.48612108  0.98981966  1
  Sb  Sb10  1  0.89057999  0.90906898  0.46019955  1
  Sb  Sb11  1  0.11297208  0.98965219  0.54523370  1
  Sb  Sb12  1  0.03557682  0.52194173  0.82573687  1
  Sb  Sb13  1  0.96143079  0.46563079  0.20083103  1
  Sb  Sb14  1  0.40753599  0.58338335  0.45346041  1
  Sb  Sb15  1  0.60043419  0.50687380  0.53032027  1
  Sb  Sb16  1  0.52502947  0.96663990  0.79190932  1
  Sb  Sb17  1  0.47165725  0.00489650  0.17775030  1
  S  S18  1  0.93405355  0.99291390  0.79992388  1
  S  S19  1  0.06003697  0.98583894  0.20120013  1
  S  S20  1  0.40938357  0.99690041  0.97318174  1
  S  S21  1  0.58007732  0.03630046  0.99629033  1
  S  S22  1  0.17209659  0.97821329  0.90042169  1
  S  S23  1  0.83400386  0.00381665  0.11535679  1
  S  S24  1  0.10139521  0.50204158  0.64569554  1
  S  S25  1  0.89209491  0.45050538  0.34287156  1
  S  S26  1  0.73382723  0.98486019  0.31683933  1
  S  S27  1  0.26931381  0.91043996  0.68749667  1
  S  S28  1  0.17124035  0.53216627  0.44711823  1
  S  S29  1  0.82163875  0.50356514  0.54744273  1
  S  S30  1  0.43357903  0.51644502  0.79743213  1
  S  S31  1  0.56827740  0.45288457  0.19148357  1
  S  S32  1  0.92021444  0.50064494  0.00187643  1
  S  S33  1  0.08452490  0.45740106  0.03012551  1
  S  S34  1  0.66804360  0.51394234  0.89738402  1
  S  S35  1  0.33617218  0.45908950  0.11411615  1
  S  S36  1  0.60110004  0.02297703  0.65084597  1
  S  S37  1  0.40205969  0.01707025  0.34060055  1
  S  S38  1  0.24706325  0.52042373  0.32472877  1
  S  S39  1  0.76588430  0.50341101  0.68369939  1
  S  S40  1  0.66352545  0.94448269  0.45302823  1
  S  S41  1  0.33025411  0.93374879  0.55247754  1
