# generated using pymatgen
data_Pr2Mn3(SbS3)4
_symmetry_space_group_name_H-M   'P 1'
_cell_length_a   20.02960800
_cell_length_b   3.90410600
_cell_length_c   14.95364829
_cell_angle_alpha   90.00000000
_cell_angle_beta   126.33350609
_cell_angle_gamma   90.00000000
_symmetry_Int_Tables_number   1
_chemical_formula_structural   Pr2Mn3(SbS3)4
_chemical_formula_sum   'Pr4 Mn6 Sb8 S24'
_cell_volume   942.00006694
_cell_formula_units_Z   2
loop_
 _symmetry_equiv_pos_site_id
 _symmetry_equiv_pos_as_xyz
  1  'x, y, z'
loop_
 _atom_site_type_symbol
 _atom_site_label
 _atom_site_symmetry_multiplicity
 _atom_site_fract_x
 _atom_site_fract_y
 _atom_site_fract_z
 _atom_site_occupancy
  Pr  Pr0  1  0.27136888  0.47366515  0.88612970  1
  Pr  Pr1  1  0.72527561  0.50828136  0.13151136  1
  Pr  Pr2  1  0.76198553  0.05256860  0.86993336  1
  Pr  Pr3  1  0.23547977  0.91422184  0.12832121  1
  Mn  Mn4  1  0.29888047  0.40711002  0.60637928  1
  Mn  Mn5  1  0.69859671  0.53832828  0.36486602  1
  Mn  Mn6  1  0.00597678  0.93033592  0.01601093  1
  Mn  Mn7  1  0.80120546  0.95421450  0.63098596  1
  Mn  Mn8  1  0.20974968  0.05014586  0.39295406  1
  Mn  Mn9  1  0.48499832  0.48686902  0.98976828  1
  Sb  Sb10  1  0.89049386  0.90880749  0.46006513  1
  Sb  Sb11  1  0.11288764  0.99039767  0.54511093  1
  Sb  Sb12  1  0.03562279  0.52244288  0.82569221  1
  Sb  Sb13  1  0.96148991  0.46574410  0.20073345  1
  Sb  Sb14  1  0.40748299  0.58315645  0.45336601  1
  Sb  Sb15  1  0.60044232  0.50704996  0.53017222  1
  Sb  Sb16  1  0.52508728  0.96647358  0.79197735  1
  Sb  Sb17  1  0.47164483  0.00416231  0.17771057  1
  S  S18  1  0.93384539  0.99190859  0.80013521  1
  S  S19  1  0.05995016  0.98512387  0.20128988  1
  S  S20  1  0.40976342  0.99849566  0.97354925  1
  S  S21  1  0.58009000  0.03728377  0.99593187  1
  S  S22  1  0.17195393  0.97833826  0.90042619  1
  S  S23  1  0.83401691  0.00438217  0.11542170  1
  S  S24  1  0.10146809  0.50230571  0.64576151  1
  S  S25  1  0.89213252  0.45000671  0.34271944  1
  S  S26  1  0.73381315  0.98345816  0.31695728  1
  S  S27  1  0.26949469  0.91083388  0.68766796  1
  S  S28  1  0.17139616  0.53294241  0.44681571  1
  S  S29  1  0.82195698  0.50333850  0.54765009  1
  S  S30  1  0.43360565  0.51735036  0.79748906  1
  S  S31  1  0.56830467  0.45229833  0.19137045  1
  S  S32  1  0.92031655  0.50167603  0.00218763  1
  S  S33  1  0.08446030  0.45716079  0.02987580  1
  S  S34  1  0.66810863  0.51532947  0.89742557  1
  S  S35  1  0.33620255  0.45849782  0.11398198  1
  S  S36  1  0.60093781  0.02347599  0.65073060  1
  S  S37  1  0.40213599  0.01658205  0.34052040  1
  S  S38  1  0.24713885  0.52007714  0.32438919  1
  S  S39  1  0.76604083  0.50411511  0.68387894  1
  S  S40  1  0.66346451  0.94361077  0.45272880  1
  S  S41  1  0.33059399  0.93467479  0.55260363  1
