# generated using pymatgen
data_Pr2Mn3(SbS3)4
_symmetry_space_group_name_H-M   'P 1'
_cell_length_a   20.02960800
_cell_length_b   3.90410600
_cell_length_c   14.95364829
_cell_angle_alpha   90.00000000
_cell_angle_beta   126.33350609
_cell_angle_gamma   90.00000000
_symmetry_Int_Tables_number   1
_chemical_formula_structural   Pr2Mn3(SbS3)4
_chemical_formula_sum   'Pr4 Mn6 Sb8 S24'
_cell_volume   942.00006694
_cell_formula_units_Z   2
loop_
 _symmetry_equiv_pos_site_id
 _symmetry_equiv_pos_as_xyz
  1  'x, y, z'
loop_
 _atom_site_type_symbol
 _atom_site_label
 _atom_site_symmetry_multiplicity
 _atom_site_fract_x
 _atom_site_fract_y
 _atom_site_fract_z
 _atom_site_occupancy
  Pr  Pr0  1  0.27146035  0.47274136  0.88616182  1
  Pr  Pr1  1  0.72527107  0.50859917  0.13148370  1
  Pr  Pr2  1  0.76185528  0.05285462  0.86973910  1
  Pr  Pr3  1  0.23553891  0.91436728  0.12835488  1
  Mn  Mn4  1  0.29889099  0.40792322  0.60646745  1
  Mn  Mn5  1  0.69880064  0.53842323  0.36537985  1
  Mn  Mn6  1  0.00604074  0.93050811  0.01617541  1
  Mn  Mn7  1  0.80125491  0.95438925  0.63118782  1
  Mn  Mn8  1  0.20985493  0.04951055  0.39285096  1
  Mn  Mn9  1  0.48487008  0.48727808  0.98957694  1
  Sb  Sb10  1  0.89044360  0.90859790  0.46000213  1
  Sb  Sb11  1  0.11277622  0.99110754  0.54492783  1
  Sb  Sb12  1  0.03562424  0.52271105  0.82565235  1
  Sb  Sb13  1  0.96148388  0.46589720  0.20058282  1
  Sb  Sb14  1  0.40735025  0.58273834  0.45318991  1
  Sb  Sb15  1  0.60040545  0.50739289  0.53003233  1
  Sb  Sb16  1  0.52518897  0.96608719  0.79204498  1
  Sb  Sb17  1  0.47156142  0.00328924  0.17765778  1
  S  S18  1  0.93349968  0.99179633  0.80019393  1
  S  S19  1  0.05979537  0.98481946  0.20124502  1
  S  S20  1  0.41026671  0.99969906  0.97402029  1
  S  S21  1  0.58003109  0.03778254  0.99554667  1
  S  S22  1  0.17185565  0.97838970  0.90044387  1
  S  S23  1  0.83385858  0.00523087  0.11536702  1
  S  S24  1  0.10160021  0.50257973  0.64589806  1
  S  S25  1  0.89215889  0.44920747  0.34266025  1
  S  S26  1  0.73373197  0.98212701  0.31712770  1
  S  S27  1  0.26960267  0.91175163  0.68778552  1
  S  S28  1  0.17164556  0.53370723  0.44664792  1
  S  S29  1  0.82230190  0.50296497  0.54778587  1
  S  S30  1  0.43351056  0.51821603  0.79741303  1
  S  S31  1  0.56829934  0.45152387  0.19125501  1
  S  S32  1  0.92039048  0.50276084  0.00261581  1
  S  S33  1  0.08433536  0.45681458  0.02962257  1
  S  S34  1  0.66819411  0.51593905  0.89752626  1
  S  S35  1  0.33620178  0.45800849  0.11382580  1
  S  S36  1  0.60085487  0.02370121  0.65077791  1
  S  S37  1  0.40220713  0.01621760  0.34036561  1
  S  S38  1  0.24725477  0.51942658  0.32416371  1
  S  S39  1  0.76610730  0.50480230  0.68403507  1
  S  S40  1  0.66337385  0.94265441  0.45248492  1
  S  S41  1  0.33095512  0.93594158  0.55272682  1
