# generated using pymatgen
data_Pr2Mn3(SbS3)4
_symmetry_space_group_name_H-M   'P 1'
_cell_length_a   20.02960800
_cell_length_b   3.90410600
_cell_length_c   14.95364829
_cell_angle_alpha   90.00000000
_cell_angle_beta   126.33350609
_cell_angle_gamma   90.00000000
_symmetry_Int_Tables_number   1
_chemical_formula_structural   Pr2Mn3(SbS3)4
_chemical_formula_sum   'Pr4 Mn6 Sb8 S24'
_cell_volume   942.00006694
_cell_formula_units_Z   2
loop_
 _symmetry_equiv_pos_site_id
 _symmetry_equiv_pos_as_xyz
  1  'x, y, z'
loop_
 _atom_site_type_symbol
 _atom_site_label
 _atom_site_symmetry_multiplicity
 _atom_site_fract_x
 _atom_site_fract_y
 _atom_site_fract_z
 _atom_site_occupancy
  Pr  Pr0  1  0.27154671  0.47208871  0.88621805  1
  Pr  Pr1  1  0.72522529  0.50896317  0.13143289  1
  Pr  Pr2  1  0.76176438  0.05314891  0.86958739  1
  Pr  Pr3  1  0.23554963  0.91436502  0.12836977  1
  Mn  Mn4  1  0.29886540  0.40832966  0.60658127  1
  Mn  Mn5  1  0.69898404  0.53840521  0.36581163  1
  Mn  Mn6  1  0.00611663  0.93054749  0.01635285  1
  Mn  Mn7  1  0.80133552  0.95473979  0.63144231  1
  Mn  Mn8  1  0.20995472  0.04877517  0.39274067  1
  Mn  Mn9  1  0.48467006  0.48809512  0.98932230  1
  Sb  Sb10  1  0.89038229  0.90851843  0.45988231  1
  Sb  Sb11  1  0.11270083  0.99204334  0.54479773  1
  Sb  Sb12  1  0.03560070  0.52308001  0.82560072  1
  Sb  Sb13  1  0.96147587  0.46621036  0.20043687  1
  Sb  Sb14  1  0.40720765  0.58202308  0.45305866  1
  Sb  Sb15  1  0.60039228  0.50770815  0.52994116  1
  Sb  Sb16  1  0.52529383  0.96587019  0.79213106  1
  Sb  Sb17  1  0.47148515  0.00246096  0.17767579  1
  S  S18  1  0.93309288  0.99188932  0.80014005  1
  S  S19  1  0.05973139  0.98520155  0.20122560  1
  S  S20  1  0.41077309  0.00052040  0.97448857  1
  S  S21  1  0.58003582  0.03819976  0.99529851  1
  S  S22  1  0.17169414  0.97801834  0.90037698  1
  S  S23  1  0.83373893  0.00567824  0.11541252  1
  S  S24  1  0.10177932  0.50338683  0.64602297  1
  S  S25  1  0.89231887  0.44842660  0.34265546  1
  S  S26  1  0.73364775  0.98096383  0.31714044  1
  S  S27  1  0.26959417  0.91302203  0.68782254  1
  S  S28  1  0.17187193  0.53390696  0.44646799  1
  S  S29  1  0.82266587  0.50248546  0.54811138  1
  S  S30  1  0.43345645  0.51842326  0.79730200  1
  S  S31  1  0.56829339  0.45100347  0.19115710  1
  S  S32  1  0.92048252  0.50455648  0.00291049  1
  S  S33  1  0.08425904  0.45620200  0.02949756  1
  S  S34  1  0.66829489  0.51666781  0.89758749  1
  S  S35  1  0.33621392  0.45740735  0.11368507  1
  S  S36  1  0.60070574  0.02409110  0.65076708  1
  S  S37  1  0.40219800  0.01592713  0.34040226  1
  S  S38  1  0.24728760  0.51898877  0.32397421  1
  S  S39  1  0.76609321  0.50548207  0.68411648  1
  S  S40  1  0.66323099  0.94169933  0.45222130  1
  S  S41  1  0.33127013  0.93746615  0.55289608  1
