# generated using pymatgen
data_Pr2Mn3(SbS3)4
_symmetry_space_group_name_H-M   'P 1'
_cell_length_a   20.02960800
_cell_length_b   3.90410600
_cell_length_c   14.95364829
_cell_angle_alpha   90.00000000
_cell_angle_beta   126.33350609
_cell_angle_gamma   90.00000000
_symmetry_Int_Tables_number   1
_chemical_formula_structural   Pr2Mn3(SbS3)4
_chemical_formula_sum   'Pr4 Mn6 Sb8 S24'
_cell_volume   942.00006694
_cell_formula_units_Z   2
loop_
 _symmetry_equiv_pos_site_id
 _symmetry_equiv_pos_as_xyz
  1  'x, y, z'
loop_
 _atom_site_type_symbol
 _atom_site_label
 _atom_site_symmetry_multiplicity
 _atom_site_fract_x
 _atom_site_fract_y
 _atom_site_fract_z
 _atom_site_occupancy
  Pr  Pr0  1  0.27158669  0.47129188  0.88613742  1
  Pr  Pr1  1  0.72517421  0.50940070  0.13132408  1
  Pr  Pr2  1  0.76169706  0.05325000  0.86946482  1
  Pr  Pr3  1  0.23555396  0.91415364  0.12832918  1
  Mn  Mn4  1  0.29879465  0.40877323  0.60665217  1
  Mn  Mn5  1  0.69907548  0.53827853  0.36614877  1
  Mn  Mn6  1  0.00616193  0.93081511  0.01651403  1
  Mn  Mn7  1  0.80146618  0.95483391  0.63180060  1
  Mn  Mn8  1  0.21009516  0.04793097  0.39275396  1
  Mn  Mn9  1  0.48455712  0.48899160  0.98904949  1
  Sb  Sb10  1  0.89029419  0.90841875  0.45980818  1
  Sb  Sb11  1  0.11265649  0.99286030  0.54463521  1
  Sb  Sb12  1  0.03561122  0.52342939  0.82556181  1
  Sb  Sb13  1  0.96149865  0.46658984  0.20033484  1
  Sb  Sb14  1  0.40710899  0.58132533  0.45292821  1
  Sb  Sb15  1  0.60036771  0.50790127  0.52982098  1
  Sb  Sb16  1  0.52532482  0.96548967  0.79216205  1
  Sb  Sb17  1  0.47141000  0.00147917  0.17772680  1
  S  S18  1  0.93272846  0.99196245  0.80013306  1
  S  S19  1  0.05961476  0.98561038  0.20124224  1
  S  S20  1  0.41122927  0.00165673  0.97501173  1
  S  S21  1  0.58002917  0.03903060  0.99525328  1
  S  S22  1  0.17153484  0.97785464  0.90020642  1
  S  S23  1  0.83351688  0.00564968  0.11534313  1
  S  S24  1  0.10205139  0.50425300  0.64627270  1
  S  S25  1  0.89257223  0.44802716  0.34272370  1
  S  S26  1  0.73344143  0.97928596  0.31704651  1
  S  S27  1  0.26961327  0.91396773  0.68796781  1
  S  S28  1  0.17206247  0.53380513  0.44618615  1
  S  S29  1  0.82289850  0.50193740  0.54827475  1
  S  S30  1  0.43342071  0.51832717  0.79716415  1
  S  S31  1  0.56823062  0.45073740  0.19104566  1
  S  S32  1  0.92052232  0.50608148  0.00326242  1
  S  S33  1  0.08422423  0.45559064  0.02944075  1
  S  S34  1  0.66828851  0.51620414  0.89757676  1
  S  S35  1  0.33616284  0.45673512  0.11335151  1
  S  S36  1  0.60058603  0.02431088  0.65081285  1
  S  S37  1  0.40216491  0.01565295  0.34040360  1
  S  S38  1  0.24723597  0.51936821  0.32362908  1
  S  S39  1  0.76594634  0.50591205  0.68415484  1
  S  S40  1  0.66311612  0.94063093  0.45183791  1
  S  S41  1  0.33150293  0.93856336  0.55312220  1
