# generated using pymatgen
data_Pr2Mn3(SbS3)4
_symmetry_space_group_name_H-M   'P 1'
_cell_length_a   20.02960800
_cell_length_b   3.90410600
_cell_length_c   14.95364829
_cell_angle_alpha   90.00000000
_cell_angle_beta   126.33350609
_cell_angle_gamma   90.00000000
_symmetry_Int_Tables_number   1
_chemical_formula_structural   Pr2Mn3(SbS3)4
_chemical_formula_sum   'Pr4 Mn6 Sb8 S24'
_cell_volume   942.00006694
_cell_formula_units_Z   2
loop_
 _symmetry_equiv_pos_site_id
 _symmetry_equiv_pos_as_xyz
  1  'x, y, z'
loop_
 _atom_site_type_symbol
 _atom_site_label
 _atom_site_symmetry_multiplicity
 _atom_site_fract_x
 _atom_site_fract_y
 _atom_site_fract_z
 _atom_site_occupancy
  Pr  Pr0  1  0.27161871  0.47048399  0.88605791  1
  Pr  Pr1  1  0.72509466  0.50971710  0.13116104  1
  Pr  Pr2  1  0.76168120  0.05327891  0.86937624  1
  Pr  Pr3  1  0.23553277  0.91353420  0.12832540  1
  Mn  Mn4  1  0.29870574  0.40925448  0.60669566  1
  Mn  Mn5  1  0.69910762  0.53825975  0.36645340  1
  Mn  Mn6  1  0.00613576  0.93162651  0.01649976  1
  Mn  Mn7  1  0.80161179  0.95490712  0.63211631  1
  Mn  Mn8  1  0.21016185  0.04741452  0.39279290  1
  Mn  Mn9  1  0.48451897  0.48998633  0.98875916  1
  Sb  Sb10  1  0.89020901  0.90818335  0.45978965  1
  Sb  Sb11  1  0.11262815  0.99344274  0.54440684  1
  Sb  Sb12  1  0.03562562  0.52376401  0.82546322  1
  Sb  Sb13  1  0.96157061  0.46671664  0.20026768  1
  Sb  Sb14  1  0.40702567  0.58076498  0.45278977  1
  Sb  Sb15  1  0.60035899  0.50801361  0.52966064  1
  Sb  Sb16  1  0.52532492  0.96488810  0.79212713  1
  Sb  Sb17  1  0.47136373  0.00064747  0.17787627  1
  S  S18  1  0.93244170  0.99168726  0.80029212  1
  S  S19  1  0.05934543  0.98609518  0.20111185  1
  S  S20  1  0.41178297  0.00298616  0.97559938  1
  S  S21  1  0.57995743  0.04023980  0.99527062  1
  S  S22  1  0.17144779  0.97754084  0.90010130  1
  S  S23  1  0.83333107  0.00524887  0.11529416  1
  S  S24  1  0.10216909  0.50488603  0.64620967  1
  S  S25  1  0.89281605  0.44802477  0.34280005  1
  S  S26  1  0.73321543  0.97776107  0.31682121  1
  S  S27  1  0.26966039  0.91454725  0.68824492  1
  S  S28  1  0.17238687  0.53394645  0.44608106  1
  S  S29  1  0.82310601  0.50160244  0.54840051  1
  S  S30  1  0.43334582  0.51816763  0.79709073  1
  S  S31  1  0.56811994  0.45093409  0.19090439  1
  S  S32  1  0.92043596  0.50724227  0.00351525  1
  S  S33  1  0.08421362  0.45503435  0.02924477  1
  S  S34  1  0.66833960  0.51609735  0.89761016  1
  S  S35  1  0.33609716  0.45619648  0.11307378  1
  S  S36  1  0.60049886  0.02419677  0.65086084  1
  S  S37  1  0.40200650  0.01568506  0.34043493  1
  S  S38  1  0.24722340  0.51959519  0.32327552  1
  S  S39  1  0.76583919  0.50639757  0.68410190  1
  S  S40  1  0.66302391  0.93977881  0.45150361  1
  S  S41  1  0.33165994  0.93982066  0.55332720  1
