# generated using pymatgen
data_Pr2Mn3(SbS3)4
_symmetry_space_group_name_H-M   'P 1'
_cell_length_a   20.02960800
_cell_length_b   3.90410600
_cell_length_c   14.95364829
_cell_angle_alpha   90.00000000
_cell_angle_beta   126.33350609
_cell_angle_gamma   90.00000000
_symmetry_Int_Tables_number   1
_chemical_formula_structural   Pr2Mn3(SbS3)4
_chemical_formula_sum   'Pr4 Mn6 Sb8 S24'
_cell_volume   942.00006694
_cell_formula_units_Z   2
loop_
 _symmetry_equiv_pos_site_id
 _symmetry_equiv_pos_as_xyz
  1  'x, y, z'
loop_
 _atom_site_type_symbol
 _atom_site_label
 _atom_site_symmetry_multiplicity
 _atom_site_fract_x
 _atom_site_fract_y
 _atom_site_fract_z
 _atom_site_occupancy
  Pr  Pr0  1  0.27166816  0.46978955  0.88596761  1
  Pr  Pr1  1  0.72501367  0.51006914  0.13104250  1
  Pr  Pr2  1  0.76161043  0.05333812  0.86924060  1
  Pr  Pr3  1  0.23544457  0.91287430  0.12827939  1
  Mn  Mn4  1  0.29865026  0.40943804  0.60679492  1
  Mn  Mn5  1  0.69910450  0.53812076  0.36669143  1
  Mn  Mn6  1  0.00622215  0.93275251  0.01661663  1
  Mn  Mn7  1  0.80179582  0.95498433  0.63244604  1
  Mn  Mn8  1  0.21035998  0.04705748  0.39289547  1
  Mn  Mn9  1  0.48450717  0.49084575  0.98854566  1
  Sb  Sb10  1  0.89008961  0.90786545  0.45978231  1
  Sb  Sb11  1  0.11259962  0.99379732  0.54420299  1
  Sb  Sb12  1  0.03567034  0.52395083  0.82544347  1
  Sb  Sb13  1  0.96165808  0.46690319  0.20020658  1
  Sb  Sb14  1  0.40691879  0.58035578  0.45269757  1
  Sb  Sb15  1  0.60036716  0.50813553  0.52950549  1
  Sb  Sb16  1  0.52534699  0.96427965  0.79209992  1
  Sb  Sb17  1  0.47134057  0.99974331  0.17804948  1
  S  S18  1  0.93226667  0.99185347  0.80055778  1
  S  S19  1  0.05920899  0.98667597  0.20121765  1
  S  S20  1  0.41220052  0.00381368  0.97617425  1
  S  S21  1  0.57983563  0.04161124  0.99513565  1
  S  S22  1  0.17147231  0.97717199  0.90004881  1
  S  S23  1  0.83318318  0.00467414  0.11518052  1
  S  S24  1  0.10215824  0.50548728  0.64609969  1
  S  S25  1  0.89301530  0.44787755  0.34281445  1
  S  S26  1  0.73308463  0.97660653  0.31651935  1
  S  S27  1  0.26962977  0.91526926  0.68846375  1
  S  S28  1  0.17275607  0.53342386  0.44601999  1
  S  S29  1  0.82320692  0.50183734  0.54839701  1
  S  S30  1  0.43321171  0.51815025  0.79693068  1
  S  S31  1  0.56812974  0.45163823  0.19083340  1
  S  S32  1  0.92040571  0.50821691  0.00384282  1
  S  S33  1  0.08413083  0.45456406  0.02885601  1
  S  S34  1  0.66840919  0.51558090  0.89770014  1
  S  S35  1  0.33605096  0.45527389  0.11273398  1
  S  S36  1  0.60041111  0.02413676  0.65093404  1
  S  S37  1  0.40186719  0.01620291  0.34045903  1
  S  S38  1  0.24724677  0.51983132  0.32310008  1
  S  S39  1  0.76570225  0.50709033  0.68391034  1
  S  S40  1  0.66300937  0.93898139  0.45131467  1
  S  S41  1  0.33171784  0.94094950  0.55335100  1
