# generated using pymatgen
data_Pr2Mn3(SbS3)4
_symmetry_space_group_name_H-M   'P 1'
_cell_length_a   20.02960800
_cell_length_b   3.90410600
_cell_length_c   14.95364829
_cell_angle_alpha   90.00000000
_cell_angle_beta   126.33350609
_cell_angle_gamma   90.00000000
_symmetry_Int_Tables_number   1
_chemical_formula_structural   Pr2Mn3(SbS3)4
_chemical_formula_sum   'Pr4 Mn6 Sb8 S24'
_cell_volume   942.00006694
_cell_formula_units_Z   2
loop_
 _symmetry_equiv_pos_site_id
 _symmetry_equiv_pos_as_xyz
  1  'x, y, z'
loop_
 _atom_site_type_symbol
 _atom_site_label
 _atom_site_symmetry_multiplicity
 _atom_site_fract_x
 _atom_site_fract_y
 _atom_site_fract_z
 _atom_site_occupancy
  Pr  Pr0  1  0.27172325  0.46913679  0.88592234  1
  Pr  Pr1  1  0.72488038  0.51039557  0.13084881  1
  Pr  Pr2  1  0.76158267  0.05343304  0.86914896  1
  Pr  Pr3  1  0.23539025  0.91234169  0.12824582  1
  Mn  Mn4  1  0.29867135  0.40949469  0.60703024  1
  Mn  Mn5  1  0.69908682  0.53764237  0.36688909  1
  Mn  Mn6  1  0.00637098  0.93373332  0.01675610  1
  Mn  Mn7  1  0.80191654  0.95498583  0.63272301  1
  Mn  Mn8  1  0.21057262  0.04700860  0.39302999  1
  Mn  Mn9  1  0.48451948  0.49188532  0.98832233  1
  Sb  Sb10  1  0.89003950  0.90757227  0.45982324  1
  Sb  Sb11  1  0.11254158  0.99406363  0.54401951  1
  Sb  Sb12  1  0.03571527  0.52400428  0.82542247  1
  Sb  Sb13  1  0.96175736  0.46699632  0.20018474  1
  Sb  Sb14  1  0.40687106  0.57996292  0.45268551  1
  Sb  Sb15  1  0.60044353  0.50841677  0.52934760  1
  Sb  Sb16  1  0.52535671  0.96367964  0.79208717  1
  Sb  Sb17  1  0.47132983  0.99881127  0.17825407  1
  S  S18  1  0.93222105  0.99207106  0.80096825  1
  S  S19  1  0.05906322  0.98637114  0.20133564  1
  S  S20  1  0.41252466  0.00507909  0.97661121  1
  S  S21  1  0.57993492  0.04244045  0.99523409  1
  S  S22  1  0.17154451  0.97668560  0.90016889  1
  S  S23  1  0.83304744  0.00429504  0.11504836  1
  S  S24  1  0.10228689  0.50607510  0.64619859  1
  S  S25  1  0.89312854  0.44756224  0.34276230  1
  S  S26  1  0.73301789  0.97524609  0.31604029  1
  S  S27  1  0.26957241  0.91613018  0.68864404  1
  S  S28  1  0.17302954  0.53303479  0.44586480  1
  S  S29  1  0.82335265  0.50206691  0.54846983  1
  S  S30  1  0.43311509  0.51801213  0.79669842  1
  S  S31  1  0.56820069  0.45202602  0.19084720  1
  S  S32  1  0.92034314  0.50929163  0.00420382  1
  S  S33  1  0.08401484  0.45400896  0.02859629  1
  S  S34  1  0.66852862  0.51501800  0.89776024  1
  S  S35  1  0.33593814  0.45453324  0.11250350  1
  S  S36  1  0.60037963  0.02423912  0.65102918  1
  S  S37  1  0.40178241  0.01678074  0.34053525  1
  S  S38  1  0.24724772  0.51972623  0.32301659  1
  S  S39  1  0.76551828  0.50753574  0.68370971  1
  S  S40  1  0.66300505  0.93813392  0.45117615  1
  S  S41  1  0.33171749  0.94176025  0.55326581  1
