# generated using pymatgen
data_Pr2Mn3(SbS3)4
_symmetry_space_group_name_H-M   'P 1'
_cell_length_a   20.02960800
_cell_length_b   3.90410600
_cell_length_c   14.95364829
_cell_angle_alpha   90.00000000
_cell_angle_beta   126.33350609
_cell_angle_gamma   90.00000000
_symmetry_Int_Tables_number   1
_chemical_formula_structural   Pr2Mn3(SbS3)4
_chemical_formula_sum   'Pr4 Mn6 Sb8 S24'
_cell_volume   942.00006694
_cell_formula_units_Z   2
loop_
 _symmetry_equiv_pos_site_id
 _symmetry_equiv_pos_as_xyz
  1  'x, y, z'
loop_
 _atom_site_type_symbol
 _atom_site_label
 _atom_site_symmetry_multiplicity
 _atom_site_fract_x
 _atom_site_fract_y
 _atom_site_fract_z
 _atom_site_occupancy
  Pr  Pr0  1  0.27168034  0.46841541  0.88579625  1
  Pr  Pr1  1  0.72478703  0.51074190  0.13069721  1
  Pr  Pr2  1  0.76157199  0.05349235  0.86908588  1
  Pr  Pr3  1  0.23532350  0.91198036  0.12816939  1
  Mn  Mn4  1  0.29877251  0.40931275  0.60738696  1
  Mn  Mn5  1  0.69905957  0.53730895  0.36705416  1
  Mn  Mn6  1  0.00651173  0.93478338  0.01680043  1
  Mn  Mn7  1  0.80210708  0.95486944  0.63304906  1
  Mn  Mn8  1  0.21074508  0.04687361  0.39329949  1
  Mn  Mn9  1  0.48449844  0.49264613  0.98806713  1
  Sb  Sb10  1  0.89001343  0.90779316  0.45992202  1
  Sb  Sb11  1  0.11253446  0.99431258  0.54394048  1
  Sb  Sb12  1  0.03574681  0.52399933  0.82547197  1
  Sb  Sb13  1  0.96185556  0.46684325  0.20014554  1
  Sb  Sb14  1  0.40687794  0.57949809  0.45269404  1
  Sb  Sb15  1  0.60052199  0.50876161  0.52920026  1
  Sb  Sb16  1  0.52539482  0.96291393  0.79206782  1
  Sb  Sb17  1  0.47137079  0.99799762  0.17845785  1
  S  S18  1  0.93214781  0.99314497  0.80131685  1
  S  S19  1  0.05889489  0.98571296  0.20129601  1
  S  S20  1  0.41283729  0.00668969  0.97701126  1
  S  S21  1  0.58007838  0.04325460  0.99534191  1
  S  S22  1  0.17160536  0.97599040  0.90037067  1
  S  S23  1  0.83294839  0.00416247  0.11484154  1
  S  S24  1  0.10248120  0.50698974  0.64640370  1
  S  S25  1  0.89309491  0.44725957  0.34267080  1
  S  S26  1  0.73295716  0.97415241  0.31556037  1
  S  S27  1  0.26944021  0.91710896  0.68864974  1
  S  S28  1  0.17340462  0.53255596  0.44585271  1
  S  S29  1  0.82348069  0.50225514  0.54849801  1
  S  S30  1  0.43296995  0.51774641  0.79645298  1
  S  S31  1  0.56839155  0.45229335  0.19103199  1
  S  S32  1  0.92031791  0.51000842  0.00440063  1
  S  S33  1  0.08390029  0.45339513  0.02847499  1
  S  S34  1  0.66865373  0.51451727  0.89792305  1
  S  S35  1  0.33580159  0.45390634  0.11232451  1
  S  S36  1  0.60037457  0.02479324  0.65112073  1
  S  S37  1  0.40186479  0.01787838  0.34074309  1
  S  S38  1  0.24719994  0.51957738  0.32278842  1
  S  S39  1  0.76530550  0.50793275  0.68350866  1
  S  S40  1  0.66298059  0.93760280  0.45107745  1
  S  S41  1  0.33178942  0.94270259  0.55300702  1
