# generated using pymatgen
data_Pr2Mn3(SbS3)4
_symmetry_space_group_name_H-M   'P 1'
_cell_length_a   20.02960800
_cell_length_b   3.90410600
_cell_length_c   14.95364829
_cell_angle_alpha   90.00000000
_cell_angle_beta   126.33350609
_cell_angle_gamma   90.00000000
_symmetry_Int_Tables_number   1
_chemical_formula_structural   Pr2Mn3(SbS3)4
_chemical_formula_sum   'Pr4 Mn6 Sb8 S24'
_cell_volume   942.00006694
_cell_formula_units_Z   2
loop_
 _symmetry_equiv_pos_site_id
 _symmetry_equiv_pos_as_xyz
  1  'x, y, z'
loop_
 _atom_site_type_symbol
 _atom_site_label
 _atom_site_symmetry_multiplicity
 _atom_site_fract_x
 _atom_site_fract_y
 _atom_site_fract_z
 _atom_site_occupancy
  Pr  Pr0  1  0.27170222  0.46774869  0.88576590  1
  Pr  Pr1  1  0.72470592  0.51115535  0.13059158  1
  Pr  Pr2  1  0.76155731  0.05346726  0.86902593  1
  Pr  Pr3  1  0.23532292  0.91161661  0.12816873  1
  Mn  Mn4  1  0.29884155  0.40910337  0.60761375  1
  Mn  Mn5  1  0.69901884  0.53702468  0.36707852  1
  Mn  Mn6  1  0.00669707  0.93588864  0.01690708  1
  Mn  Mn7  1  0.80226599  0.95485906  0.63327142  1
  Mn  Mn8  1  0.21095422  0.04662951  0.39354260  1
  Mn  Mn9  1  0.48454233  0.49333389  0.98784276  1
  Sb  Sb10  1  0.88995456  0.90814565  0.45997816  1
  Sb  Sb11  1  0.11261499  0.99451776  0.54398876  1
  Sb  Sb12  1  0.03576675  0.52409795  0.82552201  1
  Sb  Sb13  1  0.96199578  0.46676551  0.20019733  1
  Sb  Sb14  1  0.40691140  0.57897272  0.45265598  1
  Sb  Sb15  1  0.60063613  0.50903071  0.52905345  1
  Sb  Sb16  1  0.52554913  0.96226951  0.79208924  1
  Sb  Sb17  1  0.47139404  0.99737959  0.17845933  1
  S  S18  1  0.93195479  0.99366238  0.80150976  1
  S  S19  1  0.05866151  0.98536552  0.20120113  1
  S  S20  1  0.41306686  0.00835673  0.97741022  1
  S  S21  1  0.58016823  0.04408001  0.99543105  1
  S  S22  1  0.17158897  0.97444608  0.90042737  1
  S  S23  1  0.83283995  0.00381261  0.11464877  1
  S  S24  1  0.10260140  0.50780044  0.64644562  1
  S  S25  1  0.89306967  0.44673709  0.34253943  1
  S  S26  1  0.73291443  0.97268094  0.31516050  1
  S  S27  1  0.26929900  0.91773458  0.68867634  1
  S  S28  1  0.17372151  0.53246841  0.44578757  1
  S  S29  1  0.82372319  0.50254111  0.54874681  1
  S  S30  1  0.43289495  0.51718215  0.79630706  1
  S  S31  1  0.56853578  0.45250872  0.19117667  1
  S  S32  1  0.92024069  0.51045097  0.00449784  1
  S  S33  1  0.08373678  0.45294583  0.02830352  1
  S  S34  1  0.66886032  0.51459914  0.89825534  1
  S  S35  1  0.33555098  0.45340964  0.11200139  1
  S  S36  1  0.60040573  0.02476344  0.65120654  1
  S  S37  1  0.40189616  0.01839583  0.34079764  1
  S  S38  1  0.24720224  0.51934459  0.32255792  1
  S  S39  1  0.76513795  0.50829868  0.68327188  1
  S  S40  1  0.66309934  0.93688775  0.45110618  1
  S  S41  1  0.33176128  0.94352199  0.55287546  1
