# generated using pymatgen
data_Pr2Mn3(SbS3)4
_symmetry_space_group_name_H-M   'P 1'
_cell_length_a   20.02960800
_cell_length_b   3.90410600
_cell_length_c   14.95364829
_cell_angle_alpha   90.00000000
_cell_angle_beta   126.33350609
_cell_angle_gamma   90.00000000
_symmetry_Int_Tables_number   1
_chemical_formula_structural   Pr2Mn3(SbS3)4
_chemical_formula_sum   'Pr4 Mn6 Sb8 S24'
_cell_volume   942.00006694
_cell_formula_units_Z   2
loop_
 _symmetry_equiv_pos_site_id
 _symmetry_equiv_pos_as_xyz
  1  'x, y, z'
loop_
 _atom_site_type_symbol
 _atom_site_label
 _atom_site_symmetry_multiplicity
 _atom_site_fract_x
 _atom_site_fract_y
 _atom_site_fract_z
 _atom_site_occupancy
  Pr  Pr0  1  0.26468622  0.48011086  0.86951971  1
  Pr  Pr1  1  0.73805530  0.51136876  0.13599831  1
  Pr  Pr2  1  0.76319374  0.00785471  0.86285455  1
  Pr  Pr3  1  0.23622242  0.99720785  0.13894944  1
  Mn  Mn4  1  0.29422865  0.48891701  0.60700927  1
  Mn  Mn5  1  0.69480859  0.52613387  0.37920496  1
  Mn  Mn6  1  0.00434688  0.99839712  0.00142778  1
  Mn  Mn7  1  0.80335668  0.99285980  0.61700184  1
  Mn  Mn8  1  0.19606817  0.97239990  0.37866285  1
  Mn  Mn9  1  0.50236522  0.47201745  0.99481708  1
  Sb  Sb10  1  0.89174669  0.99927240  0.45392790  1
  Sb  Sb11  1  0.11181999  0.96906615  0.55225390  1
  Sb  Sb12  1  0.04045758  0.50933058  0.81700448  1
  Sb  Sb13  1  0.96217469  0.53157565  0.18682189  1
  Sb  Sb14  1  0.39918446  0.50345748  0.45835442  1
  Sb  Sb15  1  0.60583831  0.48482412  0.54735449  1
  Sb  Sb16  1  0.53478299  0.00913354  0.81299886  1
  Sb  Sb17  1  0.46162362  0.00578439  0.18191620  1
  S  S18  1  0.93711848  0.97030015  0.79950787  1
  S  S19  1  0.06589017  0.98125316  0.19123290  1
  S  S20  1  0.40895826  0.01718727  0.97872117  1
  S  S21  1  0.59325936  0.00009017  0.02419642  1
  S  S22  1  0.17300370  0.98408900  0.89620619  1
  S  S23  1  0.82565324  0.01604028  0.09908825  1
  S  S24  1  0.08597133  0.45651162  0.64590521  1
  S  S25  1  0.91358971  0.48682531  0.35986733  1
  S  S26  1  0.74080895  0.95137457  0.29915771  1
  S  S27  1  0.25676877  0.99823529  0.70117362  1
  S  S28  1  0.16770455  0.48783722  0.44684071  1
  S  S29  1  0.82966237  0.47706461  0.55047413  1
  S  S30  1  0.43190155  0.50200184  0.79906948  1
  S  S31  1  0.56212636  0.53112893  0.18918805  1
  S  S32  1  0.90662119  0.49622772  0.98384281  1
  S  S33  1  0.08425893  0.49471744  0.01605607  1
  S  S34  1  0.66486586  0.50483501  0.89156145  1
  S  S35  1  0.32885736  0.52843266  0.09983644  1
  S  S36  1  0.59072188  0.00479194  0.65041506  1
  S  S37  1  0.40823462  0.96315605  0.34924929  1
  S  S38  1  0.24400297  0.47521420  0.30608506  1
  S  S39  1  0.75989556  0.50547804  0.69859495  1
  S  S40  1  0.67344557  0.01409240  0.46100251  1
  S  S41  1  0.32966572  0.98928110  0.54068862  1
