# generated using pymatgen
data_Pr2Mn3(SbS3)4
_symmetry_space_group_name_H-M   'P 1'
_cell_length_a   20.02960800
_cell_length_b   3.90410600
_cell_length_c   14.95364829
_cell_angle_alpha   90.00000000
_cell_angle_beta   126.33350609
_cell_angle_gamma   90.00000000
_symmetry_Int_Tables_number   1
_chemical_formula_structural   Pr2Mn3(SbS3)4
_chemical_formula_sum   'Pr4 Mn6 Sb8 S24'
_cell_volume   942.00006694
_cell_formula_units_Z   2
loop_
 _symmetry_equiv_pos_site_id
 _symmetry_equiv_pos_as_xyz
  1  'x, y, z'
loop_
 _atom_site_type_symbol
 _atom_site_label
 _atom_site_symmetry_multiplicity
 _atom_site_fract_x
 _atom_site_fract_y
 _atom_site_fract_z
 _atom_site_occupancy
  Pr  Pr0  1  0.27178620  0.46722074  0.88589645  1
  Pr  Pr1  1  0.72462083  0.51153417  0.13056665  1
  Pr  Pr2  1  0.76151788  0.05341429  0.86895453  1
  Pr  Pr3  1  0.23537522  0.91135143  0.12818711  1
  Mn  Mn4  1  0.29890990  0.40924706  0.60785795  1
  Mn  Mn5  1  0.69894362  0.53672896  0.36702285  1
  Mn  Mn6  1  0.00686739  0.93692154  0.01693825  1
  Mn  Mn7  1  0.80239500  0.95475055  0.63348380  1
  Mn  Mn8  1  0.21114950  0.04624445  0.39382358  1
  Mn  Mn9  1  0.48467514  0.49351063  0.98776099  1
  Sb  Sb10  1  0.88989807  0.90842286  0.45999402  1
  Sb  Sb11  1  0.11268295  0.99502049  0.54405019  1
  Sb  Sb12  1  0.03575888  0.52410973  0.82557732  1
  Sb  Sb13  1  0.96212624  0.46663538  0.20019436  1
  Sb  Sb14  1  0.40693792  0.57852345  0.45262236  1
  Sb  Sb15  1  0.60076941  0.50956426  0.52888871  1
  Sb  Sb16  1  0.52570239  0.96164557  0.79211339  1
  Sb  Sb17  1  0.47142560  0.99685677  0.17848147  1
  S  S18  1  0.93188926  0.99428247  0.80184684  1
  S  S19  1  0.05840433  0.98499256  0.20107554  1
  S  S20  1  0.41330465  0.00986299  0.97781215  1
  S  S21  1  0.58022494  0.04418320  0.99556810  1
  S  S22  1  0.17151278  0.97317315  0.90038490  1
  S  S23  1  0.83275150  0.00383900  0.11454415  1
  S  S24  1  0.10272067  0.50820601  0.64643876  1
  S  S25  1  0.89307356  0.44580903  0.34245219  1
  S  S26  1  0.73298370  0.97134072  0.31500870  1
  S  S27  1  0.26923092  0.91831527  0.68875810  1
  S  S28  1  0.17415837  0.53211217  0.44591176  1
  S  S29  1  0.82383317  0.50293687  0.54895299  1
  S  S30  1  0.43287819  0.51659631  0.79621888  1
  S  S31  1  0.56854183  0.45270167  0.19115771  1
  S  S32  1  0.92011849  0.51097694  0.00445921  1
  S  S33  1  0.08365708  0.45240699  0.02823839  1
  S  S34  1  0.66905655  0.51477925  0.89850554  1
  S  S35  1  0.33526904  0.45337448  0.11187730  1
  S  S36  1  0.60046852  0.02508527  0.65136944  1
  S  S37  1  0.40202968  0.01925563  0.34074302  1
  S  S38  1  0.24731754  0.51893870  0.32243876  1
  S  S39  1  0.76489342  0.50852123  0.68297006  1
  S  S40  1  0.66312961  0.93614741  0.45095665  1
  S  S41  1  0.33166290  0.94435836  0.55264111  1
