# generated using pymatgen
data_Pr2Mn3(SbS3)4
_symmetry_space_group_name_H-M   'P 1'
_cell_length_a   20.02960800
_cell_length_b   3.90410600
_cell_length_c   14.95364829
_cell_angle_alpha   90.00000000
_cell_angle_beta   126.33350609
_cell_angle_gamma   90.00000000
_symmetry_Int_Tables_number   1
_chemical_formula_structural   Pr2Mn3(SbS3)4
_chemical_formula_sum   'Pr4 Mn6 Sb8 S24'
_cell_volume   942.00006694
_cell_formula_units_Z   2
loop_
 _symmetry_equiv_pos_site_id
 _symmetry_equiv_pos_as_xyz
  1  'x, y, z'
loop_
 _atom_site_type_symbol
 _atom_site_label
 _atom_site_symmetry_multiplicity
 _atom_site_fract_x
 _atom_site_fract_y
 _atom_site_fract_z
 _atom_site_occupancy
  Pr  Pr0  1  0.27188933  0.46659597  0.88600771  1
  Pr  Pr1  1  0.72455822  0.51179328  0.13056912  1
  Pr  Pr2  1  0.76149881  0.05337294  0.86888803  1
  Pr  Pr3  1  0.23541751  0.91104398  0.12820971  1
  Mn  Mn4  1  0.29901926  0.40941444  0.60814798  1
  Mn  Mn5  1  0.69888697  0.53646681  0.36702929  1
  Mn  Mn6  1  0.00703532  0.93745692  0.01696822  1
  Mn  Mn7  1  0.80242802  0.95509704  0.63364718  1
  Mn  Mn8  1  0.21135463  0.04599061  0.39418957  1
  Mn  Mn9  1  0.48481836  0.49364832  0.98773094  1
  Sb  Sb10  1  0.88986092  0.90852755  0.46001226  1
  Sb  Sb11  1  0.11274131  0.99544267  0.54411854  1
  Sb  Sb12  1  0.03570598  0.52421934  0.82561486  1
  Sb  Sb13  1  0.96222209  0.46624798  0.20018546  1
  Sb  Sb14  1  0.40698131  0.57809807  0.45262085  1
  Sb  Sb15  1  0.60090405  0.50999202  0.52875810  1
  Sb  Sb16  1  0.52581685  0.96099315  0.79207651  1
  Sb  Sb17  1  0.47145892  0.99631699  0.17856712  1
  S  S18  1  0.93179931  0.99537691  0.80213369  1
  S  S19  1  0.05809320  0.98475070  0.20097786  1
  S  S20  1  0.41356234  0.01151229  0.97815666  1
  S  S21  1  0.58022283  0.04464809  0.99564666  1
  S  S22  1  0.17157943  0.97167071  0.90053117  1
  S  S23  1  0.83270177  0.00371528  0.11440971  1
  S  S24  1  0.10278209  0.50844121  0.64644121  1
  S  S25  1  0.89310001  0.44498422  0.34239294  1
  S  S26  1  0.73283931  0.96982039  0.31458175  1
  S  S27  1  0.26921778  0.91836566  0.68882494  1
  S  S28  1  0.17456419  0.53166952  0.44595426  1
  S  S29  1  0.82387868  0.50367283  0.54900423  1
  S  S30  1  0.43288841  0.51554744  0.79618260  1
  S  S31  1  0.56853778  0.45331710  0.19119217  1
  S  S32  1  0.92006707  0.51133854  0.00440175  1
  S  S33  1  0.08361616  0.45169728  0.02820348  1
  S  S34  1  0.66922357  0.51531231  0.89873132  1
  S  S35  1  0.33491354  0.45368307  0.11163837  1
  S  S36  1  0.60054514  0.02544228  0.65161900  1
  S  S37  1  0.40210638  0.02026771  0.34063075  1
  S  S38  1  0.24742408  0.51820132  0.32242743  1
  S  S39  1  0.76471006  0.50874176  0.68278718  1
  S  S40  1  0.66302347  0.93558346  0.45073994  1
  S  S41  1  0.33161053  0.94441777  0.55248424  1
