# generated using pymatgen
data_Pr2Mn3(SbS3)4
_symmetry_space_group_name_H-M   'P 1'
_cell_length_a   20.02960800
_cell_length_b   3.90410600
_cell_length_c   14.95364829
_cell_angle_alpha   90.00000000
_cell_angle_beta   126.33350609
_cell_angle_gamma   90.00000000
_symmetry_Int_Tables_number   1
_chemical_formula_structural   Pr2Mn3(SbS3)4
_chemical_formula_sum   'Pr4 Mn6 Sb8 S24'
_cell_volume   942.00006694
_cell_formula_units_Z   2
loop_
 _symmetry_equiv_pos_site_id
 _symmetry_equiv_pos_as_xyz
  1  'x, y, z'
loop_
 _atom_site_type_symbol
 _atom_site_label
 _atom_site_symmetry_multiplicity
 _atom_site_fract_x
 _atom_site_fract_y
 _atom_site_fract_z
 _atom_site_occupancy
  Pr  Pr0  1  0.27193275  0.46622956  0.88605758  1
  Pr  Pr1  1  0.72450554  0.51216254  0.13057800  1
  Pr  Pr2  1  0.76147097  0.05323874  0.86884756  1
  Pr  Pr3  1  0.23549029  0.91080673  0.12813939  1
  Mn  Mn4  1  0.29918611  0.40976157  0.60852227  1
  Mn  Mn5  1  0.69881724  0.53600511  0.36706893  1
  Mn  Mn6  1  0.00718656  0.93774182  0.01698504  1
  Mn  Mn7  1  0.80243037  0.95558171  0.63372034  1
  Mn  Mn8  1  0.21156753  0.04565351  0.39462157  1
  Mn  Mn9  1  0.48485308  0.49385573  0.98761300  1
  Sb  Sb10  1  0.88980566  0.90848144  0.46002013  1
  Sb  Sb11  1  0.11280095  0.99571319  0.54413137  1
  Sb  Sb12  1  0.03562174  0.52435343  0.82561899  1
  Sb  Sb13  1  0.96231099  0.46596790  0.20023868  1
  Sb  Sb14  1  0.40698175  0.57783587  0.45250319  1
  Sb  Sb15  1  0.60096424  0.51009240  0.52855546  1
  Sb  Sb16  1  0.52589493  0.96034913  0.79201504  1
  Sb  Sb17  1  0.47145503  0.99552697  0.17866347  1
  S  S18  1  0.93167803  0.99613436  0.80225814  1
  S  S19  1  0.05786096  0.98448257  0.20108004  1
  S  S20  1  0.41377998  0.01353056  0.97840420  1
  S  S21  1  0.58019996  0.04544163  0.99565539  1
  S  S22  1  0.17162802  0.97073339  0.90064667  1
  S  S23  1  0.83277234  0.00360409  0.11447983  1
  S  S24  1  0.10282941  0.50874875  0.64638084  1
  S  S25  1  0.89308240  0.44394685  0.34230311  1
  S  S26  1  0.73272124  0.96853601  0.31412002  1
  S  S27  1  0.26918457  0.91773258  0.68871360  1
  S  S28  1  0.17492626  0.53098498  0.44603090  1
  S  S29  1  0.82388938  0.50430184  0.54900923  1
  S  S30  1  0.43263286  0.51424868  0.79589530  1
  S  S31  1  0.56848610  0.45392940  0.19119638  1
  S  S32  1  0.91998195  0.51200677  0.00430852  1
  S  S33  1  0.08363573  0.45138565  0.02819179  1
  S  S34  1  0.66943469  0.51612474  0.89895118  1
  S  S35  1  0.33463703  0.45424117  0.11138756  1
  S  S36  1  0.60055141  0.02559647  0.65190226  1
  S  S37  1  0.40213331  0.02123573  0.34057546  1
  S  S38  1  0.24744690  0.51741329  0.32248566  1
  S  S39  1  0.76458602  0.50844658  0.68256626  1
  S  S40  1  0.66298002  0.93502189  0.45051867  1
  S  S41  1  0.33150407  0.94443351  0.55220202  1
