# generated using pymatgen
data_Pr2Mn3(SbS3)4
_symmetry_space_group_name_H-M   'P 1'
_cell_length_a   20.02960800
_cell_length_b   3.90410600
_cell_length_c   14.95364829
_cell_angle_alpha   90.00000000
_cell_angle_beta   126.33350609
_cell_angle_gamma   90.00000000
_symmetry_Int_Tables_number   1
_chemical_formula_structural   Pr2Mn3(SbS3)4
_chemical_formula_sum   'Pr4 Mn6 Sb8 S24'
_cell_volume   942.00006694
_cell_formula_units_Z   2
loop_
 _symmetry_equiv_pos_site_id
 _symmetry_equiv_pos_as_xyz
  1  'x, y, z'
loop_
 _atom_site_type_symbol
 _atom_site_label
 _atom_site_symmetry_multiplicity
 _atom_site_fract_x
 _atom_site_fract_y
 _atom_site_fract_z
 _atom_site_occupancy
  Pr  Pr0  1  0.27196142  0.46606508  0.88606128  1
  Pr  Pr1  1  0.72447551  0.51252241  0.13062871  1
  Pr  Pr2  1  0.76142618  0.05302135  0.86880834  1
  Pr  Pr3  1  0.23557294  0.91060375  0.12810659  1
  Mn  Mn4  1  0.29925192  0.41003270  0.60889837  1
  Mn  Mn5  1  0.69879138  0.53541175  0.36716916  1
  Mn  Mn6  1  0.00732070  0.93795498  0.01684452  1
  Mn  Mn7  1  0.80248408  0.95620358  0.63377612  1
  Mn  Mn8  1  0.21172709  0.04541024  0.39495167  1
  Mn  Mn9  1  0.48485538  0.49404657  0.98756091  1
  Sb  Sb10  1  0.88975397  0.90859462  0.46003663  1
  Sb  Sb11  1  0.11288928  0.99597258  0.54417868  1
  Sb  Sb12  1  0.03557506  0.52450797  0.82563027  1
  Sb  Sb13  1  0.96241644  0.46566518  0.20029181  1
  Sb  Sb14  1  0.40698016  0.57788025  0.45240781  1
  Sb  Sb15  1  0.60103573  0.50997605  0.52842344  1
  Sb  Sb16  1  0.52599811  0.95999176  0.79206230  1
  Sb  Sb17  1  0.47138232  0.99490899  0.17869740  1
  S  S18  1  0.93158382  0.99689180  0.80220886  1
  S  S19  1  0.05761081  0.98456593  0.20125128  1
  S  S20  1  0.41378246  0.01541535  0.97851015  1
  S  S21  1  0.58013349  0.04613364  0.99559294  1
  S  S22  1  0.17164805  0.96989533  0.90071840  1
  S  S23  1  0.83281404  0.00324603  0.11457582  1
  S  S24  1  0.10297335  0.50897747  0.64642699  1
  S  S25  1  0.89310794  0.44332841  0.34227783  1
  S  S26  1  0.73254346  0.96708645  0.31363155  1
  S  S27  1  0.26921636  0.91696778  0.68854659  1
  S  S28  1  0.17522173  0.53005513  0.44607585  1
  S  S29  1  0.82397488  0.50487471  0.54911354  1
  S  S30  1  0.43251942  0.51360674  0.79563952  1
  S  S31  1  0.56828683  0.45452594  0.19105519  1
  S  S32  1  0.91984605  0.51259951  0.00403600  1
  S  S33  1  0.08355393  0.45142548  0.02812494  1
  S  S34  1  0.66967601  0.51718199  0.89912867  1
  S  S35  1  0.33435411  0.45509972  0.11115359  1
  S  S36  1  0.60060024  0.02606363  0.65216361  1
  S  S37  1  0.40208328  0.02234224  0.34060615  1
  S  S38  1  0.24741316  0.51614511  0.32246422  1
  S  S39  1  0.76453808  0.50831607  0.68244499  1
  S  S40  1  0.66283090  0.93452431  0.45017393  1
  S  S41  1  0.33150356  0.94441801  0.55198905  1
