# generated using pymatgen
data_Pr2Mn3(SbS3)4
_symmetry_space_group_name_H-M   'P 1'
_cell_length_a   20.02960800
_cell_length_b   3.90410600
_cell_length_c   14.95364829
_cell_angle_alpha   90.00000000
_cell_angle_beta   126.33350609
_cell_angle_gamma   90.00000000
_symmetry_Int_Tables_number   1
_chemical_formula_structural   Pr2Mn3(SbS3)4
_chemical_formula_sum   'Pr4 Mn6 Sb8 S24'
_cell_volume   942.00006694
_cell_formula_units_Z   2
loop_
 _symmetry_equiv_pos_site_id
 _symmetry_equiv_pos_as_xyz
  1  'x, y, z'
loop_
 _atom_site_type_symbol
 _atom_site_label
 _atom_site_symmetry_multiplicity
 _atom_site_fract_x
 _atom_site_fract_y
 _atom_site_fract_z
 _atom_site_occupancy
  Pr  Pr0  1  0.27197187  0.46603138  0.88604988  1
  Pr  Pr1  1  0.72447891  0.51272355  0.13073310  1
  Pr  Pr2  1  0.76136521  0.05280142  0.86872770  1
  Pr  Pr3  1  0.23563546  0.91014763  0.12812559  1
  Mn  Mn4  1  0.29923598  0.41005661  0.60921525  1
  Mn  Mn5  1  0.69864501  0.53502129  0.36712928  1
  Mn  Mn6  1  0.00737249  0.93835787  0.01665715  1
  Mn  Mn7  1  0.80257531  0.95693122  0.63383400  1
  Mn  Mn8  1  0.21190373  0.04557778  0.39531935  1
  Mn  Mn9  1  0.48485111  0.49399637  0.98752088  1
  Sb  Sb10  1  0.88973911  0.90866288  0.46013093  1
  Sb  Sb11  1  0.11295063  0.99636665  0.54414976  1
  Sb  Sb12  1  0.03551137  0.52476209  0.82565181  1
  Sb  Sb13  1  0.96254355  0.46517468  0.20038011  1
  Sb  Sb14  1  0.40694131  0.57768647  0.45221757  1
  Sb  Sb15  1  0.60104666  0.50977662  0.52819127  1
  Sb  Sb16  1  0.52609536  0.95987789  0.79210884  1
  Sb  Sb17  1  0.47129856  0.99473485  0.17869674  1
  S  S18  1  0.93153228  0.99787518  0.80229382  1
  S  S19  1  0.05742898  0.98408424  0.20148260  1
  S  S20  1  0.41374771  0.01685186  0.97859758  1
  S  S21  1  0.57997131  0.04686386  0.99551706  1
  S  S22  1  0.17174299  0.96873100  0.90074558  1
  S  S23  1  0.83291171  0.00329775  0.11460445  1
  S  S24  1  0.10295240  0.50887047  0.64632615  1
  S  S25  1  0.89323480  0.44252101  0.34232385  1
  S  S26  1  0.73260578  0.96597533  0.31330887  1
  S  S27  1  0.26913753  0.91658902  0.68830732  1
  S  S28  1  0.17539208  0.52901022  0.44597240  1
  S  S29  1  0.82399647  0.50582409  0.54925094  1
  S  S30  1  0.43248913  0.51289150  0.79548931  1
  S  S31  1  0.56808767  0.45466094  0.19089884  1
  S  S32  1  0.91964826  0.51271359  0.00368184  1
  S  S33  1  0.08348268  0.45109142  0.02794526  1
  S  S34  1  0.66984939  0.51777729  0.89919336  1
  S  S35  1  0.33405830  0.45635216  0.11079563  1
  S  S36  1  0.60055163  0.02625838  0.65233004  1
  S  S37  1  0.40199145  0.02344238  0.34057247  1
  S  S38  1  0.24734847  0.51630323  0.32250788  1
  S  S39  1  0.76442387  0.50873557  0.68231689  1
  S  S40  1  0.66262173  0.93358016  0.44986406  1
  S  S41  1  0.33162203  0.94439090  0.55208859  1
