# generated using pymatgen
data_Pr2Mn3(SbS3)4
_symmetry_space_group_name_H-M   'P 1'
_cell_length_a   20.02960800
_cell_length_b   3.90410600
_cell_length_c   14.95364829
_cell_angle_alpha   90.00000000
_cell_angle_beta   126.33350609
_cell_angle_gamma   90.00000000
_symmetry_Int_Tables_number   1
_chemical_formula_structural   Pr2Mn3(SbS3)4
_chemical_formula_sum   'Pr4 Mn6 Sb8 S24'
_cell_volume   942.00006694
_cell_formula_units_Z   2
loop_
 _symmetry_equiv_pos_site_id
 _symmetry_equiv_pos_as_xyz
  1  'x, y, z'
loop_
 _atom_site_type_symbol
 _atom_site_label
 _atom_site_symmetry_multiplicity
 _atom_site_fract_x
 _atom_site_fract_y
 _atom_site_fract_z
 _atom_site_occupancy
  Pr  Pr0  1  0.27197916  0.46602661  0.88603795  1
  Pr  Pr1  1  0.72445481  0.51252897  0.13080261  1
  Pr  Pr2  1  0.76129693  0.05264605  0.86865248  1
  Pr  Pr3  1  0.23574659  0.90949649  0.12818501  1
  Mn  Mn4  1  0.29918896  0.41006050  0.60941645  1
  Mn  Mn5  1  0.69849029  0.53473606  0.36717342  1
  Mn  Mn6  1  0.00734192  0.93843648  0.01643387  1
  Mn  Mn7  1  0.80270287  0.95779642  0.63387142  1
  Mn  Mn8  1  0.21207392  0.04602646  0.39566951  1
  Mn  Mn9  1  0.48479621  0.49350465  0.98746965  1
  Sb  Sb10  1  0.88967133  0.90840756  0.46019888  1
  Sb  Sb11  1  0.11296247  0.99661060  0.54410443  1
  Sb  Sb12  1  0.03538492  0.52475097  0.82561481  1
  Sb  Sb13  1  0.96263625  0.46465630  0.20049724  1
  Sb  Sb14  1  0.40689579  0.57746339  0.45195748  1
  Sb  Sb15  1  0.60114497  0.50972859  0.52807491  1
  Sb  Sb16  1  0.52614303  0.95957778  0.79210505  1
  Sb  Sb17  1  0.47124321  0.99465981  0.17870121  1
  S  S18  1  0.93131982  0.99883421  0.80216444  1
  S  S19  1  0.05722463  0.98364957  0.20163103  1
  S  S20  1  0.41367386  0.01859541  0.97866630  1
  S  S21  1  0.57988517  0.04707667  0.99555730  1
  S  S22  1  0.17182639  0.96765876  0.90073841  1
  S  S23  1  0.83300080  0.00316003  0.11458719  1
  S  S24  1  0.10291484  0.50886086  0.64620563  1
  S  S25  1  0.89323607  0.44217121  0.34242232  1
  S  S26  1  0.73273949  0.96468599  0.31295748  1
  S  S27  1  0.26904317  0.91660133  0.68804630  1
  S  S28  1  0.17557327  0.52810591  0.44594628  1
  S  S29  1  0.82418255  0.50697952  0.54955431  1
  S  S30  1  0.43253754  0.51227924  0.79530514  1
  S  S31  1  0.56789883  0.45485625  0.19087280  1
  S  S32  1  0.91950235  0.51260480  0.00342883  1
  S  S33  1  0.08341244  0.45031213  0.02763098  1
  S  S34  1  0.66988373  0.51896263  0.89900520  1
  S  S35  1  0.33380504  0.45731014  0.11049051  1
  S  S36  1  0.60050600  0.02664033  0.65244490  1
  S  S37  1  0.40207227  0.02427886  0.34073671  1
  S  S38  1  0.24750752  0.51656839  0.32259239  1
  S  S39  1  0.76427618  0.50906229  0.68214434  1
  S  S40  1  0.66245725  0.93294118  0.44955731  1
  S  S41  1  0.33173906  0.94392722  0.55218294  1
