# generated using pymatgen
data_Pr2Mn3(SbS3)4
_symmetry_space_group_name_H-M   'P 1'
_cell_length_a   20.02960800
_cell_length_b   3.90410600
_cell_length_c   14.95364829
_cell_angle_alpha   90.00000000
_cell_angle_beta   126.33350609
_cell_angle_gamma   90.00000000
_symmetry_Int_Tables_number   1
_chemical_formula_structural   Pr2Mn3(SbS3)4
_chemical_formula_sum   'Pr4 Mn6 Sb8 S24'
_cell_volume   942.00006694
_cell_formula_units_Z   2
loop_
 _symmetry_equiv_pos_site_id
 _symmetry_equiv_pos_as_xyz
  1  'x, y, z'
loop_
 _atom_site_type_symbol
 _atom_site_label
 _atom_site_symmetry_multiplicity
 _atom_site_fract_x
 _atom_site_fract_y
 _atom_site_fract_z
 _atom_site_occupancy
  Pr  Pr0  1  0.27198829  0.46616861  0.88597271  1
  Pr  Pr1  1  0.72447421  0.51250782  0.13096093  1
  Pr  Pr2  1  0.76125569  0.05252589  0.86858952  1
  Pr  Pr3  1  0.23581524  0.90916958  0.12823179  1
  Mn  Mn4  1  0.29916106  0.41023065  0.60960332  1
  Mn  Mn5  1  0.69834812  0.53431187  0.36722896  1
  Mn  Mn6  1  0.00720403  0.93862120  0.01611391  1
  Mn  Mn7  1  0.80291005  0.95834099  0.63400354  1
  Mn  Mn8  1  0.21227401  0.04641015  0.39604796  1
  Mn  Mn9  1  0.48463281  0.49338924  0.98726289  1
  Sb  Sb10  1  0.88957853  0.90810699  0.46018129  1
  Sb  Sb11  1  0.11294463  0.99674891  0.54399319  1
  Sb  Sb12  1  0.03530557  0.52451570  0.82556889  1
  Sb  Sb13  1  0.96271023  0.46419210  0.20059916  1
  Sb  Sb14  1  0.40686421  0.57723459  0.45182238  1
  Sb  Sb15  1  0.60124290  0.50982698  0.52799362  1
  Sb  Sb16  1  0.52623200  0.95876774  0.79210480  1
  Sb  Sb17  1  0.47119299  0.99454510  0.17871861  1
  S  S18  1  0.93103966  0.99977149  0.80198072  1
  S  S19  1  0.05715167  0.98337229  0.20178933  1
  S  S20  1  0.41376005  0.02016517  0.97876594  1
  S  S21  1  0.57985773  0.04737562  0.99562152  1
  S  S22  1  0.17197001  0.96703832  0.90068995  1
  S  S23  1  0.83301348  0.00366349  0.11453339  1
  S  S24  1  0.10291595  0.50883941  0.64613667  1
  S  S25  1  0.89308171  0.44120325  0.34239473  1
  S  S26  1  0.73309191  0.96396675  0.31281000  1
  S  S27  1  0.26886454  0.91628950  0.68778132  1
  S  S28  1  0.17582739  0.52685517  0.44608147  1
  S  S29  1  0.82442258  0.50822700  0.54995730  1
  S  S30  1  0.43261174  0.51207829  0.79501503  1
  S  S31  1  0.56770654  0.45456926  0.19077048  1
  S  S32  1  0.91939757  0.51255863  0.00308017  1
  S  S33  1  0.08349041  0.44958905  0.02748158  1
  S  S34  1  0.66984416  0.51980203  0.89878167  1
  S  S35  1  0.33352348  0.45809914  0.11014422  1
  S  S36  1  0.60033345  0.02734277  0.65237474  1
  S  S37  1  0.40212570  0.02501911  0.34091106  1
  S  S38  1  0.24748722  0.51648431  0.32247714  1
  S  S39  1  0.76410942  0.50964022  0.68193021  1
  S  S40  1  0.66234346  0.93208685  0.44928083  1
  S  S41  1  0.33186045  0.94337349  0.55232787  1
