# generated using pymatgen
data_Pr2Mn3(SbS3)4
_symmetry_space_group_name_H-M   'P 1'
_cell_length_a   20.02960800
_cell_length_b   3.90410600
_cell_length_c   14.95364829
_cell_angle_alpha   90.00000000
_cell_angle_beta   126.33350609
_cell_angle_gamma   90.00000000
_symmetry_Int_Tables_number   1
_chemical_formula_structural   Pr2Mn3(SbS3)4
_chemical_formula_sum   'Pr4 Mn6 Sb8 S24'
_cell_volume   942.00006694
_cell_formula_units_Z   2
loop_
 _symmetry_equiv_pos_site_id
 _symmetry_equiv_pos_as_xyz
  1  'x, y, z'
loop_
 _atom_site_type_symbol
 _atom_site_label
 _atom_site_symmetry_multiplicity
 _atom_site_fract_x
 _atom_site_fract_y
 _atom_site_fract_z
 _atom_site_occupancy
  Pr  Pr0  1  0.27200687  0.46656819  0.88589282  1
  Pr  Pr1  1  0.72445406  0.51273547  0.13105010  1
  Pr  Pr2  1  0.76121073  0.05250699  0.86853902  1
  Pr  Pr3  1  0.23588929  0.90903301  0.12827376  1
  Mn  Mn4  1  0.29910600  0.41062383  0.60973869  1
  Mn  Mn5  1  0.69825030  0.53380301  0.36728070  1
  Mn  Mn6  1  0.00702043  0.93890928  0.01565181  1
  Mn  Mn7  1  0.80301823  0.95915621  0.63402407  1
  Mn  Mn8  1  0.21242650  0.04649929  0.39642607  1
  Mn  Mn9  1  0.48452133  0.49323750  0.98706855  1
  Sb  Sb10  1  0.88949725  0.90786586  0.46018908  1
  Sb  Sb11  1  0.11290649  0.99679652  0.54386753  1
  Sb  Sb12  1  0.03524151  0.52418660  0.82550514  1
  Sb  Sb13  1  0.96273754  0.46386103  0.20063117  1
  Sb  Sb14  1  0.40682793  0.57695990  0.45177841  1
  Sb  Sb15  1  0.60133228  0.50989636  0.52786655  1
  Sb  Sb16  1  0.52634708  0.95799873  0.79210301  1
  Sb  Sb17  1  0.47116256  0.99435550  0.17870837  1
  S  S18  1  0.93079230  0.00056978  0.80192314  1
  S  S19  1  0.05710129  0.98326103  0.20201904  1
  S  S20  1  0.41375852  0.02179809  0.97873284  1
  S  S21  1  0.57978655  0.04744918  0.99550673  1
  S  S22  1  0.17195202  0.96607601  0.90071747  1
  S  S23  1  0.83308828  0.00417159  0.11456650  1
  S  S24  1  0.10287060  0.50902073  0.64615684  1
  S  S25  1  0.89297955  0.44061651  0.34244636  1
  S  S26  1  0.73350032  0.96307669  0.31270527  1
  S  S27  1  0.26865444  0.91576080  0.68749083  1
  S  S28  1  0.17605799  0.52561663  0.44611487  1
  S  S29  1  0.82453217  0.50942668  0.55017087  1
  S  S30  1  0.43266370  0.51180758  0.79481287  1
  S  S31  1  0.56749907  0.45417944  0.19065016  1
  S  S32  1  0.91920979  0.51268229  0.00264854  1
  S  S33  1  0.08349442  0.44925156  0.02725181  1
  S  S34  1  0.66984876  0.52107023  0.89876345  1
  S  S35  1  0.33322708  0.45889747  0.10990122  1
  S  S36  1  0.60023226  0.02789043  0.65228525  1
  S  S37  1  0.40215343  0.02580249  0.34085605  1
  S  S38  1  0.24747837  0.51618222  0.32248771  1
  S  S39  1  0.76392062  0.51039230  0.68168606  1
  S  S40  1  0.66219479  0.93171448  0.44892044  1
  S  S41  1  0.33192459  0.94227823  0.55241901  1
