# generated using pymatgen
data_Pr2Mn3(SbS3)4
_symmetry_space_group_name_H-M   'P 1'
_cell_length_a   20.02960800
_cell_length_b   3.90410600
_cell_length_c   14.95364829
_cell_angle_alpha   90.00000000
_cell_angle_beta   126.33350609
_cell_angle_gamma   90.00000000
_symmetry_Int_Tables_number   1
_chemical_formula_structural   Pr2Mn3(SbS3)4
_chemical_formula_sum   'Pr4 Mn6 Sb8 S24'
_cell_volume   942.00006694
_cell_formula_units_Z   2
loop_
 _symmetry_equiv_pos_site_id
 _symmetry_equiv_pos_as_xyz
  1  'x, y, z'
loop_
 _atom_site_type_symbol
 _atom_site_label
 _atom_site_symmetry_multiplicity
 _atom_site_fract_x
 _atom_site_fract_y
 _atom_site_fract_z
 _atom_site_occupancy
  Pr  Pr0  1  0.27199035  0.46707278  0.88579121  1
  Pr  Pr1  1  0.72443508  0.51299495  0.13106252  1
  Pr  Pr2  1  0.76114780  0.05234387  0.86849799  1
  Pr  Pr3  1  0.23593785  0.90913952  0.12821792  1
  Mn  Mn4  1  0.29898715  0.41122067  0.60985753  1
  Mn  Mn5  1  0.69815939  0.53309064  0.36736757  1
  Mn  Mn6  1  0.00692939  0.93900933  0.01516498  1
  Mn  Mn7  1  0.80323287  0.96022939  0.63411780  1
  Mn  Mn8  1  0.21254240  0.04655532  0.39667459  1
  Mn  Mn9  1  0.48436377  0.49323777  0.98682929  1
  Sb  Sb10  1  0.88937629  0.90756941  0.46011706  1
  Sb  Sb11  1  0.11289102  0.99688281  0.54375099  1
  Sb  Sb12  1  0.03515797  0.52376356  0.82540336  1
  Sb  Sb13  1  0.96278193  0.46351902  0.20065555  1
  Sb  Sb14  1  0.40687152  0.57667171  0.45189239  1
  Sb  Sb15  1  0.60145599  0.51010629  0.52773733  1
  Sb  Sb16  1  0.52641813  0.95730944  0.79209979  1
  Sb  Sb17  1  0.47110200  0.99394112  0.17866468  1
  S  S18  1  0.93058866  0.00093028  0.80193362  1
  S  S19  1  0.05710703  0.98309766  0.20227953  1
  S  S20  1  0.41375242  0.02304703  0.97862602  1
  S  S21  1  0.57980986  0.04761625  0.99548494  1
  S  S22  1  0.17202493  0.96462062  0.90086911  1
  S  S23  1  0.83315514  0.00507469  0.11463002  1
  S  S24  1  0.10286960  0.50903544  0.64629911  1
  S  S25  1  0.89283495  0.43999930  0.34255354  1
  S  S26  1  0.73392770  0.96272274  0.31277304  1
  S  S27  1  0.26837020  0.91525377  0.68704367  1
  S  S28  1  0.17628026  0.52432285  0.44632206  1
  S  S29  1  0.82466047  0.51078687  0.55047261  1
  S  S30  1  0.43276396  0.51160408  0.79464195  1
  S  S31  1  0.56731487  0.45357423  0.19055762  1
  S  S32  1  0.91921389  0.51257857  0.00236821  1
  S  S33  1  0.08348691  0.44956398  0.02695881  1
  S  S34  1  0.66980782  0.52257711  0.89864700  1
  S  S35  1  0.33284284  0.46011649  0.10956838  1
  S  S36  1  0.59992177  0.02810273  0.65206662  1
  S  S37  1  0.40218156  0.02682564  0.34075888  1
  S  S38  1  0.24746208  0.51627795  0.32254632  1
  S  S39  1  0.76394008  0.51103859  0.68159843  1
  S  S40  1  0.66211154  0.93200744  0.44861540  1
  S  S41  1  0.33201174  0.94183220  0.55256821  1
