# generated using pymatgen
data_Pr2Mn3(SbS3)4
_symmetry_space_group_name_H-M   'P 1'
_cell_length_a   20.02960800
_cell_length_b   3.90410600
_cell_length_c   14.95364829
_cell_angle_alpha   90.00000000
_cell_angle_beta   126.33350609
_cell_angle_gamma   90.00000000
_symmetry_Int_Tables_number   1
_chemical_formula_structural   Pr2Mn3(SbS3)4
_chemical_formula_sum   'Pr4 Mn6 Sb8 S24'
_cell_volume   942.00006694
_cell_formula_units_Z   2
loop_
 _symmetry_equiv_pos_site_id
 _symmetry_equiv_pos_as_xyz
  1  'x, y, z'
loop_
 _atom_site_type_symbol
 _atom_site_label
 _atom_site_symmetry_multiplicity
 _atom_site_fract_x
 _atom_site_fract_y
 _atom_site_fract_z
 _atom_site_occupancy
  Pr  Pr0  1  0.27199253  0.46735871  0.88574486  1
  Pr  Pr1  1  0.72445741  0.51341281  0.13105821  1
  Pr  Pr2  1  0.76112344  0.05225229  0.86855142  1
  Pr  Pr3  1  0.23601405  0.90931008  0.12817313  1
  Mn  Mn4  1  0.29886988  0.41208376  0.60990427  1
  Mn  Mn5  1  0.69803393  0.53233908  0.36745690  1
  Mn  Mn6  1  0.00682073  0.93922673  0.01458829  1
  Mn  Mn7  1  0.80352417  0.96112805  0.63426060  1
  Mn  Mn8  1  0.21268347  0.04653890  0.39694653  1
  Mn  Mn9  1  0.48431088  0.49375824  0.98662789  1
  Sb  Sb10  1  0.88925841  0.90725645  0.46001927  1
  Sb  Sb11  1  0.11290130  0.99676092  0.54367026  1
  Sb  Sb12  1  0.03505122  0.52340464  0.82526856  1
  Sb  Sb13  1  0.96279994  0.46303453  0.20073814  1
  Sb  Sb14  1  0.40684094  0.57636810  0.45187809  1
  Sb  Sb15  1  0.60154068  0.51058621  0.52753293  1
  Sb  Sb16  1  0.52648426  0.95660780  0.79203739  1
  Sb  Sb17  1  0.47109224  0.99347628  0.17872754  1
  S  S18  1  0.93038428  0.00166112  0.80204416  1
  S  S19  1  0.05704014  0.98282838  0.20241454  1
  S  S20  1  0.41368461  0.02399915  0.97844679  1
  S  S21  1  0.57982901  0.04781620  0.99537362  1
  S  S22  1  0.17210358  0.96354686  0.90104685  1
  S  S23  1  0.83334574  0.00629078  0.11468322  1
  S  S24  1  0.10297896  0.50885149  0.64640068  1
  S  S25  1  0.89276242  0.43909372  0.34280821  1
  S  S26  1  0.73439740  0.96238711  0.31290635  1
  S  S27  1  0.26805125  0.91488561  0.68648845  1
  S  S28  1  0.17643320  0.52244881  0.44653446  1
  S  S29  1  0.82471813  0.51200329  0.55076359  1
  S  S30  1  0.43282581  0.51145600  0.79443842  1
  S  S31  1  0.56704847  0.45282686  0.19029343  1
  S  S32  1  0.91919924  0.51262146  0.00212261  1
  S  S33  1  0.08343197  0.44991438  0.02681109  1
  S  S34  1  0.66981918  0.52382024  0.89856151  1
  S  S35  1  0.33239430  0.46121421  0.10920931  1
  S  S36  1  0.59957636  0.02777556  0.65183855  1
  S  S37  1  0.40225389  0.02814557  0.34068926  1
  S  S38  1  0.24747232  0.51646072  0.32278912  1
  S  S39  1  0.76381455  0.51194171  0.68152859  1
  S  S40  1  0.66211925  0.93238530  0.44829831  1
  S  S41  1  0.33218415  0.94069876  0.55279806  1
