# generated using pymatgen
data_Pr2Mn3(SbS3)4
_symmetry_space_group_name_H-M   'P 1'
_cell_length_a   20.02960800
_cell_length_b   3.90410600
_cell_length_c   14.95364829
_cell_angle_alpha   90.00000000
_cell_angle_beta   126.33350609
_cell_angle_gamma   90.00000000
_symmetry_Int_Tables_number   1
_chemical_formula_structural   Pr2Mn3(SbS3)4
_chemical_formula_sum   'Pr4 Mn6 Sb8 S24'
_cell_volume   942.00006694
_cell_formula_units_Z   2
loop_
 _symmetry_equiv_pos_site_id
 _symmetry_equiv_pos_as_xyz
  1  'x, y, z'
loop_
 _atom_site_type_symbol
 _atom_site_label
 _atom_site_symmetry_multiplicity
 _atom_site_fract_x
 _atom_site_fract_y
 _atom_site_fract_z
 _atom_site_occupancy
  Pr  Pr0  1  0.26464869  0.48016834  0.86942397  1
  Pr  Pr1  1  0.73809134  0.51202180  0.13600703  1
  Pr  Pr2  1  0.76334249  0.00790258  0.86302885  1
  Pr  Pr3  1  0.23612033  0.99735296  0.13887465  1
  Mn  Mn4  1  0.29403792  0.48815610  0.60659491  1
  Mn  Mn5  1  0.69490182  0.52655986  0.37941061  1
  Mn  Mn6  1  0.00442526  0.99767621  0.00156111  1
  Mn  Mn7  1  0.80339868  0.99308282  0.61687143  1
  Mn  Mn8  1  0.19604524  0.97156889  0.37872424  1
  Mn  Mn9  1  0.50225601  0.47152896  0.99476881  1
  Sb  Sb10  1  0.89159203  0.99869363  0.45397648  1
  Sb  Sb11  1  0.11185516  0.96883544  0.55228848  1
  Sb  Sb12  1  0.04042305  0.50981848  0.81698112  1
  Sb  Sb13  1  0.96225862  0.53108933  0.18690027  1
  Sb  Sb14  1  0.39923672  0.50363577  0.45839007  1
  Sb  Sb15  1  0.60576268  0.48459205  0.54728552  1
  Sb  Sb16  1  0.53462546  0.00894571  0.81287779  1
  Sb  Sb17  1  0.46151979  0.00614634  0.18193027  1
  S  S18  1  0.93732131  0.97010446  0.79985141  1
  S  S19  1  0.06608203  0.97957874  0.19111885  1
  S  S20  1  0.40876670  0.01706036  0.97847814  1
  S  S21  1  0.59337994  0.00046894  0.02458124  1
  S  S22  1  0.17310711  0.98377856  0.89602408  1
  S  S23  1  0.82563624  0.01532026  0.09904429  1
  S  S24  1  0.08600462  0.45682878  0.64595510  1
  S  S25  1  0.91369077  0.48712322  0.35976911  1
  S  S26  1  0.74057127  0.95181788  0.29906660  1
  S  S27  1  0.25678525  0.99854886  0.70121752  1
  S  S28  1  0.16811389  0.48893185  0.44713629  1
  S  S29  1  0.82951532  0.47807156  0.55054966  1
  S  S30  1  0.43195755  0.50146817  0.79893318  1
  S  S31  1  0.56216308  0.53168346  0.18898917  1
  S  S32  1  0.90707510  0.49630602  0.98465758  1
  S  S33  1  0.08403258  0.49457674  0.01598382  1
  S  S34  1  0.66481941  0.50419827  0.89134505  1
  S  S35  1  0.32878078  0.52797248  0.09971663  1
  S  S36  1  0.59094085  0.00490058  0.65100247  1
  S  S37  1  0.40811264  0.96416598  0.34891789  1
  S  S38  1  0.24385920  0.47473847  0.30600890  1
  S  S39  1  0.75992730  0.50614885  0.69866097  1
  S  S40  1  0.67357624  0.01553488  0.46079320  1
  S  S41  1  0.32946786  0.98956239  0.54057054  1
