# generated using pymatgen
data_Pr2Mn3(SbS3)4
_symmetry_space_group_name_H-M   'P 1'
_cell_length_a   20.02960800
_cell_length_b   3.90410600
_cell_length_c   14.95364829
_cell_angle_alpha   90.00000000
_cell_angle_beta   126.33350609
_cell_angle_gamma   90.00000000
_symmetry_Int_Tables_number   1
_chemical_formula_structural   Pr2Mn3(SbS3)4
_chemical_formula_sum   'Pr4 Mn6 Sb8 S24'
_cell_volume   942.00006694
_cell_formula_units_Z   2
loop_
 _symmetry_equiv_pos_site_id
 _symmetry_equiv_pos_as_xyz
  1  'x, y, z'
loop_
 _atom_site_type_symbol
 _atom_site_label
 _atom_site_symmetry_multiplicity
 _atom_site_fract_x
 _atom_site_fract_y
 _atom_site_fract_z
 _atom_site_occupancy
  Pr  Pr0  1  0.27197535  0.46756499  0.88566210  1
  Pr  Pr1  1  0.72453621  0.51378874  0.13118415  1
  Pr  Pr2  1  0.76112096  0.05224631  0.86859076  1
  Pr  Pr3  1  0.23608399  0.90948106  0.12817465  1
  Mn  Mn4  1  0.29872697  0.41337403  0.61002277  1
  Mn  Mn5  1  0.69795597  0.53158975  0.36756913  1
  Mn  Mn6  1  0.00669509  0.93931105  0.01403910  1
  Mn  Mn7  1  0.80378930  0.96201502  0.63442927  1
  Mn  Mn8  1  0.21274631  0.04655411  0.39715094  1
  Mn  Mn9  1  0.48434947  0.49404938  0.98648367  1
  Sb  Sb10  1  0.88911653  0.90712811  0.45989582  1
  Sb  Sb11  1  0.11291337  0.99644879  0.54365450  1
  Sb  Sb12  1  0.03493187  0.52350408  0.82516914  1
  Sb  Sb13  1  0.96281774  0.46275387  0.20080648  1
  Sb  Sb14  1  0.40684532  0.57587293  0.45194066  1
  Sb  Sb15  1  0.60170462  0.51079199  0.52745746  1
  Sb  Sb16  1  0.52652018  0.95614927  0.79189453  1
  Sb  Sb17  1  0.47106798  0.99323414  0.17884286  1
  S  S18  1  0.93012454  0.00222617  0.80200437  1
  S  S19  1  0.05692433  0.98232884  0.20244155  1
  S  S20  1  0.41360022  0.02514129  0.97815547  1
  S  S21  1  0.57981357  0.04757907  0.99534696  1
  S  S22  1  0.17217964  0.96240668  0.90113875  1
  S  S23  1  0.83354068  0.00761135  0.11462424  1
  S  S24  1  0.10308039  0.50861325  0.64637850  1
  S  S25  1  0.89279895  0.43841610  0.34310966  1
  S  S26  1  0.73486652  0.96218021  0.31291070  1
  S  S27  1  0.26785800  0.91459794  0.68611013  1
  S  S28  1  0.17659532  0.52072372  0.44678788  1
  S  S29  1  0.82478868  0.51283682  0.55099297  1
  S  S30  1  0.43294665  0.51131208  0.79434197  1
  S  S31  1  0.56699641  0.45207970  0.19013020  1
  S  S32  1  0.91929797  0.51287296  0.00183475  1
  S  S33  1  0.08343058  0.44961375  0.02678744  1
  S  S34  1  0.66983055  0.52519202  0.89860393  1
  S  S35  1  0.33190177  0.46225718  0.10889243  1
  S  S36  1  0.59928043  0.02814323  0.65152883  1
  S  S37  1  0.40238859  0.02939792  0.34069292  1
  S  S38  1  0.24741091  0.51660406  0.32291548  1
  S  S39  1  0.76368126  0.51253011  0.68154865  1
  S  S40  1  0.66210819  0.93272395  0.44794747  1
  S  S41  1  0.33235584  0.93950306  0.55291614  1
