# generated using pymatgen
data_Pr2Mn3(SbS3)4
_symmetry_space_group_name_H-M   'P 1'
_cell_length_a   20.02960800
_cell_length_b   3.90410600
_cell_length_c   14.95364829
_cell_angle_alpha   90.00000000
_cell_angle_beta   126.33350609
_cell_angle_gamma   90.00000000
_symmetry_Int_Tables_number   1
_chemical_formula_structural   Pr2Mn3(SbS3)4
_chemical_formula_sum   'Pr4 Mn6 Sb8 S24'
_cell_volume   942.00006694
_cell_formula_units_Z   2
loop_
 _symmetry_equiv_pos_site_id
 _symmetry_equiv_pos_as_xyz
  1  'x, y, z'
loop_
 _atom_site_type_symbol
 _atom_site_label
 _atom_site_symmetry_multiplicity
 _atom_site_fract_x
 _atom_site_fract_y
 _atom_site_fract_z
 _atom_site_occupancy
  Pr  Pr0  1  0.27195891  0.46769494  0.88555867  1
  Pr  Pr1  1  0.72458998  0.51416728  0.13123512  1
  Pr  Pr2  1  0.76111619  0.05218371  0.86863368  1
  Pr  Pr3  1  0.23618240  0.90953935  0.12826629  1
  Mn  Mn4  1  0.29856500  0.41484484  0.61008563  1
  Mn  Mn5  1  0.69783503  0.53056950  0.36769377  1
  Mn  Mn6  1  0.00657482  0.93913796  0.01344625  1
  Mn  Mn7  1  0.80403556  0.96298997  0.63464898  1
  Mn  Mn8  1  0.21281459  0.04666520  0.39739348  1
  Mn  Mn9  1  0.48432253  0.49438542  0.98627432  1
  Sb  Sb10  1  0.88897143  0.90691665  0.45980082  1
  Sb  Sb11  1  0.11288978  0.99637444  0.54361425  1
  Sb  Sb12  1  0.03485508  0.52334660  0.82507199  1
  Sb  Sb13  1  0.96279243  0.46261047  0.20081976  1
  Sb  Sb14  1  0.40690364  0.57517598  0.45204256  1
  Sb  Sb15  1  0.60183454  0.51103137  0.52740648  1
  Sb  Sb16  1  0.52650075  0.95580059  0.79169373  1
  Sb  Sb17  1  0.47102333  0.99302094  0.17890250  1
  S  S18  1  0.92983819  0.00287024  0.80195394  1
  S  S19  1  0.05671763  0.98162152  0.20236469  1
  S  S20  1  0.41363388  0.02612361  0.97791903  1
  S  S21  1  0.57976681  0.04684206  0.99545748  1
  S  S22  1  0.17229941  0.96148450  0.90127287  1
  S  S23  1  0.83376803  0.00882608  0.11462015  1
  S  S24  1  0.10317975  0.50838205  0.64647710  1
  S  S25  1  0.89281966  0.43737109  0.34330293  1
  S  S26  1  0.73536723  0.96169291  0.31307262  1
  S  S27  1  0.26765157  0.91470978  0.68577701  1
  S  S28  1  0.17671611  0.51922575  0.44704333  1
  S  S29  1  0.82491463  0.51347380  0.55112703  1
  S  S30  1  0.43304582  0.51076850  0.79430354  1
  S  S31  1  0.56694435  0.45186421  0.19002907  1
  S  S32  1  0.91930970  0.51318144  0.00166544  1
  S  S33  1  0.08346015  0.44925831  0.02671336  1
  S  S34  1  0.66985360  0.52640012  0.89869808  1
  S  S35  1  0.33156320  0.46354821  0.10872990  1
  S  S36  1  0.59892944  0.02883703  0.65123080  1
  S  S37  1  0.40242411  0.03072345  0.34055576  1
  S  S38  1  0.24731065  0.51677728  0.32291671  1
  S  S39  1  0.76354085  0.51324912  0.68159582  1
  S  S40  1  0.66211011  0.93314005  0.44763056  1
  S  S41  1  0.33240868  0.93820162  0.55307021  1
