# generated using pymatgen
data_Pr2Mn3(SbS3)4
_symmetry_space_group_name_H-M   'P 1'
_cell_length_a   20.02960800
_cell_length_b   3.90410600
_cell_length_c   14.95364829
_cell_angle_alpha   90.00000000
_cell_angle_beta   126.33350609
_cell_angle_gamma   90.00000000
_symmetry_Int_Tables_number   1
_chemical_formula_structural   Pr2Mn3(SbS3)4
_chemical_formula_sum   'Pr4 Mn6 Sb8 S24'
_cell_volume   942.00006694
_cell_formula_units_Z   2
loop_
 _symmetry_equiv_pos_site_id
 _symmetry_equiv_pos_as_xyz
  1  'x, y, z'
loop_
 _atom_site_type_symbol
 _atom_site_label
 _atom_site_symmetry_multiplicity
 _atom_site_fract_x
 _atom_site_fract_y
 _atom_site_fract_z
 _atom_site_occupancy
  Pr  Pr0  1  0.27192240  0.46787371  0.88536985  1
  Pr  Pr1  1  0.72458340  0.51447215  0.13125687  1
  Pr  Pr2  1  0.76109791  0.05203853  0.86865049  1
  Pr  Pr3  1  0.23622625  0.90973275  0.12834791  1
  Mn  Mn4  1  0.29842578  0.41587246  0.61013954  1
  Mn  Mn5  1  0.69768103  0.52983740  0.36784766  1
  Mn  Mn6  1  0.00655655  0.93921669  0.01298149  1
  Mn  Mn7  1  0.80420635  0.96380194  0.63484092  1
  Mn  Mn8  1  0.21280651  0.04698397  0.39761202  1
  Mn  Mn9  1  0.48419647  0.49472341  0.98595689  1
  Sb  Sb10  1  0.88890193  0.90661676  0.45983945  1
  Sb  Sb11  1  0.11282437  0.99641904  0.54354516  1
  Sb  Sb12  1  0.03480553  0.52297984  0.82498644  1
  Sb  Sb13  1  0.96277191  0.46236624  0.20089227  1
  Sb  Sb14  1  0.40696440  0.57438358  0.45211537  1
  Sb  Sb15  1  0.60188440  0.51146267  0.52734537  1
  Sb  Sb16  1  0.52645234  0.95535282  0.79143983  1
  Sb  Sb17  1  0.47093513  0.99273964  0.17892903  1
  S  S18  1  0.92959071  0.00379223  0.80189262  1
  S  S19  1  0.05652942  0.98084285  0.20228209  1
  S  S20  1  0.41360826  0.02647690  0.97770804  1
  S  S21  1  0.57969453  0.04637293  0.99561952  1
  S  S22  1  0.17243485  0.96049012  0.90141839  1
  S  S23  1  0.83388144  0.00996897  0.11464832  1
  S  S24  1  0.10330318  0.50811188  0.64649940  1
  S  S25  1  0.89287109  0.43660791  0.34347742  1
  S  S26  1  0.73577712  0.96050452  0.31321481  1
  S  S27  1  0.26756591  0.91503387  0.68557992  1
  S  S28  1  0.17675225  0.51804796  0.44728709  1
  S  S29  1  0.82501306  0.51441426  0.55123358  1
  S  S30  1  0.43306546  0.51010638  0.79427463  1
  S  S31  1  0.56692775  0.45197989  0.18997263  1
  S  S32  1  0.91940095  0.51389361  0.00154810  1
  S  S33  1  0.08357224  0.44856839  0.02674726  1
  S  S34  1  0.67002726  0.52766383  0.89889178  1
  S  S35  1  0.33129573  0.46491534  0.10864947  1
  S  S36  1  0.59868333  0.02937797  0.65084098  1
  S  S37  1  0.40241340  0.03196260  0.34036287  1
  S  S38  1  0.24728487  0.51677456  0.32302718  1
  S  S39  1  0.76324628  0.51355113  0.68154954  1
  S  S40  1  0.66200947  0.93366799  0.44719193  1
  S  S41  1  0.33234606  0.93679647  0.55310058  1
