# generated using pymatgen
data_Pr2Mn3(SbS3)4
_symmetry_space_group_name_H-M   'P 1'
_cell_length_a   20.02960800
_cell_length_b   3.90410600
_cell_length_c   14.95364829
_cell_angle_alpha   90.00000000
_cell_angle_beta   126.33350609
_cell_angle_gamma   90.00000000
_symmetry_Int_Tables_number   1
_chemical_formula_structural   Pr2Mn3(SbS3)4
_chemical_formula_sum   'Pr4 Mn6 Sb8 S24'
_cell_volume   942.00006694
_cell_formula_units_Z   2
loop_
 _symmetry_equiv_pos_site_id
 _symmetry_equiv_pos_as_xyz
  1  'x, y, z'
loop_
 _atom_site_type_symbol
 _atom_site_label
 _atom_site_symmetry_multiplicity
 _atom_site_fract_x
 _atom_site_fract_y
 _atom_site_fract_z
 _atom_site_occupancy
  Pr  Pr0  1  0.27188107  0.46794271  0.88518483  1
  Pr  Pr1  1  0.72457267  0.51469203  0.13132010  1
  Pr  Pr2  1  0.76107657  0.05187623  0.86871900  1
  Pr  Pr3  1  0.23625014  0.90978030  0.12841472  1
  Mn  Mn4  1  0.29826602  0.41651848  0.61011299  1
  Mn  Mn5  1  0.69748854  0.52934529  0.36804556  1
  Mn  Mn6  1  0.00651862  0.93956790  0.01248348  1
  Mn  Mn7  1  0.80436071  0.96485452  0.63492291  1
  Mn  Mn8  1  0.21271974  0.04703366  0.39774115  1
  Mn  Mn9  1  0.48404926  0.49529944  0.98574608  1
  Sb  Sb10  1  0.88883587  0.90629752  0.45986134  1
  Sb  Sb11  1  0.11278445  0.99645973  0.54347424  1
  Sb  Sb12  1  0.03469105  0.52255325  0.82492032  1
  Sb  Sb13  1  0.96275026  0.46216208  0.20098360  1
  Sb  Sb14  1  0.40703692  0.57345524  0.45215389  1
  Sb  Sb15  1  0.60192940  0.51157237  0.52725978  1
  Sb  Sb16  1  0.52642409  0.95456901  0.79126058  1
  Sb  Sb17  1  0.47078176  0.99233952  0.17886029  1
  S  S18  1  0.92944786  0.00475935  0.80184484  1
  S  S19  1  0.05642666  0.98004001  0.20222293  1
  S  S20  1  0.41360813  0.02660207  0.97745792  1
  S  S21  1  0.57965292  0.04559894  0.99567215  1
  S  S22  1  0.17236763  0.95970780  0.90147365  1
  S  S23  1  0.83393863  0.01098945  0.11465350  1
  S  S24  1  0.10345668  0.50786130  0.64660705  1
  S  S25  1  0.89295533  0.43579121  0.34362818  1
  S  S26  1  0.73617282  0.95945058  0.31340467  1
  S  S27  1  0.26743192  0.91557904  0.68540169  1
  S  S28  1  0.17677357  0.51725045  0.44742748  1
  S  S29  1  0.82526808  0.51510613  0.55160726  1
  S  S30  1  0.43302569  0.51012719  0.79424803  1
  S  S31  1  0.56686878  0.45248540  0.18989698  1
  S  S32  1  0.91949614  0.51460573  0.00148022  1
  S  S33  1  0.08359390  0.44827424  0.02659855  1
  S  S34  1  0.67017241  0.52903620  0.89917952  1
  S  S35  1  0.33105280  0.46614104  0.10855618  1
  S  S36  1  0.59835778  0.02992970  0.65043446  1
  S  S37  1  0.40235780  0.03345739  0.34006781  1
  S  S38  1  0.24719323  0.51694596  0.32301222  1
  S  S39  1  0.76307328  0.51384812  0.68162964  1
  S  S40  1  0.66194930  0.93425042  0.44686214  1
  S  S41  1  0.33230261  0.93567126  0.55311679  1
