# generated using pymatgen
data_Pr2Mn3(SbS3)4
_symmetry_space_group_name_H-M   'P 1'
_cell_length_a   20.02960800
_cell_length_b   3.90410600
_cell_length_c   14.95364829
_cell_angle_alpha   90.00000000
_cell_angle_beta   126.33350609
_cell_angle_gamma   90.00000000
_symmetry_Int_Tables_number   1
_chemical_formula_structural   Pr2Mn3(SbS3)4
_chemical_formula_sum   'Pr4 Mn6 Sb8 S24'
_cell_volume   942.00006694
_cell_formula_units_Z   2
loop_
 _symmetry_equiv_pos_site_id
 _symmetry_equiv_pos_as_xyz
  1  'x, y, z'
loop_
 _atom_site_type_symbol
 _atom_site_label
 _atom_site_symmetry_multiplicity
 _atom_site_fract_x
 _atom_site_fract_y
 _atom_site_fract_z
 _atom_site_occupancy
  Pr  Pr0  1  0.27184557  0.46804886  0.88499993  1
  Pr  Pr1  1  0.72453356  0.51481986  0.13132401  1
  Pr  Pr2  1  0.76103948  0.05163397  0.86878651  1
  Pr  Pr3  1  0.23628340  0.90978325  0.12845550  1
  Mn  Mn4  1  0.29807135  0.41679437  0.60999169  1
  Mn  Mn5  1  0.69732526  0.52881014  0.36822159  1
  Mn  Mn6  1  0.00650488  0.93995342  0.01200376  1
  Mn  Mn7  1  0.80455218  0.96577378  0.63508598  1
  Mn  Mn8  1  0.21266678  0.04745471  0.39788252  1
  Mn  Mn9  1  0.48398231  0.49572994  0.98557533  1
  Sb  Sb10  1  0.88871653  0.90571236  0.45979583  1
  Sb  Sb11  1  0.11264282  0.99642593  0.54332480  1
  Sb  Sb12  1  0.03454479  0.52207303  0.82481760  1
  Sb  Sb13  1  0.96271063  0.46182104  0.20108646  1
  Sb  Sb14  1  0.40712928  0.57254112  0.45216732  1
  Sb  Sb15  1  0.60196762  0.51178219  0.52718608  1
  Sb  Sb16  1  0.52642174  0.95382429  0.79111665  1
  Sb  Sb17  1  0.47056786  0.99221162  0.17871435  1
  S  S18  1  0.92932021  0.00578278  0.80167116  1
  S  S19  1  0.05626720  0.97910445  0.20218214  1
  S  S20  1  0.41368696  0.02673515  0.97718761  1
  S  S21  1  0.57962144  0.04548611  0.99568633  1
  S  S22  1  0.17231438  0.95872368  0.90152652  1
  S  S23  1  0.83413465  0.01198388  0.11476735  1
  S  S24  1  0.10376747  0.50744876  0.64681904  1
  S  S25  1  0.89309720  0.43552648  0.34381114  1
  S  S26  1  0.73652295  0.95839006  0.31355813  1
  S  S27  1  0.26724790  0.91606155  0.68515524  1
  S  S28  1  0.17688400  0.51621429  0.44754616  1
  S  S29  1  0.82545927  0.51540370  0.55203615  1
  S  S30  1  0.43299346  0.51031521  0.79421762  1
  S  S31  1  0.56680098  0.45279931  0.18974677  1
  S  S32  1  0.91966326  0.51521232  0.00154201  1
  S  S33  1  0.08360810  0.44820488  0.02662672  1
  S  S34  1  0.67034194  0.53030989  0.89931632  1
  S  S35  1  0.33091958  0.46714742  0.10862896  1
  S  S36  1  0.59790751  0.03067836  0.64984662  1
  S  S37  1  0.40222065  0.03447282  0.33962591  1
  S  S38  1  0.24709769  0.51708192  0.32298309  1
  S  S39  1  0.76269044  0.51417255  0.68150436  1
  S  S40  1  0.66179395  0.93481565  0.44655346  1
  S  S41  1  0.33218526  0.93456463  0.55315063  1
