# generated using pymatgen
data_Pr2Mn3(SbS3)4
_symmetry_space_group_name_H-M   'P 1'
_cell_length_a   20.02960800
_cell_length_b   3.90410600
_cell_length_c   14.95364829
_cell_angle_alpha   90.00000000
_cell_angle_beta   126.33350609
_cell_angle_gamma   90.00000000
_symmetry_Int_Tables_number   1
_chemical_formula_structural   Pr2Mn3(SbS3)4
_chemical_formula_sum   'Pr4 Mn6 Sb8 S24'
_cell_volume   942.00006694
_cell_formula_units_Z   2
loop_
 _symmetry_equiv_pos_site_id
 _symmetry_equiv_pos_as_xyz
  1  'x, y, z'
loop_
 _atom_site_type_symbol
 _atom_site_label
 _atom_site_symmetry_multiplicity
 _atom_site_fract_x
 _atom_site_fract_y
 _atom_site_fract_z
 _atom_site_occupancy
  Pr  Pr0  1  0.27179111  0.46823461  0.88475626  1
  Pr  Pr1  1  0.72451911  0.51472924  0.13136659  1
  Pr  Pr2  1  0.76096736  0.05130490  0.86879419  1
  Pr  Pr3  1  0.23633280  0.90987322  0.12846816  1
  Mn  Mn4  1  0.29797166  0.41718136  0.60989722  1
  Mn  Mn5  1  0.69712215  0.52844157  0.36834221  1
  Mn  Mn6  1  0.00652100  0.94044961  0.01155223  1
  Mn  Mn7  1  0.80456994  0.96673874  0.63510666  1
  Mn  Mn8  1  0.21263892  0.04800822  0.39802193  1
  Mn  Mn9  1  0.48392326  0.49621930  0.98537375  1
  Sb  Sb10  1  0.88856374  0.90521580  0.45976387  1
  Sb  Sb11  1  0.11250922  0.99657029  0.54320567  1
  Sb  Sb12  1  0.03438914  0.52177556  0.82479853  1
  Sb  Sb13  1  0.96268478  0.46172057  0.20123717  1
  Sb  Sb14  1  0.40721023  0.57179347  0.45213212  1
  Sb  Sb15  1  0.60199228  0.51205790  0.52715060  1
  Sb  Sb16  1  0.52643068  0.95309258  0.79097630  1
  Sb  Sb17  1  0.47036204  0.99220893  0.17864352  1
  S  S18  1  0.92924447  0.00712516  0.80148033  1
  S  S19  1  0.05612028  0.97860366  0.20209756  1
  S  S20  1  0.41377329  0.02663060  0.97700747  1
  S  S21  1  0.57962444  0.04533518  0.99561705  1
  S  S22  1  0.17217887  0.95796461  0.90156472  1
  S  S23  1  0.83419982  0.01317254  0.11477694  1
  S  S24  1  0.10407466  0.50724074  0.64717687  1
  S  S25  1  0.89322373  0.43524863  0.34393953  1
  S  S26  1  0.73683382  0.95794212  0.31360357  1
  S  S27  1  0.26699512  0.91639522  0.68490063  1
  S  S28  1  0.17693874  0.51526899  0.44750322  1
  S  S29  1  0.82541247  0.51599892  0.55225193  1
  S  S30  1  0.43302864  0.51032554  0.79420142  1
  S  S31  1  0.56685976  0.45318717  0.18976823  1
  S  S32  1  0.91971831  0.51591376  0.00140153  1
  S  S33  1  0.08358570  0.44801189  0.02662328  1
  S  S34  1  0.67046978  0.53190833  0.89959075  1
  S  S35  1  0.33078476  0.46789337  0.10883384  1
  S  S36  1  0.59753514  0.03109172  0.64935418  1
  S  S37  1  0.40219940  0.03544096  0.33924446  1
  S  S38  1  0.24710676  0.51781483  0.32308961  1
  S  S39  1  0.76238167  0.51467398  0.68161675  1
  S  S40  1  0.66150864  0.93517555  0.44617759  1
  S  S41  1  0.33216443  0.93347940  0.55330586  1
