# generated using pymatgen
data_Pr2Mn3(SbS3)4
_symmetry_space_group_name_H-M   'P 1'
_cell_length_a   20.02960800
_cell_length_b   3.90410600
_cell_length_c   14.95364829
_cell_angle_alpha   90.00000000
_cell_angle_beta   126.33350609
_cell_angle_gamma   90.00000000
_symmetry_Int_Tables_number   1
_chemical_formula_structural   Pr2Mn3(SbS3)4
_chemical_formula_sum   'Pr4 Mn6 Sb8 S24'
_cell_volume   942.00006694
_cell_formula_units_Z   2
loop_
 _symmetry_equiv_pos_site_id
 _symmetry_equiv_pos_as_xyz
  1  'x, y, z'
loop_
 _atom_site_type_symbol
 _atom_site_label
 _atom_site_symmetry_multiplicity
 _atom_site_fract_x
 _atom_site_fract_y
 _atom_site_fract_z
 _atom_site_occupancy
  Pr  Pr0  1  0.27178171  0.46822396  0.88456093  1
  Pr  Pr1  1  0.72452711  0.51469369  0.13146064  1
  Pr  Pr2  1  0.76083510  0.05092630  0.86875026  1
  Pr  Pr3  1  0.23642731  0.91006625  0.12847919  1
  Mn  Mn4  1  0.29785794  0.41720628  0.60975591  1
  Mn  Mn5  1  0.69690468  0.52777938  0.36833552  1
  Mn  Mn6  1  0.00662345  0.94100455  0.01117424  1
  Mn  Mn7  1  0.80461385  0.96790333  0.63517763  1
  Mn  Mn8  1  0.21262788  0.04853380  0.39812597  1
  Mn  Mn9  1  0.48383096  0.49684982  0.98507093  1
  Sb  Sb10  1  0.88843239  0.90482944  0.45976194  1
  Sb  Sb11  1  0.11239620  0.99669289  0.54311887  1
  Sb  Sb12  1  0.03422124  0.52130590  0.82479036  1
  Sb  Sb13  1  0.96270413  0.46161942  0.20135420  1
  Sb  Sb14  1  0.40729194  0.57075682  0.45210322  1
  Sb  Sb15  1  0.60200113  0.51231198  0.52711178  1
  Sb  Sb16  1  0.52645808  0.95250256  0.79086687  1
  Sb  Sb17  1  0.47017702  0.99202893  0.17858629  1
  S  S18  1  0.92911524  0.00846844  0.80115978  1
  S  S19  1  0.05610393  0.97823297  0.20215816  1
  S  S20  1  0.41390347  0.02653060  0.97687762  1
  S  S21  1  0.57963415  0.04563955  0.99555857  1
  S  S22  1  0.17198625  0.95718444  0.90158547  1
  S  S23  1  0.83430584  0.01493024  0.11499130  1
  S  S24  1  0.10445155  0.50685405  0.64760732  1
  S  S25  1  0.89344501  0.43541711  0.34413194  1
  S  S26  1  0.73706499  0.95760115  0.31371146  1
  S  S27  1  0.26681727  0.91670731  0.68463629  1
  S  S28  1  0.17689428  0.51472990  0.44729986  1
  S  S29  1  0.82536268  0.51635649  0.55246037  1
  S  S30  1  0.43289514  0.51050530  0.79399906  1
  S  S31  1  0.56691471  0.45347038  0.18978550  1
  S  S32  1  0.91974424  0.51605524  0.00125775  1
  S  S33  1  0.08343533  0.44772454  0.02653790  1
  S  S34  1  0.67059762  0.53332104  0.89984376  1
  S  S35  1  0.33069031  0.46837451  0.10900091  1
  S  S36  1  0.59720223  0.03171989  0.64887565  1
  S  S37  1  0.40226108  0.03642787  0.33893363  1
  S  S38  1  0.24708030  0.51884464  0.32308999  1
  S  S39  1  0.76201257  0.51529516  0.68156696  1
  S  S40  1  0.66113360  0.93563777  0.44564355  1
  S  S41  1  0.33229008  0.93300042  0.55352679  1
