# generated using pymatgen
data_Pr2Mn3(SbS3)4
_symmetry_space_group_name_H-M   'P 1'
_cell_length_a   20.02960800
_cell_length_b   3.90410600
_cell_length_c   14.95364829
_cell_angle_alpha   90.00000000
_cell_angle_beta   126.33350609
_cell_angle_gamma   90.00000000
_symmetry_Int_Tables_number   1
_chemical_formula_structural   Pr2Mn3(SbS3)4
_chemical_formula_sum   'Pr4 Mn6 Sb8 S24'
_cell_volume   942.00006694
_cell_formula_units_Z   2
loop_
 _symmetry_equiv_pos_site_id
 _symmetry_equiv_pos_as_xyz
  1  'x, y, z'
loop_
 _atom_site_type_symbol
 _atom_site_label
 _atom_site_symmetry_multiplicity
 _atom_site_fract_x
 _atom_site_fract_y
 _atom_site_fract_z
 _atom_site_occupancy
  Pr  Pr0  1  0.27181540  0.46820859  0.88438332  1
  Pr  Pr1  1  0.72452096  0.51485956  0.13146219  1
  Pr  Pr2  1  0.76071768  0.05073960  0.86870682  1
  Pr  Pr3  1  0.23649961  0.91037038  0.12852866  1
  Mn  Mn4  1  0.29784961  0.41730630  0.60966873  1
  Mn  Mn5  1  0.69669489  0.52714289  0.36830281  1
  Mn  Mn6  1  0.00669481  0.94113658  0.01086725  1
  Mn  Mn7  1  0.80466036  0.96921945  0.63529505  1
  Mn  Mn8  1  0.21258824  0.04893670  0.39826245  1
  Mn  Mn9  1  0.48366196  0.49730057  0.98463661  1
  Sb  Sb10  1  0.88833269  0.90457394  0.45978904  1
  Sb  Sb11  1  0.11231137  0.99674768  0.54307148  1
  Sb  Sb12  1  0.03409261  0.52068846  0.82486061  1
  Sb  Sb13  1  0.96272574  0.46171277  0.20145367  1
  Sb  Sb14  1  0.40744345  0.56974642  0.45213996  1
  Sb  Sb15  1  0.60201659  0.51259238  0.52713816  1
  Sb  Sb16  1  0.52643037  0.95209427  0.79082721  1
  Sb  Sb17  1  0.46999659  0.99197926  0.17851364  1
  S  S18  1  0.92882708  0.01001636  0.80066182  1
  S  S19  1  0.05607592  0.97795231  0.20207034  1
  S  S20  1  0.41400179  0.02634802  0.97681890  1
  S  S21  1  0.57957867  0.04585168  0.99548260  1
  S  S22  1  0.17178543  0.95622665  0.90161871  1
  S  S23  1  0.83453882  0.01656005  0.11519674  1
  S  S24  1  0.10472366  0.50571520  0.64780119  1
  S  S25  1  0.89356305  0.43540909  0.34432663  1
  S  S26  1  0.73720027  0.95790080  0.31374767  1
  S  S27  1  0.26673291  0.91749208  0.68463015  1
  S  S28  1  0.17668473  0.51413083  0.44708205  1
  S  S29  1  0.82529829  0.51718750  0.55264927  1
  S  S30  1  0.43277701  0.51034667  0.79378667  1
  S  S31  1  0.56683021  0.45344819  0.18972818  1
  S  S32  1  0.91979949  0.51591535  0.00119037  1
  S  S33  1  0.08323947  0.44759529  0.02639615  1
  S  S34  1  0.67084171  0.53413689  0.90020045  1
  S  S35  1  0.33052126  0.46853917  0.10916086  1
  S  S36  1  0.59693222  0.03252102  0.64829947  1
  S  S37  1  0.40242234  0.03815356  0.33878277  1
  S  S38  1  0.24717238  0.51951381  0.32302089  1
  S  S39  1  0.76154073  0.51560369  0.68145437  1
  S  S40  1  0.66076353  0.93645478  0.44511886  1
  S  S41  1  0.33249038  0.93219904  0.55381680  1
