# generated using pymatgen
data_Pr2Mn3(SbS3)4
_symmetry_space_group_name_H-M   'P 1'
_cell_length_a   20.02960800
_cell_length_b   3.90410600
_cell_length_c   14.95364829
_cell_angle_alpha   90.00000000
_cell_angle_beta   126.33350609
_cell_angle_gamma   90.00000000
_symmetry_Int_Tables_number   1
_chemical_formula_structural   Pr2Mn3(SbS3)4
_chemical_formula_sum   'Pr4 Mn6 Sb8 S24'
_cell_volume   942.00006694
_cell_formula_units_Z   2
loop_
 _symmetry_equiv_pos_site_id
 _symmetry_equiv_pos_as_xyz
  1  'x, y, z'
loop_
 _atom_site_type_symbol
 _atom_site_label
 _atom_site_symmetry_multiplicity
 _atom_site_fract_x
 _atom_site_fract_y
 _atom_site_fract_z
 _atom_site_occupancy
  Pr  Pr0  1  0.27188509  0.46844345  0.88423963  1
  Pr  Pr1  1  0.72461368  0.51525114  0.13160702  1
  Pr  Pr2  1  0.76060161  0.05091256  0.86863823  1
  Pr  Pr3  1  0.23658149  0.91052769  0.12853938  1
  Mn  Mn4  1  0.29786387  0.41695173  0.60952550  1
  Mn  Mn5  1  0.69644857  0.52643693  0.36816372  1
  Mn  Mn6  1  0.00686772  0.94105225  0.01065650  1
  Mn  Mn7  1  0.80468565  0.97048859  0.63538947  1
  Mn  Mn8  1  0.21261788  0.04872599  0.39855322  1
  Mn  Mn9  1  0.48351510  0.49774348  0.98415328  1
  Sb  Sb10  1  0.88825877  0.90443496  0.45985665  1
  Sb  Sb11  1  0.11220230  0.99691053  0.54295745  1
  Sb  Sb12  1  0.03401835  0.52000497  0.82500263  1
  Sb  Sb13  1  0.96268936  0.46170574  0.20149178  1
  Sb  Sb14  1  0.40762315  0.56892004  0.45225212  1
  Sb  Sb15  1  0.60192652  0.51299643  0.52706698  1
  Sb  Sb16  1  0.52640165  0.95134693  0.79079305  1
  Sb  Sb17  1  0.46985439  0.99190025  0.17849927  1
  S  S18  1  0.92852494  0.01165411  0.80020981  1
  S  S19  1  0.05605663  0.97767475  0.20188514  1
  S  S20  1  0.41405790  0.02638085  0.97658794  1
  S  S21  1  0.57966386  0.04573334  0.99547517  1
  S  S22  1  0.17151301  0.95579505  0.90165656  1
  S  S23  1  0.83461287  0.01837923  0.11526287  1
  S  S24  1  0.10489770  0.50455135  0.64796926  1
  S  S25  1  0.89372942  0.43565592  0.34468342  1
  S  S26  1  0.73730447  0.95808167  0.31381279  1
  S  S27  1  0.26677863  0.91833257  0.68471276  1
  S  S28  1  0.17661191  0.51365826  0.44700545  1
  S  S29  1  0.82528598  0.51823427  0.55272471  1
  S  S30  1  0.43253653  0.51007818  0.79334557  1
  S  S31  1  0.56673860  0.45293015  0.18976458  1
  S  S32  1  0.91972018  0.51540642  0.00104461  1
  S  S33  1  0.08306215  0.44743316  0.02623149  1
  S  S34  1  0.67094401  0.53461546  0.90046410  1
  S  S35  1  0.33029778  0.46830378  0.10911562  1
  S  S36  1  0.59667954  0.03288335  0.64781423  1
  S  S37  1  0.40264661  0.03976597  0.33872443  1
  S  S38  1  0.24723670  0.52004882  0.32290853  1
  S  S39  1  0.76116141  0.51605825  0.68135423  1
  S  S40  1  0.66032657  0.93729669  0.44456848  1
  S  S41  1  0.33267972  0.93122779  0.55406525  1
