# generated using pymatgen
data_Pr2Mn3(SbS3)4
_symmetry_space_group_name_H-M   'P 1'
_cell_length_a   20.02960800
_cell_length_b   3.90410600
_cell_length_c   14.95364829
_cell_angle_alpha   90.00000000
_cell_angle_beta   126.33350609
_cell_angle_gamma   90.00000000
_symmetry_Int_Tables_number   1
_chemical_formula_structural   Pr2Mn3(SbS3)4
_chemical_formula_sum   'Pr4 Mn6 Sb8 S24'
_cell_volume   942.00006694
_cell_formula_units_Z   2
loop_
 _symmetry_equiv_pos_site_id
 _symmetry_equiv_pos_as_xyz
  1  'x, y, z'
loop_
 _atom_site_type_symbol
 _atom_site_label
 _atom_site_symmetry_multiplicity
 _atom_site_fract_x
 _atom_site_fract_y
 _atom_site_fract_z
 _atom_site_occupancy
  Pr  Pr0  1  0.27196383  0.46865668  0.88414853  1
  Pr  Pr1  1  0.72468819  0.51564037  0.13167921  1
  Pr  Pr2  1  0.76047011  0.05122614  0.86856656  1
  Pr  Pr3  1  0.23665887  0.91077924  0.12853686  1
  Mn  Mn4  1  0.29783102  0.41650852  0.60941024  1
  Mn  Mn5  1  0.69618418  0.52563225  0.36803857  1
  Mn  Mn6  1  0.00701948  0.94128896  0.01050476  1
  Mn  Mn7  1  0.80468619  0.97123547  0.63550437  1
  Mn  Mn8  1  0.21261258  0.04834769  0.39875455  1
  Mn  Mn9  1  0.48342450  0.49780837  0.98370222  1
  Sb  Sb10  1  0.88820819  0.90405754  0.45997836  1
  Sb  Sb11  1  0.11206319  0.99713550  0.54279224  1
  Sb  Sb12  1  0.03391263  0.51931602  0.82503913  1
  Sb  Sb13  1  0.96260295  0.46166887  0.20146648  1
  Sb  Sb14  1  0.40787872  0.56812870  0.45250136  1
  Sb  Sb15  1  0.60188059  0.51317668  0.52697375  1
  Sb  Sb16  1  0.52640623  0.95069698  0.79080086  1
  Sb  Sb17  1  0.46970253  0.99149910  0.17846015  1
  S  S18  1  0.92831414  0.01340668  0.79988386  1
  S  S19  1  0.05606516  0.97740556  0.20176959  1
  S  S20  1  0.41397510  0.02623113  0.97619627  1
  S  S21  1  0.57972143  0.04545217  0.99534902  1
  S  S22  1  0.17131180  0.95524031  0.90168979  1
  S  S23  1  0.83478786  0.01985385  0.11542314  1
  S  S24  1  0.10508855  0.50331694  0.64828871  1
  S  S25  1  0.89386830  0.43605221  0.34507919  1
  S  S26  1  0.73733165  0.95851845  0.31383142  1
  S  S27  1  0.26675555  0.91899213  0.68474621  1
  S  S28  1  0.17653850  0.51323458  0.44700236  1
  S  S29  1  0.82541369  0.51879173  0.55292903  1
  S  S30  1  0.43232123  0.50961302  0.79299868  1
  S  S31  1  0.56664137  0.45237393  0.18975026  1
  S  S32  1  0.91970865  0.51527012  0.00096870  1
  S  S33  1  0.08288718  0.44750047  0.02590926  1
  S  S34  1  0.67095771  0.53513566  0.90074384  1
  S  S35  1  0.33001887  0.46800780  0.10898904  1
  S  S36  1  0.59649258  0.03289657  0.64742645  1
  S  S37  1  0.40275430  0.04146337  0.33865541  1
  S  S38  1  0.24729062  0.52080821  0.32269532  1
  S  S39  1  0.76068245  0.51623529  0.68115226  1
  S  S40  1  0.66003947  0.93830435  0.44421102  1
  S  S41  1  0.33285264  0.93022214  0.55420117  1
