# generated using pymatgen
data_Pr2Mn3(SbS3)4
_symmetry_space_group_name_H-M   'P 1'
_cell_length_a   20.02960800
_cell_length_b   3.90410600
_cell_length_c   14.95364829
_cell_angle_alpha   90.00000000
_cell_angle_beta   126.33350609
_cell_angle_gamma   90.00000000
_symmetry_Int_Tables_number   1
_chemical_formula_structural   Pr2Mn3(SbS3)4
_chemical_formula_sum   'Pr4 Mn6 Sb8 S24'
_cell_volume   942.00006694
_cell_formula_units_Z   2
loop_
 _symmetry_equiv_pos_site_id
 _symmetry_equiv_pos_as_xyz
  1  'x, y, z'
loop_
 _atom_site_type_symbol
 _atom_site_label
 _atom_site_symmetry_multiplicity
 _atom_site_fract_x
 _atom_site_fract_y
 _atom_site_fract_z
 _atom_site_occupancy
  Pr  Pr0  1  0.26463059  0.47982542  0.86937584  1
  Pr  Pr1  1  0.73810494  0.51248765  0.13597134  1
  Pr  Pr2  1  0.76344918  0.00807508  0.86323442  1
  Pr  Pr3  1  0.23607974  0.99750383  0.13885470  1
  Mn  Mn4  1  0.29382746  0.48763807  0.60624745  1
  Mn  Mn5  1  0.69502109  0.52702432  0.37959385  1
  Mn  Mn6  1  0.00450938  0.99658946  0.00170145  1
  Mn  Mn7  1  0.80336255  0.99356373  0.61668674  1
  Mn  Mn8  1  0.19600893  0.97099576  0.37878905  1
  Mn  Mn9  1  0.50214346  0.47126122  0.99462412  1
  Sb  Sb10  1  0.89139965  0.99808259  0.45392518  1
  Sb  Sb11  1  0.11194422  0.96825876  0.55237453  1
  Sb  Sb12  1  0.04032401  0.51018822  0.81684244  1
  Sb  Sb13  1  0.96225474  0.53053826  0.18687202  1
  Sb  Sb14  1  0.39928738  0.50377291  0.45846147  1
  Sb  Sb15  1  0.60570284  0.48444095  0.54720727  1
  Sb  Sb16  1  0.53451382  0.00920253  0.81274795  1
  Sb  Sb17  1  0.46144952  0.00639417  0.18190080  1
  S  S18  1  0.93757925  0.96940002  0.80033799  1
  S  S19  1  0.06630064  0.97783019  0.19102026  1
  S  S20  1  0.40872415  0.01720044  0.97830664  1
  S  S21  1  0.59341461  0.00094219  0.02490148  1
  S  S22  1  0.17322527  0.98350930  0.89587216  1
  S  S23  1  0.82564382  0.01456175  0.09900638  1
  S  S24  1  0.08599115  0.45749809  0.64597254  1
  S  S25  1  0.91370697  0.48747600  0.35964639  1
  S  S26  1  0.74049712  0.95235462  0.29908594  1
  S  S27  1  0.25692910  0.99880900  0.70147501  1
  S  S28  1  0.16841767  0.48934749  0.44732209  1
  S  S29  1  0.82935636  0.47954157  0.55049833  1
  S  S30  1  0.43209918  0.50096712  0.79887672  1
  S  S31  1  0.56226480  0.53172286  0.18887856  1
  S  S32  1  0.90748071  0.49624348  0.98536497  1
  S  S33  1  0.08390834  0.49494054  0.01595400  1
  S  S34  1  0.66468692  0.50326643  0.89081155  1
  S  S35  1  0.32864351  0.52695818  0.09947226  1
  S  S36  1  0.59119238  0.00489651  0.65164262  1
  S  S37  1  0.40796425  0.96512068  0.34851162  1
  S  S38  1  0.24367761  0.47423706  0.30581139  1
  S  S39  1  0.75999254  0.50624369  0.69886468  1
  S  S40  1  0.67371474  0.01711405  0.46050186  1
  S  S41  1  0.32935623  0.98975884  0.54043738  1
