# generated using pymatgen
data_Pr2Mn3(SbS3)4
_symmetry_space_group_name_H-M   'P 1'
_cell_length_a   20.02960800
_cell_length_b   3.90410600
_cell_length_c   14.95364829
_cell_angle_alpha   90.00000000
_cell_angle_beta   126.33350609
_cell_angle_gamma   90.00000000
_symmetry_Int_Tables_number   1
_chemical_formula_structural   Pr2Mn3(SbS3)4
_chemical_formula_sum   'Pr4 Mn6 Sb8 S24'
_cell_volume   942.00006694
_cell_formula_units_Z   2
loop_
 _symmetry_equiv_pos_site_id
 _symmetry_equiv_pos_as_xyz
  1  'x, y, z'
loop_
 _atom_site_type_symbol
 _atom_site_label
 _atom_site_symmetry_multiplicity
 _atom_site_fract_x
 _atom_site_fract_y
 _atom_site_fract_z
 _atom_site_occupancy
  Pr  Pr0  1  0.27206900  0.46877075  0.88406727  1
  Pr  Pr1  1  0.72476579  0.51577112  0.13169631  1
  Pr  Pr2  1  0.76034510  0.05162180  0.86837408  1
  Pr  Pr3  1  0.23670033  0.91083814  0.12849666  1
  Mn  Mn4  1  0.29781172  0.41598346  0.60927951  1
  Mn  Mn5  1  0.69596755  0.52518414  0.36803318  1
  Mn  Mn6  1  0.00713307  0.94147629  0.01034506  1
  Mn  Mn7  1  0.80463915  0.97181382  0.63556300  1
  Mn  Mn8  1  0.21256494  0.04796860  0.39889726  1
  Mn  Mn9  1  0.48334498  0.49757213  0.98338294  1
  Sb  Sb10  1  0.88814038  0.90361807  0.45998356  1
  Sb  Sb11  1  0.11199923  0.99714463  0.54271418  1
  Sb  Sb12  1  0.03383773  0.51856932  0.82505166  1
  Sb  Sb13  1  0.96248156  0.46162710  0.20142673  1
  Sb  Sb14  1  0.40811845  0.56722953  0.45272783  1
  Sb  Sb15  1  0.60186594  0.51344523  0.52693659  1
  Sb  Sb16  1  0.52635952  0.95031936  0.79079033  1
  Sb  Sb17  1  0.46956239  0.99095159  0.17841348  1
  S  S18  1  0.92811879  0.01516314  0.79963161  1
  S  S19  1  0.05612132  0.97773161  0.20168024  1
  S  S20  1  0.41395543  0.02557455  0.97579088  1
  S  S21  1  0.57974989  0.04481030  0.99516680  1
  S  S22  1  0.17101609  0.95460251  0.90157690  1
  S  S23  1  0.83489423  0.02059351  0.11546211  1
  S  S24  1  0.10520556  0.50277965  0.64870322  1
  S  S25  1  0.89403606  0.43656217  0.34534266  1
  S  S26  1  0.73733139  0.95874318  0.31376237  1
  S  S27  1  0.26666980  0.91959738  0.68472549  1
  S  S28  1  0.17641260  0.51271175  0.44697521  1
  S  S29  1  0.82549596  0.51915774  0.55304661  1
  S  S30  1  0.43216182  0.50968516  0.79277127  1
  S  S31  1  0.56655663  0.45185863  0.18980964  1
  S  S32  1  0.91972449  0.51470744  0.00096422  1
  S  S33  1  0.08260329  0.44759250  0.02555528  1
  S  S34  1  0.67110451  0.53581992  0.90116301  1
  S  S35  1  0.32978455  0.46796726  0.10898560  1
  S  S36  1  0.59629427  0.03308989  0.64712636  1
  S  S37  1  0.40287008  0.04297760  0.33858293  1
  S  S38  1  0.24731817  0.52147536  0.32230291  1
  S  S39  1  0.76017703  0.51722095  0.68110029  1
  S  S40  1  0.65973706  0.93923654  0.44378497  1
  S  S41  1  0.33316320  0.92953171  0.55439595  1
