# generated using pymatgen
data_Pr2Mn3(SbS3)4
_symmetry_space_group_name_H-M   'P 1'
_cell_length_a   20.02960800
_cell_length_b   3.90410600
_cell_length_c   14.95364829
_cell_angle_alpha   90.00000000
_cell_angle_beta   126.33350609
_cell_angle_gamma   90.00000000
_symmetry_Int_Tables_number   1
_chemical_formula_structural   Pr2Mn3(SbS3)4
_chemical_formula_sum   'Pr4 Mn6 Sb8 S24'
_cell_volume   942.00006694
_cell_formula_units_Z   2
loop_
 _symmetry_equiv_pos_site_id
 _symmetry_equiv_pos_as_xyz
  1  'x, y, z'
loop_
 _atom_site_type_symbol
 _atom_site_label
 _atom_site_symmetry_multiplicity
 _atom_site_fract_x
 _atom_site_fract_y
 _atom_site_fract_z
 _atom_site_occupancy
  Pr  Pr0  1  0.27218664  0.46885176  0.88397914  1
  Pr  Pr1  1  0.72480436  0.51591167  0.13172772  1
  Pr  Pr2  1  0.76023449  0.05231887  0.86821203  1
  Pr  Pr3  1  0.23672662  0.91119562  0.12838393  1
  Mn  Mn4  1  0.29776578  0.41525604  0.60916150  1
  Mn  Mn5  1  0.69579374  0.52462347  0.36799654  1
  Mn  Mn6  1  0.00726369  0.94153901  0.01008960  1
  Mn  Mn7  1  0.80464669  0.97280346  0.63572853  1
  Mn  Mn8  1  0.21261345  0.04780264  0.39918124  1
  Mn  Mn9  1  0.48316554  0.49728102  0.98298291  1
  Sb  Sb10  1  0.88814646  0.90318419  0.46000558  1
  Sb  Sb11  1  0.11199404  0.99718050  0.54268703  1
  Sb  Sb12  1  0.03382921  0.51819193  0.82515016  1
  Sb  Sb13  1  0.96235736  0.46158464  0.20138925  1
  Sb  Sb14  1  0.40827377  0.56656550  0.45290962  1
  Sb  Sb15  1  0.60185401  0.51377921  0.52691883  1
  Sb  Sb16  1  0.52631272  0.94984434  0.79080493  1
  Sb  Sb17  1  0.46944030  0.99028003  0.17836262  1
  S  S18  1  0.92782226  0.01705809  0.79938743  1
  S  S19  1  0.05615675  0.97839874  0.20165233  1
  S  S20  1  0.41400567  0.02543740  0.97546400  1
  S  S21  1  0.57981098  0.04432321  0.99512346  1
  S  S22  1  0.17066173  0.95327095  0.90129627  1
  S  S23  1  0.83492980  0.02132714  0.11540236  1
  S  S24  1  0.10532480  0.50221253  0.64898007  1
  S  S25  1  0.89413339  0.43680857  0.34556325  1
  S  S26  1  0.73724511  0.95937690  0.31369893  1
  S  S27  1  0.26647317  0.92018912  0.68474181  1
  S  S28  1  0.17634693  0.51259546  0.44693509  1
  S  S29  1  0.82557757  0.51957899  0.55300747  1
  S  S30  1  0.43198159  0.50961047  0.79257552  1
  S  S31  1  0.56643082  0.45194377  0.18977770  1
  S  S32  1  0.91980307  0.51419392  0.00107385  1
  S  S33  1  0.08235087  0.44748469  0.02522274  1
  S  S34  1  0.67112190  0.53687153  0.90155251  1
  S  S35  1  0.32962868  0.46790108  0.10914167  1
  S  S36  1  0.59634347  0.03295938  0.64704895  1
  S  S37  1  0.40298159  0.04424583  0.33848148  1
  S  S38  1  0.24738370  0.52236069  0.32202519  1
  S  S39  1  0.75974020  0.51795626  0.68107670  1
  S  S40  1  0.65948469  0.93975335  0.44342758  1
  S  S41  1  0.33357175  0.92891518  0.55464438  1
