# generated using pymatgen
data_Pr2Mn3(SbS3)4
_symmetry_space_group_name_H-M   'P 1'
_cell_length_a   20.02960800
_cell_length_b   3.90410600
_cell_length_c   14.95364829
_cell_angle_alpha   90.00000000
_cell_angle_beta   126.33350609
_cell_angle_gamma   90.00000000
_symmetry_Int_Tables_number   1
_chemical_formula_structural   Pr2Mn3(SbS3)4
_chemical_formula_sum   'Pr4 Mn6 Sb8 S24'
_cell_volume   942.00006694
_cell_formula_units_Z   2
loop_
 _symmetry_equiv_pos_site_id
 _symmetry_equiv_pos_as_xyz
  1  'x, y, z'
loop_
 _atom_site_type_symbol
 _atom_site_label
 _atom_site_symmetry_multiplicity
 _atom_site_fract_x
 _atom_site_fract_y
 _atom_site_fract_z
 _atom_site_occupancy
  Pr  Pr0  1  0.27230874  0.46878694  0.88393023  1
  Pr  Pr1  1  0.72485198  0.51590071  0.13179401  1
  Pr  Pr2  1  0.76012209  0.05310860  0.86807591  1
  Pr  Pr3  1  0.23673768  0.91175239  0.12833382  1
  Mn  Mn4  1  0.29769672  0.41443078  0.60895529  1
  Mn  Mn5  1  0.69569060  0.52438633  0.36812804  1
  Mn  Mn6  1  0.00726184  0.94150220  0.00970488  1
  Mn  Mn7  1  0.80475615  0.97360121  0.63587307  1
  Mn  Mn8  1  0.21259977  0.04704515  0.39935463  1
  Mn  Mn9  1  0.48312121  0.49664647  0.98268030  1
  Sb  Sb10  1  0.88821772  0.90292545  0.46008290  1
  Sb  Sb11  1  0.11206095  0.99724601  0.54273707  1
  Sb  Sb12  1  0.03374174  0.51801657  0.82517497  1
  Sb  Sb13  1  0.96223785  0.46150739  0.20137940  1
  Sb  Sb14  1  0.40841715  0.56582458  0.45312159  1
  Sb  Sb15  1  0.60184185  0.51411046  0.52696927  1
  Sb  Sb16  1  0.52624401  0.94928172  0.79078666  1
  Sb  Sb17  1  0.46932226  0.98945963  0.17830604  1
  S  S18  1  0.92767948  0.01925275  0.79917634  1
  S  S19  1  0.05619554  0.97843849  0.20154126  1
  S  S20  1  0.41402354  0.02516262  0.97518375  1
  S  S21  1  0.57992537  0.04365911  0.99521906  1
  S  S22  1  0.17035972  0.95200301  0.90107981  1
  S  S23  1  0.83492216  0.02158647  0.11519229  1
  S  S24  1  0.10553533  0.50186098  0.64921300  1
  S  S25  1  0.89421198  0.43708092  0.34561738  1
  S  S26  1  0.73707936  0.96003366  0.31348229  1
  S  S27  1  0.26639187  0.92069416  0.68478186  1
  S  S28  1  0.17635839  0.51273273  0.44689722  1
  S  S29  1  0.82567269  0.52024670  0.55301052  1
  S  S30  1  0.43193697  0.50980718  0.79266306  1
  S  S31  1  0.56627308  0.45219671  0.18971686  1
  S  S32  1  0.91983965  0.51386125  0.00106154  1
  S  S33  1  0.08226906  0.44680823  0.02511294  1
  S  S34  1  0.67107558  0.53788110  0.90188532  1
  S  S35  1  0.32941786  0.46743765  0.10925611  1
  S  S36  1  0.59628845  0.03245140  0.64690286  1
  S  S37  1  0.40315794  0.04553222  0.33853097  1
  S  S38  1  0.24742110  0.52341228  0.32170865  1
  S  S39  1  0.75942659  0.51846959  0.68110385  1
  S  S40  1  0.65925386  0.93983424  0.44312316  1
  S  S41  1  0.33396969  0.92820412  0.55499127  1
