# generated using pymatgen
data_Pr2Mn3(SbS3)4
_symmetry_space_group_name_H-M   'P 1'
_cell_length_a   20.02960800
_cell_length_b   3.90410600
_cell_length_c   14.95364829
_cell_angle_alpha   90.00000000
_cell_angle_beta   126.33350609
_cell_angle_gamma   90.00000000
_symmetry_Int_Tables_number   1
_chemical_formula_structural   Pr2Mn3(SbS3)4
_chemical_formula_sum   'Pr4 Mn6 Sb8 S24'
_cell_volume   942.00006694
_cell_formula_units_Z   2
loop_
 _symmetry_equiv_pos_site_id
 _symmetry_equiv_pos_as_xyz
  1  'x, y, z'
loop_
 _atom_site_type_symbol
 _atom_site_label
 _atom_site_symmetry_multiplicity
 _atom_site_fract_x
 _atom_site_fract_y
 _atom_site_fract_z
 _atom_site_occupancy
  Pr  Pr0  1  0.27243686  0.46886317  0.88391625  1
  Pr  Pr1  1  0.72485978  0.51565858  0.13185835  1
  Pr  Pr2  1  0.76004344  0.05405533  0.86794679  1
  Pr  Pr3  1  0.23677162  0.91246898  0.12832084  1
  Mn  Mn4  1  0.29758000  0.41355746  0.60872978  1
  Mn  Mn5  1  0.69554769  0.52373038  0.36819879  1
  Mn  Mn6  1  0.00727708  0.94142214  0.00935820  1
  Mn  Mn7  1  0.80488099  0.97379190  0.63612351  1
  Mn  Mn8  1  0.21257690  0.04615246  0.39956643  1
  Mn  Mn9  1  0.48298523  0.49644895  0.98228641  1
  Sb  Sb10  1  0.88828151  0.90264421  0.46014079  1
  Sb  Sb11  1  0.11213449  0.99763459  0.54273698  1
  Sb  Sb12  1  0.03369542  0.51783677  0.82527813  1
  Sb  Sb13  1  0.96213960  0.46146936  0.20137620  1
  Sb  Sb14  1  0.40855001  0.56501315  0.45329994  1
  Sb  Sb15  1  0.60184025  0.51432833  0.52703181  1
  Sb  Sb16  1  0.52613449  0.94870995  0.79078302  1
  Sb  Sb17  1  0.46922071  0.98883550  0.17823632  1
  S  S18  1  0.92751653  0.02116078  0.79894024  1
  S  S19  1  0.05635826  0.97759448  0.20158273  1
  S  S20  1  0.41405406  0.02560395  0.97495646  1
  S  S21  1  0.58015769  0.04317838  0.99528572  1
  S  S22  1  0.17002222  0.95080664  0.90097395  1
  S  S23  1  0.83496489  0.02183892  0.11492315  1
  S  S24  1  0.10558492  0.50213808  0.64932743  1
  S  S25  1  0.89414072  0.43725877  0.34547573  1
  S  S26  1  0.73680407  0.96091585  0.31317873  1
  S  S27  1  0.26638647  0.92153637  0.68492355  1
  S  S28  1  0.17640131  0.51306444  0.44685415  1
  S  S29  1  0.82577315  0.52079434  0.55283928  1
  S  S30  1  0.43197767  0.50964519  0.79275710  1
  S  S31  1  0.56616375  0.45256260  0.18966725  1
  S  S32  1  0.91989025  0.51333429  0.00104507  1
  S  S33  1  0.08233405  0.44599696  0.02505743  1
  S  S34  1  0.67109549  0.53870042  0.90226384  1
  S  S35  1  0.32923367  0.46695701  0.10931334  1
  S  S36  1  0.59624216  0.03248473  0.64671889  1
  S  S37  1  0.40329183  0.04683405  0.33858157  1
  S  S38  1  0.24753240  0.52440569  0.32153353  1
  S  S39  1  0.75918247  0.51861247  0.68123470  1
  S  S40  1  0.65897484  0.93992622  0.44264497  1
  S  S41  1  0.33429706  0.92807875  0.55528314  1
