# generated using pymatgen
data_Pr2Mn3(SbS3)4
_symmetry_space_group_name_H-M   'P 1'
_cell_length_a   20.02960800
_cell_length_b   3.90410600
_cell_length_c   14.95364829
_cell_angle_alpha   90.00000000
_cell_angle_beta   126.33350609
_cell_angle_gamma   90.00000000
_symmetry_Int_Tables_number   1
_chemical_formula_structural   Pr2Mn3(SbS3)4
_chemical_formula_sum   'Pr4 Mn6 Sb8 S24'
_cell_volume   942.00006694
_cell_formula_units_Z   2
loop_
 _symmetry_equiv_pos_site_id
 _symmetry_equiv_pos_as_xyz
  1  'x, y, z'
loop_
 _atom_site_type_symbol
 _atom_site_label
 _atom_site_symmetry_multiplicity
 _atom_site_fract_x
 _atom_site_fract_y
 _atom_site_fract_z
 _atom_site_occupancy
  Pr  Pr0  1  0.27261205  0.46881959  0.88389626  1
  Pr  Pr1  1  0.72483774  0.51555550  0.13192706  1
  Pr  Pr2  1  0.75998189  0.05471338  0.86780361  1
  Pr  Pr3  1  0.23682851  0.91301138  0.12832187  1
  Mn  Mn4  1  0.29744415  0.41249048  0.60848676  1
  Mn  Mn5  1  0.69544039  0.52303709  0.36828829  1
  Mn  Mn6  1  0.00720371  0.94136105  0.00905459  1
  Mn  Mn7  1  0.80485820  0.97413793  0.63623404  1
  Mn  Mn8  1  0.21254658  0.04527923  0.39970146  1
  Mn  Mn9  1  0.48296834  0.49655657  0.98208483  1
  Sb  Sb10  1  0.88837674  0.90243686  0.46024214  1
  Sb  Sb11  1  0.11217922  0.99813447  0.54272093  1
  Sb  Sb12  1  0.03369644  0.51779388  0.82541238  1
  Sb  Sb13  1  0.96208132  0.46144974  0.20132706  1
  Sb  Sb14  1  0.40865238  0.56415148  0.45344092  1
  Sb  Sb15  1  0.60176558  0.51447164  0.52702710  1
  Sb  Sb16  1  0.52599683  0.94800724  0.79080130  1
  Sb  Sb17  1  0.46910996  0.98847519  0.17819159  1
  S  S18  1  0.92730455  0.02279299  0.79863229  1
  S  S19  1  0.05654978  0.97743078  0.20163656  1
  S  S20  1  0.41399627  0.02596668  0.97455952  1
  S  S21  1  0.58037351  0.04301520  0.99521945  1
  S  S22  1  0.16962040  0.94979333  0.90083741  1
  S  S23  1  0.83508539  0.02162643  0.11479732  1
  S  S24  1  0.10565642  0.50293541  0.64933874  1
  S  S25  1  0.89417898  0.43752143  0.34559394  1
  S  S26  1  0.73655584  0.96156890  0.31287713  1
  S  S27  1  0.26648009  0.92251321  0.68506502  1
  S  S28  1  0.17636469  0.51290877  0.44674657  1
  S  S29  1  0.82585649  0.52095850  0.55287217  1
  S  S30  1  0.43204393  0.51013288  0.79282867  1
  S  S31  1  0.56601688  0.45299964  0.18968604  1
  S  S32  1  0.91994233  0.51292263  0.00101096  1
  S  S33  1  0.08240258  0.44527415  0.02496694  1
  S  S34  1  0.67099798  0.53869048  0.90247239  1
  S  S35  1  0.32917585  0.46580157  0.10936367  1
  S  S36  1  0.59622344  0.03235059  0.64653852  1
  S  S37  1  0.40350524  0.04808958  0.33877784  1
  S  S38  1  0.24755734  0.52537538  0.32128453  1
  S  S39  1  0.75892688  0.51921848  0.68151277  1
  S  S40  1  0.65874671  0.93981036  0.44238524  1
  S  S41  1  0.33464371  0.92791820  0.55557208  1
