# generated using pymatgen
data_Pr2Mn3(SbS3)4
_symmetry_space_group_name_H-M   'P 1'
_cell_length_a   20.02960800
_cell_length_b   3.90410600
_cell_length_c   14.95364829
_cell_angle_alpha   90.00000000
_cell_angle_beta   126.33350609
_cell_angle_gamma   90.00000000
_symmetry_Int_Tables_number   1
_chemical_formula_structural   Pr2Mn3(SbS3)4
_chemical_formula_sum   'Pr4 Mn6 Sb8 S24'
_cell_volume   942.00006694
_cell_formula_units_Z   2
loop_
 _symmetry_equiv_pos_site_id
 _symmetry_equiv_pos_as_xyz
  1  'x, y, z'
loop_
 _atom_site_type_symbol
 _atom_site_label
 _atom_site_symmetry_multiplicity
 _atom_site_fract_x
 _atom_site_fract_y
 _atom_site_fract_z
 _atom_site_occupancy
  Pr  Pr0  1  0.27273713  0.46860219  0.88387700  1
  Pr  Pr1  1  0.72480755  0.51541739  0.13202261  1
  Pr  Pr2  1  0.75989845  0.05535942  0.86761346  1
  Pr  Pr3  1  0.23684950  0.91357849  0.12828414  1
  Mn  Mn4  1  0.29745813  0.41184161  0.60831541  1
  Mn  Mn5  1  0.69527871  0.52211839  0.36828223  1
  Mn  Mn6  1  0.00717558  0.94093143  0.00882200  1
  Mn  Mn7  1  0.80486391  0.97419374  0.63643217  1
  Mn  Mn8  1  0.21250308  0.04486377  0.39982030  1
  Mn  Mn9  1  0.48298009  0.49667194  0.98189678  1
  Sb  Sb10  1  0.88843932  0.90268052  0.46034186  1
  Sb  Sb11  1  0.11227046  0.99831001  0.54269254  1
  Sb  Sb12  1  0.03366684  0.51779351  0.82553759  1
  Sb  Sb13  1  0.96207359  0.46137808  0.20138917  1
  Sb  Sb14  1  0.40873277  0.56352831  0.45347397  1
  Sb  Sb15  1  0.60165746  0.51464890  0.52700316  1
  Sb  Sb16  1  0.52583614  0.94717099  0.79080320  1
  Sb  Sb17  1  0.46903506  0.98764394  0.17818507  1
  S  S18  1  0.92705545  0.02406643  0.79815299  1
  S  S19  1  0.05683907  0.97782235  0.20173123  1
  S  S20  1  0.41397441  0.02594768  0.97406986  1
  S  S21  1  0.58056157  0.04295915  0.99526788  1
  S  S22  1  0.16935779  0.94930134  0.90086126  1
  S  S23  1  0.83517379  0.02153862  0.11474988  1
  S  S24  1  0.10577047  0.50329784  0.64946918  1
  S  S25  1  0.89426747  0.43842750  0.34576753  1
  S  S26  1  0.73622644  0.96219514  0.31233918  1
  S  S27  1  0.26651270  0.92348640  0.68506148  1
  S  S28  1  0.17636986  0.51293445  0.44686698  1
  S  S29  1  0.82596465  0.52165466  0.55294877  1
  S  S30  1  0.43216009  0.51029091  0.79297490  1
  S  S31  1  0.56595441  0.45304911  0.18970694  1
  S  S32  1  0.92000006  0.51265147  0.00095300  1
  S  S33  1  0.08255042  0.44480250  0.02495147  1
  S  S34  1  0.67090842  0.53881230  0.90271251  1
  S  S35  1  0.32914585  0.46488780  0.10946332  1
  S  S36  1  0.59624396  0.03167580  0.64651013  1
  S  S37  1  0.40361440  0.04875231  0.33889067  1
  S  S38  1  0.24757009  0.52652465  0.32105909  1
  S  S39  1  0.75868808  0.51945843  0.68170011  1
  S  S40  1  0.65853965  0.93924501  0.44216609  1
  S  S41  1  0.33488716  0.92737368  0.55578944  1
