# generated using pymatgen
data_Pr2Mn3(SbS3)4
_symmetry_space_group_name_H-M   'P 1'
_cell_length_a   20.02960800
_cell_length_b   3.90410600
_cell_length_c   14.95364829
_cell_angle_alpha   90.00000000
_cell_angle_beta   126.33350609
_cell_angle_gamma   90.00000000
_symmetry_Int_Tables_number   1
_chemical_formula_structural   Pr2Mn3(SbS3)4
_chemical_formula_sum   'Pr4 Mn6 Sb8 S24'
_cell_volume   942.00006694
_cell_formula_units_Z   2
loop_
 _symmetry_equiv_pos_site_id
 _symmetry_equiv_pos_as_xyz
  1  'x, y, z'
loop_
 _atom_site_type_symbol
 _atom_site_label
 _atom_site_symmetry_multiplicity
 _atom_site_fract_x
 _atom_site_fract_y
 _atom_site_fract_z
 _atom_site_occupancy
  Pr  Pr0  1  0.27283599  0.46837801  0.88391011  1
  Pr  Pr1  1  0.72475042  0.51540713  0.13216120  1
  Pr  Pr2  1  0.75979476  0.05565952  0.86738563  1
  Pr  Pr3  1  0.23686060  0.91380366  0.12824811  1
  Mn  Mn4  1  0.29750199  0.41162401  0.60825613  1
  Mn  Mn5  1  0.69510338  0.52128786  0.36816857  1
  Mn  Mn6  1  0.00709428  0.94056559  0.00857803  1
  Mn  Mn7  1  0.80489728  0.97430779  0.63663918  1
  Mn  Mn8  1  0.21248526  0.04472799  0.39993288  1
  Mn  Mn9  1  0.48301146  0.49655599  0.98182890  1
  Sb  Sb10  1  0.88843311  0.90256879  0.46044875  1
  Sb  Sb11  1  0.11240838  0.99872382  0.54274078  1
  Sb  Sb12  1  0.03369800  0.51786269  0.82568894  1
  Sb  Sb13  1  0.96207167  0.46106452  0.20140896  1
  Sb  Sb14  1  0.40882066  0.56303657  0.45348904  1
  Sb  Sb15  1  0.60156691  0.51475180  0.52705239  1
  Sb  Sb16  1  0.52566775  0.94651644  0.79076626  1
  Sb  Sb17  1  0.46896443  0.98701754  0.17813073  1
  S  S18  1  0.92679148  0.02479016  0.79763537  1
  S  S19  1  0.05706567  0.97776285  0.20179088  1
  S  S20  1  0.41396696  0.02554538  0.97368296  1
  S  S21  1  0.58075573  0.04343819  0.99541859  1
  S  S22  1  0.16899069  0.94910575  0.90081243  1
  S  S23  1  0.83523461  0.02186021  0.11468933  1
  S  S24  1  0.10581540  0.50400007  0.64947801  1
  S  S25  1  0.89443060  0.43921053  0.34592818  1
  S  S26  1  0.73588925  0.96307131  0.31184686  1
  S  S27  1  0.26661848  0.92453711  0.68513317  1
  S  S28  1  0.17642263  0.51312909  0.44697971  1
  S  S29  1  0.82618829  0.52233695  0.55308981  1
  S  S30  1  0.43220663  0.51055389  0.79306620  1
  S  S31  1  0.56585674  0.45284376  0.18959599  1
  S  S32  1  0.91992805  0.51243935  0.00082401  1
  S  S33  1  0.08272314  0.44393146  0.02473405  1
  S  S34  1  0.67076416  0.53864850  0.90303194  1
  S  S35  1  0.32911889  0.46389272  0.10950912  1
  S  S36  1  0.59627677  0.03111693  0.64648983  1
  S  S37  1  0.40378671  0.04903449  0.33896279  1
  S  S38  1  0.24760506  0.52730551  0.32080971  1
  S  S39  1  0.75851801  0.51931846  0.68187637  1
  S  S40  1  0.65823594  0.93854363  0.44183059  1
  S  S41  1  0.33518184  0.92723600  0.55588317  1
