# generated using pymatgen
data_Pr2Mn3(SbS3)4
_symmetry_space_group_name_H-M   'P 1'
_cell_length_a   20.02960800
_cell_length_b   3.90410600
_cell_length_c   14.95364829
_cell_angle_alpha   90.00000000
_cell_angle_beta   126.33350609
_cell_angle_gamma   90.00000000
_symmetry_Int_Tables_number   1
_chemical_formula_structural   Pr2Mn3(SbS3)4
_chemical_formula_sum   'Pr4 Mn6 Sb8 S24'
_cell_volume   942.00006694
_cell_formula_units_Z   2
loop_
 _symmetry_equiv_pos_site_id
 _symmetry_equiv_pos_as_xyz
  1  'x, y, z'
loop_
 _atom_site_type_symbol
 _atom_site_label
 _atom_site_symmetry_multiplicity
 _atom_site_fract_x
 _atom_site_fract_y
 _atom_site_fract_z
 _atom_site_occupancy
  Pr  Pr0  1  0.27294728  0.46813820  0.88389632  1
  Pr  Pr1  1  0.72471587  0.51543555  0.13228798  1
  Pr  Pr2  1  0.75968138  0.05618721  0.86721083  1
  Pr  Pr3  1  0.23683088  0.91381666  0.12818847  1
  Mn  Mn4  1  0.29748749  0.41162233  0.60818112  1
  Mn  Mn5  1  0.69497341  0.52036668  0.36813521  1
  Mn  Mn6  1  0.00697951  0.94031727  0.00831106  1
  Mn  Mn7  1  0.80484592  0.97453942  0.63671539  1
  Mn  Mn8  1  0.21254721  0.04451306  0.40009297  1
  Mn  Mn9  1  0.48298966  0.49664411  0.98173115  1
  Sb  Sb10  1  0.88841192  0.90257730  0.46055315  1
  Sb  Sb11  1  0.11256930  0.99898975  0.54282437  1
  Sb  Sb12  1  0.03370911  0.51787671  0.82576337  1
  Sb  Sb13  1  0.96214063  0.46058788  0.20151194  1
  Sb  Sb14  1  0.40886944  0.56272113  0.45342678  1
  Sb  Sb15  1  0.60154851  0.51478649  0.52717610  1
  Sb  Sb16  1  0.52552155  0.94580703  0.79069917  1
  Sb  Sb17  1  0.46888670  0.98635194  0.17809911  1
  S  S18  1  0.92661295  0.02545949  0.79720707  1
  S  S19  1  0.05730174  0.97783910  0.20190334  1
  S  S20  1  0.41405614  0.02523753  0.97342187  1
  S  S21  1  0.58103600  0.04324798  0.99564015  1
  S  S22  1  0.16865350  0.94917910  0.90068598  1
  S  S23  1  0.83525690  0.02167230  0.11470848  1
  S  S24  1  0.10578818  0.50479853  0.64958882  1
  S  S25  1  0.89465626  0.43956953  0.34630876  1
  S  S26  1  0.73549785  0.96433728  0.31137776  1
  S  S27  1  0.26672324  0.92549773  0.68518308  1
  S  S28  1  0.17640853  0.51317113  0.44699661  1
  S  S29  1  0.82636219  0.52298351  0.55319705  1
  S  S30  1  0.43222729  0.51022785  0.79313111  1
  S  S31  1  0.56571544  0.45283792  0.18939408  1
  S  S32  1  0.91966813  0.51149887  0.00044962  1
  S  S33  1  0.08285044  0.44359357  0.02449611  1
  S  S34  1  0.67055958  0.53816128  0.90318855  1
  S  S35  1  0.32897148  0.46326785  0.10945506  1
  S  S36  1  0.59630887  0.03026995  0.64639167  1
  S  S37  1  0.40403739  0.04897913  0.33906608  1
  S  S38  1  0.24767510  0.52781151  0.32080109  1
  S  S39  1  0.75853126  0.51893195  0.68224345  1
  S  S40  1  0.65802881  0.93746153  0.44151380  1
  S  S41  1  0.33552403  0.92718870  0.55595371  1
