# generated using pymatgen
data_Pr2Mn3(SbS3)4
_symmetry_space_group_name_H-M   'P 1'
_cell_length_a   20.02960800
_cell_length_b   3.90410600
_cell_length_c   14.95364829
_cell_angle_alpha   90.00000000
_cell_angle_beta   126.33350609
_cell_angle_gamma   90.00000000
_symmetry_Int_Tables_number   1
_chemical_formula_structural   Pr2Mn3(SbS3)4
_chemical_formula_sum   'Pr4 Mn6 Sb8 S24'
_cell_volume   942.00006694
_cell_formula_units_Z   2
loop_
 _symmetry_equiv_pos_site_id
 _symmetry_equiv_pos_as_xyz
  1  'x, y, z'
loop_
 _atom_site_type_symbol
 _atom_site_label
 _atom_site_symmetry_multiplicity
 _atom_site_fract_x
 _atom_site_fract_y
 _atom_site_fract_z
 _atom_site_occupancy
  Pr  Pr0  1  0.27303524  0.46798870  0.88379939  1
  Pr  Pr1  1  0.72466507  0.51546229  0.13238785  1
  Pr  Pr2  1  0.75962198  0.05698801  0.86717147  1
  Pr  Pr3  1  0.23682317  0.91361117  0.12812810  1
  Mn  Mn4  1  0.29751600  0.41155358  0.60819507  1
  Mn  Mn5  1  0.69485174  0.51947001  0.36809724  1
  Mn  Mn6  1  0.00681667  0.94004826  0.00802001  1
  Mn  Mn7  1  0.80480282  0.97476071  0.63680480  1
  Mn  Mn8  1  0.21262359  0.04434967  0.40035414  1
  Mn  Mn9  1  0.48300389  0.49651824  0.98159418  1
  Sb  Sb10  1  0.88838713  0.90285165  0.46063660  1
  Sb  Sb11  1  0.11268154  0.99931580  0.54285502  1
  Sb  Sb12  1  0.03377214  0.51786836  0.82591250  1
  Sb  Sb13  1  0.96226481  0.46027931  0.20170865  1
  Sb  Sb14  1  0.40885552  0.56251366  0.45334729  1
  Sb  Sb15  1  0.60148743  0.51500342  0.52719329  1
  Sb  Sb16  1  0.52540825  0.94512499  0.79065383  1
  Sb  Sb17  1  0.46879240  0.98554488  0.17805468  1
  S  S18  1  0.92641484  0.02567450  0.79674098  1
  S  S19  1  0.05755763  0.97774627  0.20200018  1
  S  S20  1  0.41418519  0.02486297  0.97321207  1
  S  S21  1  0.58129554  0.04303715  0.99596132  1
  S  S22  1  0.16831796  0.94894045  0.90039131  1
  S  S23  1  0.83533794  0.02164380  0.11476356  1
  S  S24  1  0.10583946  0.50571162  0.64965892  1
  S  S25  1  0.89501329  0.44001777  0.34686422  1
  S  S26  1  0.73510768  0.96555094  0.31116302  1
  S  S27  1  0.26673215  0.92632871  0.68524204  1
  S  S28  1  0.17644664  0.51375510  0.44713034  1
  S  S29  1  0.82657279  0.52396969  0.55344409  1
  S  S30  1  0.43224144  0.51005975  0.79325341  1
  S  S31  1  0.56557990  0.45283746  0.18920511  1
  S  S32  1  0.91947843  0.51038294  0.00004438  1
  S  S33  1  0.08288238  0.44341393  0.02420128  1
  S  S34  1  0.67034903  0.53783649  0.90323380  1
  S  S35  1  0.32891300  0.46232467  0.10947535  1
  S  S36  1  0.59629146  0.02938111  0.64606534  1
  S  S37  1  0.40435671  0.04918834  0.33924156  1
  S  S38  1  0.24764155  0.52857801  0.32078722  1
  S  S39  1  0.75861786  0.51827006  0.68268657  1
  S  S40  1  0.65784809  0.93603274  0.44133486  1
  S  S41  1  0.33569735  0.92672829  0.55589189  1
