# generated using pymatgen
data_Pr2Mn3(SbS3)4
_symmetry_space_group_name_H-M   'P 1'
_cell_length_a   20.02960800
_cell_length_b   3.90410600
_cell_length_c   14.95364829
_cell_angle_alpha   90.00000000
_cell_angle_beta   126.33350609
_cell_angle_gamma   90.00000000
_symmetry_Int_Tables_number   1
_chemical_formula_structural   Pr2Mn3(SbS3)4
_chemical_formula_sum   'Pr4 Mn6 Sb8 S24'
_cell_volume   942.00006694
_cell_formula_units_Z   2
loop_
 _symmetry_equiv_pos_site_id
 _symmetry_equiv_pos_as_xyz
  1  'x, y, z'
loop_
 _atom_site_type_symbol
 _atom_site_label
 _atom_site_symmetry_multiplicity
 _atom_site_fract_x
 _atom_site_fract_y
 _atom_site_fract_z
 _atom_site_occupancy
  Pr  Pr0  1  0.27307572  0.46776623  0.88372450  1
  Pr  Pr1  1  0.72460132  0.51520364  0.13250713  1
  Pr  Pr2  1  0.75953007  0.05774112  0.86708139  1
  Pr  Pr3  1  0.23679469  0.91323189  0.12802619  1
  Mn  Mn4  1  0.29761510  0.41116481  0.60837484  1
  Mn  Mn5  1  0.69477166  0.51861352  0.36817887  1
  Mn  Mn6  1  0.00672737  0.93932535  0.00786641  1
  Mn  Mn7  1  0.80470158  0.97532503  0.63691542  1
  Mn  Mn8  1  0.21277038  0.04416755  0.40078329  1
  Mn  Mn9  1  0.48296972  0.49627050  0.98138277  1
  Sb  Sb10  1  0.88840130  0.90296296  0.46073820  1
  Sb  Sb11  1  0.11281455  0.99904323  0.54295415  1
  Sb  Sb12  1  0.03383413  0.51787735  0.82602471  1
  Sb  Sb13  1  0.96235531  0.45997624  0.20187509  1
  Sb  Sb14  1  0.40882840  0.56263418  0.45328315  1
  Sb  Sb15  1  0.60145068  0.51543753  0.52717361  1
  Sb  Sb16  1  0.52533338  0.94451432  0.79059198  1
  Sb  Sb17  1  0.46867595  0.98514088  0.17797031  1
  S  S18  1  0.92616940  0.02602066  0.79614745  1
  S  S19  1  0.05784847  0.97741385  0.20221501  1
  S  S20  1  0.41434699  0.02438646  0.97301216  1
  S  S21  1  0.58153664  0.04306657  0.99637033  1
  S  S22  1  0.16798538  0.94894804  0.90015806  1
  S  S23  1  0.83533587  0.02121153  0.11497268  1
  S  S24  1  0.10581669  0.50646257  0.64975435  1
  S  S25  1  0.89542129  0.44044691  0.34741384  1
  S  S26  1  0.73479241  0.96663638  0.31094843  1
  S  S27  1  0.26661375  0.92713263  0.68517114  1
  S  S28  1  0.17639739  0.51415970  0.44710659  1
  S  S29  1  0.82667700  0.52495743  0.55352543  1
  S  S30  1  0.43231956  0.51030207  0.79335358  1
  S  S31  1  0.56546015  0.45227588  0.18910514  1
  S  S32  1  0.91940618  0.50961757  0.99978795  1
  S  S33  1  0.08298447  0.44270737  0.02414684  1
  S  S34  1  0.67003377  0.53763105  0.90310329  1
  S  S35  1  0.32891722  0.46081517  0.10949304  1
  S  S36  1  0.59621648  0.02772658  0.64570553  1
  S  S37  1  0.40449991  0.04969117  0.33928066  1
  S  S38  1  0.24770322  0.52894829  0.32083261  1
  S  S39  1  0.75874138  0.51745826  0.68308236  1
  S  S40  1  0.65774469  0.93469615  0.44132368  1
  S  S41  1  0.33586641  0.92656713  0.55587949  1
