# generated using pymatgen
data_Pr2Mn3(SbS3)4
_symmetry_space_group_name_H-M   'P 1'
_cell_length_a   20.02960800
_cell_length_b   3.90410600
_cell_length_c   14.95364829
_cell_angle_alpha   90.00000000
_cell_angle_beta   126.33350609
_cell_angle_gamma   90.00000000
_symmetry_Int_Tables_number   1
_chemical_formula_structural   Pr2Mn3(SbS3)4
_chemical_formula_sum   'Pr4 Mn6 Sb8 S24'
_cell_volume   942.00006694
_cell_formula_units_Z   2
loop_
 _symmetry_equiv_pos_site_id
 _symmetry_equiv_pos_as_xyz
  1  'x, y, z'
loop_
 _atom_site_type_symbol
 _atom_site_label
 _atom_site_symmetry_multiplicity
 _atom_site_fract_x
 _atom_site_fract_y
 _atom_site_fract_z
 _atom_site_occupancy
  Pr  Pr0  1  0.26463208  0.47949024  0.86934166  1
  Pr  Pr1  1  0.73808726  0.51294355  0.13598356  1
  Pr  Pr2  1  0.76347373  0.00831434  0.86334918  1
  Pr  Pr3  1  0.23601666  0.99770686  0.13881050  1
  Mn  Mn4  1  0.29368651  0.48721467  0.60596737  1
  Mn  Mn5  1  0.69507320  0.52749993  0.37980798  1
  Mn  Mn6  1  0.00469994  0.99572341  0.00187357  1
  Mn  Mn7  1  0.80327718  0.99399517  0.61637569  1
  Mn  Mn8  1  0.19592393  0.97050325  0.37874418  1
  Mn  Mn9  1  0.50204752  0.47111981  0.99443407  1
  Sb  Sb10  1  0.89125266  0.99754701  0.45388956  1
  Sb  Sb11  1  0.11198710  0.96766871  0.55244297  1
  Sb  Sb12  1  0.04021697  0.51036925  0.81675469  1
  Sb  Sb13  1  0.96228057  0.52981350  0.18685457  1
  Sb  Sb14  1  0.39930528  0.50360965  0.45849875  1
  Sb  Sb15  1  0.60570618  0.48425488  0.54717907  1
  Sb  Sb16  1  0.53439707  0.00916100  0.81267230  1
  Sb  Sb17  1  0.46146822  0.00673268  0.18193719  1
  S  S18  1  0.93773713  0.96874304  0.80077339  1
  S  S19  1  0.06637041  0.97650742  0.19078047  1
  S  S20  1  0.40872646  0.01747765  0.97828264  1
  S  S21  1  0.59354054  0.00115657  0.02523522  1
  S  S22  1  0.17327713  0.98365596  0.89562855  1
  S  S23  1  0.82566917  0.01380108  0.09903412  1
  S  S24  1  0.08594809  0.45820129  0.64600247  1
  S  S25  1  0.91361510  0.48780914  0.35955268  1
  S  S26  1  0.74051382  0.95303793  0.29914403  1
  S  S27  1  0.25715660  0.99931128  0.70169060  1
  S  S28  1  0.16879289  0.48980021  0.44749033  1
  S  S29  1  0.82926140  0.48047696  0.55045785  1
  S  S30  1  0.43219212  0.50062456  0.79893927  1
  S  S31  1  0.56232909  0.53189544  0.18881062  1
  S  S32  1  0.90779534  0.49619151  0.98599371  1
  S  S33  1  0.08372176  0.49541593  0.01598430  1
  S  S34  1  0.66455495  0.50227940  0.89037518  1
  S  S35  1  0.32853667  0.52604058  0.09922223  1
  S  S36  1  0.59147552  0.00488013  0.65227031  1
  S  S37  1  0.40776969  0.96613793  0.34795982  1
  S  S38  1  0.24360594  0.47393752  0.30580296  1
  S  S39  1  0.76005757  0.50611705  0.69896699  1
  S  S40  1  0.67383293  0.01865465  0.46014620  1
  S  S41  1  0.32927867  0.98985134  0.54042058  1
