# generated using pymatgen
data_Pr2Mn3(SbS3)4
_symmetry_space_group_name_H-M   'P 1'
_cell_length_a   20.02960800
_cell_length_b   3.90410600
_cell_length_c   14.95364829
_cell_angle_alpha   90.00000000
_cell_angle_beta   126.33350609
_cell_angle_gamma   90.00000000
_symmetry_Int_Tables_number   1
_chemical_formula_structural   Pr2Mn3(SbS3)4
_chemical_formula_sum   'Pr4 Mn6 Sb8 S24'
_cell_volume   942.00006694
_cell_formula_units_Z   2
loop_
 _symmetry_equiv_pos_site_id
 _symmetry_equiv_pos_as_xyz
  1  'x, y, z'
loop_
 _atom_site_type_symbol
 _atom_site_label
 _atom_site_symmetry_multiplicity
 _atom_site_fract_x
 _atom_site_fract_y
 _atom_site_fract_z
 _atom_site_occupancy
  Pr  Pr0  1  0.27308528  0.46755075  0.88357273  1
  Pr  Pr1  1  0.72458901  0.51497742  0.13261352  1
  Pr  Pr2  1  0.75944167  0.05849210  0.86702825  1
  Pr  Pr3  1  0.23673347  0.91303796  0.12785767  1
  Mn  Mn4  1  0.29779462  0.41028953  0.60852893  1
  Mn  Mn5  1  0.69472933  0.51714914  0.36827849  1
  Mn  Mn6  1  0.00672150  0.93816693  0.00779408  1
  Mn  Mn7  1  0.80458115  0.97567126  0.63697821  1
  Mn  Mn8  1  0.21286287  0.04404046  0.40127709  1
  Mn  Mn9  1  0.48284573  0.49607682  0.98107568  1
  Sb  Sb10  1  0.88839312  0.90297702  0.46083108  1
  Sb  Sb11  1  0.11294964  0.99878072  0.54300883  1
  Sb  Sb12  1  0.03389370  0.51784100  0.82611568  1
  Sb  Sb13  1  0.96239626  0.45949651  0.20196989  1
  Sb  Sb14  1  0.40883543  0.56273561  0.45327779  1
  Sb  Sb15  1  0.60147568  0.51594432  0.52720246  1
  Sb  Sb16  1  0.52526995  0.94415577  0.79055866  1
  Sb  Sb17  1  0.46860251  0.98471595  0.17792674  1
  S  S18  1  0.92591284  0.02594615  0.79561794  1
  S  S19  1  0.05814891  0.97677027  0.20231478  1
  S  S20  1  0.41447549  0.02418711  0.97278513  1
  S  S21  1  0.58183531  0.04325361  0.99670213  1
  S  S22  1  0.16781948  0.94909552  0.90005187  1
  S  S23  1  0.83537037  0.02126838  0.11526614  1
  S  S24  1  0.10587665  0.50731640  0.64982128  1
  S  S25  1  0.89575210  0.44110296  0.34801894  1
  S  S26  1  0.73453507  0.96708490  0.31061662  1
  S  S27  1  0.26645702  0.92785143  0.68524432  1
  S  S28  1  0.17634040  0.51487064  0.44707127  1
  S  S29  1  0.82663248  0.52533275  0.55354999  1
  S  S30  1  0.43249282  0.51025226  0.79346103  1
  S  S31  1  0.56535433  0.45188349  0.18899478  1
  S  S32  1  0.91922347  0.50897056  0.99955905  1
  S  S33  1  0.08296465  0.44182952  0.02380678  1
  S  S34  1  0.66974940  0.53766718  0.90300621  1
  S  S35  1  0.32896172  0.45878649  0.10966765  1
  S  S36  1  0.59610753  0.02655065  0.64534538  1
  S  S37  1  0.40469325  0.05004191  0.33939945  1
  S  S38  1  0.24786574  0.52899914  0.32096672  1
  S  S39  1  0.75901113  0.51678384  0.68345391  1
  S  S40  1  0.65775952  0.93348249  0.44139501  1
  S  S41  1  0.33605159  0.92642051  0.55581748  1
