# generated using pymatgen
data_Pr2Mn3(SbS3)4
_symmetry_space_group_name_H-M   'P 1'
_cell_length_a   20.02960800
_cell_length_b   3.90410600
_cell_length_c   14.95364829
_cell_angle_alpha   90.00000000
_cell_angle_beta   126.33350609
_cell_angle_gamma   90.00000000
_symmetry_Int_Tables_number   1
_chemical_formula_structural   Pr2Mn3(SbS3)4
_chemical_formula_sum   'Pr4 Mn6 Sb8 S24'
_cell_volume   942.00006694
_cell_formula_units_Z   2
loop_
 _symmetry_equiv_pos_site_id
 _symmetry_equiv_pos_as_xyz
  1  'x, y, z'
loop_
 _atom_site_type_symbol
 _atom_site_label
 _atom_site_symmetry_multiplicity
 _atom_site_fract_x
 _atom_site_fract_y
 _atom_site_fract_z
 _atom_site_occupancy
  Pr  Pr0  1  0.27312435  0.46704823  0.88348495  1
  Pr  Pr1  1  0.72462704  0.51452701  0.13277161  1
  Pr  Pr2  1  0.75929644  0.05917459  0.86686475  1
  Pr  Pr3  1  0.23671755  0.91286246  0.12778078  1
  Mn  Mn4  1  0.29807025  0.40926925  0.60870771  1
  Mn  Mn5  1  0.69466995  0.51599118  0.36838971  1
  Mn  Mn6  1  0.00671304  0.93697221  0.00770183  1
  Mn  Mn7  1  0.80430228  0.97590027  0.63690058  1
  Mn  Mn8  1  0.21291227  0.04360980  0.40177777  1
  Mn  Mn9  1  0.48271534  0.49629057  0.98077475  1
  Sb  Sb10  1  0.88838989  0.90275102  0.46089894  1
  Sb  Sb11  1  0.11307800  0.99848944  0.54301657  1
  Sb  Sb12  1  0.03391953  0.51782051  0.82615819  1
  Sb  Sb13  1  0.96242092  0.45908689  0.20201942  1
  Sb  Sb14  1  0.40883178  0.56281846  0.45326600  1
  Sb  Sb15  1  0.60154105  0.51672202  0.52721455  1
  Sb  Sb16  1  0.52526125  0.94385209  0.79052558  1
  Sb  Sb17  1  0.46857309  0.98420161  0.17788624  1
  S  S18  1  0.92565786  0.02624393  0.79515212  1
  S  S19  1  0.05833215  0.97602704  0.20221577  1
  S  S20  1  0.41458864  0.02402086  0.97261083  1
  S  S21  1  0.58200421  0.04332031  0.99689244  1
  S  S22  1  0.16764977  0.94938317  0.89985849  1
  S  S23  1  0.83538064  0.02057043  0.11555231  1
  S  S24  1  0.10595392  0.50891849  0.64987018  1
  S  S25  1  0.89611562  0.44163481  0.34872540  1
  S  S26  1  0.73437684  0.96722065  0.31034232  1
  S  S27  1  0.26642995  0.92866200  0.68529962  1
  S  S28  1  0.17626985  0.51567966  0.44704425  1
  S  S29  1  0.82660228  0.52586967  0.55356795  1
  S  S30  1  0.43256954  0.51011188  0.79338454  1
  S  S31  1  0.56530125  0.45167180  0.18902139  1
  S  S32  1  0.91892547  0.50832869  0.99915142  1
  S  S33  1  0.08296900  0.44167932  0.02350275  1
  S  S34  1  0.66958293  0.53768624  0.90289561  1
  S  S35  1  0.32905955  0.45691308  0.10989861  1
  S  S36  1  0.59591720  0.02587078  0.64463233  1
  S  S37  1  0.40484542  0.05054405  0.33962352  1
  S  S38  1  0.24801743  0.52888408  0.32110931  1
  S  S39  1  0.75921734  0.51542868  0.68379346  1
  S  S40  1  0.65773838  0.93235935  0.44143034  1
  S  S41  1  0.33621888  0.92623493  0.55569690  1
