# generated using pymatgen
data_Pr2Mn3(SbS3)4
_symmetry_space_group_name_H-M   'P 1'
_cell_length_a   20.02960800
_cell_length_b   3.90410600
_cell_length_c   14.95364829
_cell_angle_alpha   90.00000000
_cell_angle_beta   126.33350609
_cell_angle_gamma   90.00000000
_symmetry_Int_Tables_number   1
_chemical_formula_structural   Pr2Mn3(SbS3)4
_chemical_formula_sum   'Pr4 Mn6 Sb8 S24'
_cell_volume   942.00006694
_cell_formula_units_Z   2
loop_
 _symmetry_equiv_pos_site_id
 _symmetry_equiv_pos_as_xyz
  1  'x, y, z'
loop_
 _atom_site_type_symbol
 _atom_site_label
 _atom_site_symmetry_multiplicity
 _atom_site_fract_x
 _atom_site_fract_y
 _atom_site_fract_z
 _atom_site_occupancy
  Pr  Pr0  1  0.27314349  0.46663421  0.88345725  1
  Pr  Pr1  1  0.72466924  0.51411294  0.13288240  1
  Pr  Pr2  1  0.75918708  0.05976436  0.86667766  1
  Pr  Pr3  1  0.23675523  0.91269473  0.12774732  1
  Mn  Mn4  1  0.29835305  0.40834184  0.60896716  1
  Mn  Mn5  1  0.69462021  0.51493779  0.36851784  1
  Mn  Mn6  1  0.00676211  0.93601514  0.00763578  1
  Mn  Mn7  1  0.80405280  0.97632168  0.63688715  1
  Mn  Mn8  1  0.21300240  0.04348709  0.40233043  1
  Mn  Mn9  1  0.48276007  0.49648898  0.98064759  1
  Sb  Sb10  1  0.88843306  0.90246782  0.46103281  1
  Sb  Sb11  1  0.11320828  0.99819896  0.54302009  1
  Sb  Sb12  1  0.03392622  0.51790756  0.82616245  1
  Sb  Sb13  1  0.96248306  0.45885556  0.20212912  1
  Sb  Sb14  1  0.40882985  0.56293569  0.45324989  1
  Sb  Sb15  1  0.60161599  0.51742626  0.52723995  1
  Sb  Sb16  1  0.52520541  0.94366458  0.79045620  1
  Sb  Sb17  1  0.46849917  0.98377946  0.17779973  1
  S  S18  1  0.92547858  0.02643661  0.79463849  1
  S  S19  1  0.05858337  0.97544391  0.20214504  1
  S  S20  1  0.41473343  0.02359078  0.97244317  1
  S  S21  1  0.58224396  0.04402273  0.99736112  1
  S  S22  1  0.16744658  0.94975297  0.89960189  1
  S  S23  1  0.83544702  0.01940924  0.11577137  1
  S  S24  1  0.10589369  0.51035692  0.64986816  1
  S  S25  1  0.89649579  0.44192660  0.34947298  1
  S  S26  1  0.73418564  0.96760033  0.30994093  1
  S  S27  1  0.26643254  0.92985435  0.68536266  1
  S  S28  1  0.17626473  0.51656585  0.44707502  1
  S  S29  1  0.82664986  0.52651915  0.55359575  1
  S  S30  1  0.43262975  0.50964526  0.79329775  1
  S  S31  1  0.56515554  0.45146362  0.18902480  1
  S  S32  1  0.91880208  0.50775081  0.99894791  1
  S  S33  1  0.08285373  0.44134092  0.02325247  1
  S  S34  1  0.66942496  0.53789523  0.90289167  1
  S  S35  1  0.32910270  0.45548458  0.11011541  1
  S  S36  1  0.59580949  0.02518281  0.64405072  1
  S  S37  1  0.40505306  0.05099608  0.34006640  1
  S  S38  1  0.24808815  0.52867753  0.32119522  1
  S  S39  1  0.75943930  0.51414902  0.68401505  1
  S  S40  1  0.65774631  0.93115061  0.44135245  1
  S  S41  1  0.33619870  0.92595993  0.55545134  1
