# generated using pymatgen
data_Pr2Mn3(SbS3)4
_symmetry_space_group_name_H-M   'P 1'
_cell_length_a   20.02960800
_cell_length_b   3.90410600
_cell_length_c   14.95364829
_cell_angle_alpha   90.00000000
_cell_angle_beta   126.33350609
_cell_angle_gamma   90.00000000
_symmetry_Int_Tables_number   1
_chemical_formula_structural   Pr2Mn3(SbS3)4
_chemical_formula_sum   'Pr4 Mn6 Sb8 S24'
_cell_volume   942.00006694
_cell_formula_units_Z   2
loop_
 _symmetry_equiv_pos_site_id
 _symmetry_equiv_pos_as_xyz
  1  'x, y, z'
loop_
 _atom_site_type_symbol
 _atom_site_label
 _atom_site_symmetry_multiplicity
 _atom_site_fract_x
 _atom_site_fract_y
 _atom_site_fract_z
 _atom_site_occupancy
  Pr  Pr0  1  0.27319285  0.46631796  0.88342518  1
  Pr  Pr1  1  0.72470166  0.51361600  0.13288109  1
  Pr  Pr2  1  0.75908813  0.06029827  0.86657893  1
  Pr  Pr3  1  0.23673745  0.91259510  0.12762366  1
  Mn  Mn4  1  0.29869999  0.40760266  0.60923864  1
  Mn  Mn5  1  0.69458449  0.51422762  0.36861621  1
  Mn  Mn6  1  0.00670798  0.93528012  0.00746358  1
  Mn  Mn7  1  0.80376050  0.97705562  0.63679915  1
  Mn  Mn8  1  0.21307242  0.04324969  0.40292589  1
  Mn  Mn9  1  0.48280974  0.49646298  0.98050737  1
  Sb  Sb10  1  0.88843181  0.90181227  0.46104740  1
  Sb  Sb11  1  0.11335404  0.99796222  0.54305353  1
  Sb  Sb12  1  0.03390653  0.51790854  0.82615012  1
  Sb  Sb13  1  0.96253928  0.45890684  0.20220042  1
  Sb  Sb14  1  0.40882867  0.56310790  0.45323620  1
  Sb  Sb15  1  0.60168108  0.51815105  0.52721425  1
  Sb  Sb16  1  0.52515180  0.94317949  0.79041739  1
  Sb  Sb17  1  0.46838461  0.98327937  0.17772042  1
  S  S18  1  0.92534541  0.02631704  0.79422116  1
  S  S19  1  0.05884201  0.97528309  0.20205474  1
  S  S20  1  0.41486208  0.02253870  0.97231466  1
  S  S21  1  0.58237677  0.04466292  0.99767500  1
  S  S22  1  0.16738276  0.95015994  0.89947521  1
  S  S23  1  0.83554427  0.01857148  0.11614339  1
  S  S24  1  0.10578403  0.51177802  0.64981760  1
  S  S25  1  0.89681125  0.44255202  0.35029183  1
  S  S26  1  0.73400593  0.96781958  0.30967696  1
  S  S27  1  0.26645908  0.93074091  0.68548252  1
  S  S28  1  0.17630631  0.51739193  0.44733368  1
  S  S29  1  0.82667366  0.52725903  0.55362955  1
  S  S30  1  0.43256442  0.50938051  0.79301999  1
  S  S31  1  0.56510146  0.45120873  0.18910297  1
  S  S32  1  0.91875806  0.50718297  0.99893968  1
  S  S33  1  0.08277284  0.44102691  0.02304256  1
  S  S34  1  0.66927443  0.53842374  0.90302254  1
  S  S35  1  0.32901691  0.45423832  0.11023001  1
  S  S36  1  0.59578096  0.02454533  0.64370133  1
  S  S37  1  0.40527759  0.05118038  0.34066428  1
  S  S38  1  0.24826431  0.52897213  0.32134547  1
  S  S39  1  0.75948952  0.51281389  0.68395117  1
  S  S40  1  0.65769396  0.93016617  0.44119864  1
  S  S41  1  0.33623104  0.92570954  0.55524115  1
