# generated using pymatgen
data_Pr2Mn3(SbS3)4
_symmetry_space_group_name_H-M   'P 1'
_cell_length_a   20.02960800
_cell_length_b   3.90410600
_cell_length_c   14.95364829
_cell_angle_alpha   90.00000000
_cell_angle_beta   126.33350609
_cell_angle_gamma   90.00000000
_symmetry_Int_Tables_number   1
_chemical_formula_structural   Pr2Mn3(SbS3)4
_chemical_formula_sum   'Pr4 Mn6 Sb8 S24'
_cell_volume   942.00006694
_cell_formula_units_Z   2
loop_
 _symmetry_equiv_pos_site_id
 _symmetry_equiv_pos_as_xyz
  1  'x, y, z'
loop_
 _atom_site_type_symbol
 _atom_site_label
 _atom_site_symmetry_multiplicity
 _atom_site_fract_x
 _atom_site_fract_y
 _atom_site_fract_z
 _atom_site_occupancy
  Pr  Pr0  1  0.27320696  0.46595681  0.88340701  1
  Pr  Pr1  1  0.72472152  0.51290307  0.13291231  1
  Pr  Pr2  1  0.75897617  0.06102817  0.86646830  1
  Pr  Pr3  1  0.23667479  0.91240937  0.12747258  1
  Mn  Mn4  1  0.29899254  0.40715193  0.60946993  1
  Mn  Mn5  1  0.69457544  0.51355149  0.36868487  1
  Mn  Mn6  1  0.00663699  0.93458999  0.00728706  1
  Mn  Mn7  1  0.80347902  0.97801539  0.63667141  1
  Mn  Mn8  1  0.21312536  0.04341742  0.40357922  1
  Mn  Mn9  1  0.48291271  0.49639434  0.98034628  1
  Sb  Sb10  1  0.88842218  0.90137195  0.46103506  1
  Sb  Sb11  1  0.11349540  0.99728230  0.54300053  1
  Sb  Sb12  1  0.03397940  0.51774903  0.82619681  1
  Sb  Sb13  1  0.96258011  0.45871103  0.20220049  1
  Sb  Sb14  1  0.40878951  0.56342038  0.45316812  1
  Sb  Sb15  1  0.60175735  0.51873996  0.52716973  1
  Sb  Sb16  1  0.52511259  0.94253741  0.79029537  1
  Sb  Sb17  1  0.46831029  0.98299244  0.17771257  1
  S  S18  1  0.92529938  0.02629306  0.79386405  1
  S  S19  1  0.05906193  0.97501969  0.20190306  1
  S  S20  1  0.41491872  0.02100846  0.97199954  1
  S  S21  1  0.58259978  0.04535261  0.99800234  1
  S  S22  1  0.16733973  0.95079312  0.89921434  1
  S  S23  1  0.83562584  0.01868985  0.11641270  1
  S  S24  1  0.10576319  0.51264660  0.64960891  1
  S  S25  1  0.89707771  0.44292229  0.35111014  1
  S  S26  1  0.73381969  0.96790238  0.30954532  1
  S  S27  1  0.26658807  0.93140379  0.68576838  1
  S  S28  1  0.17626612  0.51783518  0.44776387  1
  S  S29  1  0.82676586  0.52842674  0.55358007  1
  S  S30  1  0.43253806  0.50874107  0.79294340  1
  S  S31  1  0.56499329  0.45152573  0.18912669  1
  S  S32  1  0.91877500  0.50660032  0.99900785  1
  S  S33  1  0.08272288  0.44115602  0.02296148  1
  S  S34  1  0.66919537  0.53897439  0.90313090  1
  S  S35  1  0.32894645  0.45278066  0.11023675  1
  S  S36  1  0.59577863  0.02394844  0.64352440  1
  S  S37  1  0.40569163  0.05105875  0.34150765  1
  S  S38  1  0.24838010  0.52903247  0.32151313  1
  S  S39  1  0.75974251  0.51160698  0.68410855  1
  S  S40  1  0.65766830  0.92900672  0.44107617  1
  S  S41  1  0.33628883  0.92514930  0.55516561  1
