# generated using pymatgen
data_Pr2Mn3(SbS3)4
_symmetry_space_group_name_H-M   'P 1'
_cell_length_a   20.02960800
_cell_length_b   3.90410600
_cell_length_c   14.95364829
_cell_angle_alpha   90.00000000
_cell_angle_beta   126.33350609
_cell_angle_gamma   90.00000000
_symmetry_Int_Tables_number   1
_chemical_formula_structural   Pr2Mn3(SbS3)4
_chemical_formula_sum   'Pr4 Mn6 Sb8 S24'
_cell_volume   942.00006694
_cell_formula_units_Z   2
loop_
 _symmetry_equiv_pos_site_id
 _symmetry_equiv_pos_as_xyz
  1  'x, y, z'
loop_
 _atom_site_type_symbol
 _atom_site_label
 _atom_site_symmetry_multiplicity
 _atom_site_fract_x
 _atom_site_fract_y
 _atom_site_fract_z
 _atom_site_occupancy
  Pr  Pr0  1  0.27328286  0.46580320  0.88342854  1
  Pr  Pr1  1  0.72473568  0.51244994  0.13294534  1
  Pr  Pr2  1  0.75891022  0.06179077  0.86643996  1
  Pr  Pr3  1  0.23661982  0.91219943  0.12730828  1
  Mn  Mn4  1  0.29924982  0.40709240  0.60966170  1
  Mn  Mn5  1  0.69454441  0.51270780  0.36869270  1
  Mn  Mn6  1  0.00652402  0.93377571  0.00704082  1
  Mn  Mn7  1  0.80319162  0.97927387  0.63661492  1
  Mn  Mn8  1  0.21301353  0.04367270  0.40403895  1
  Mn  Mn9  1  0.48295098  0.49624864  0.98008087  1
  Sb  Sb10  1  0.88839727  0.90108891  0.46103806  1
  Sb  Sb11  1  0.11366794  0.99668478  0.54303187  1
  Sb  Sb12  1  0.03403925  0.51765479  0.82617593  1
  Sb  Sb13  1  0.96257669  0.45871084  0.20222102  1
  Sb  Sb14  1  0.40878850  0.56368429  0.45309956  1
  Sb  Sb15  1  0.60187633  0.51929237  0.52711584  1
  Sb  Sb16  1  0.52511541  0.94188966  0.79016216  1
  Sb  Sb17  1  0.46826314  0.98280811  0.17779708  1
  S  S18  1  0.92526647  0.02626066  0.79355221  1
  S  S19  1  0.05927361  0.97535969  0.20154167  1
  S  S20  1  0.41500594  0.01920694  0.97179695  1
  S  S21  1  0.58270307  0.04628864  0.99824862  1
  S  S22  1  0.16734629  0.95114669  0.89900717  1
  S  S23  1  0.83572688  0.01823545  0.11662301  1
  S  S24  1  0.10572038  0.51326692  0.64943251  1
  S  S25  1  0.89734461  0.44283816  0.35186134  1
  S  S26  1  0.73368740  0.96703964  0.30941027  1
  S  S27  1  0.26677534  0.93202328  0.68602566  1
  S  S28  1  0.17613070  0.51868313  0.44810392  1
  S  S29  1  0.82684248  0.52958841  0.55363683  1
  S  S30  1  0.43256222  0.50777424  0.79277037  1
  S  S31  1  0.56488248  0.45206958  0.18914330  1
  S  S32  1  0.91885749  0.50629465  0.99910987  1
  S  S33  1  0.08274273  0.44099521  0.02297414  1
  S  S34  1  0.66920905  0.53935920  0.90322365  1
  S  S35  1  0.32882293  0.45145505  0.11019683  1
  S  S36  1  0.59572734  0.02325788  0.64337174  1
  S  S37  1  0.40612458  0.05115181  0.34216943  1
  S  S38  1  0.24835847  0.52945268  0.32145564  1
  S  S39  1  0.76008622  0.51066983  0.68440848  1
  S  S40  1  0.65763557  0.92807623  0.44087721  1
  S  S41  1  0.33646309  0.92444306  0.55506631  1
