# generated using pymatgen
data_Pr2Mn3(SbS3)4
_symmetry_space_group_name_H-M   'P 1'
_cell_length_a   20.02960800
_cell_length_b   3.90410600
_cell_length_c   14.95364829
_cell_angle_alpha   90.00000000
_cell_angle_beta   126.33350609
_cell_angle_gamma   90.00000000
_symmetry_Int_Tables_number   1
_chemical_formula_structural   Pr2Mn3(SbS3)4
_chemical_formula_sum   'Pr4 Mn6 Sb8 S24'
_cell_volume   942.00006694
_cell_formula_units_Z   2
loop_
 _symmetry_equiv_pos_site_id
 _symmetry_equiv_pos_as_xyz
  1  'x, y, z'
loop_
 _atom_site_type_symbol
 _atom_site_label
 _atom_site_symmetry_multiplicity
 _atom_site_fract_x
 _atom_site_fract_y
 _atom_site_fract_z
 _atom_site_occupancy
  Pr  Pr0  1  0.27337338  0.46538426  0.88350802  1
  Pr  Pr1  1  0.72477852  0.51207980  0.13301962  1
  Pr  Pr2  1  0.75885966  0.06247716  0.86644458  1
  Pr  Pr3  1  0.23656522  0.91196722  0.12717419  1
  Mn  Mn4  1  0.29942073  0.40693807  0.60972036  1
  Mn  Mn5  1  0.69449557  0.51246191  0.36860286  1
  Mn  Mn6  1  0.00646078  0.93280431  0.00693283  1
  Mn  Mn7  1  0.80296551  0.98055962  0.63663700  1
  Mn  Mn8  1  0.21289051  0.04377511  0.40443247  1
  Mn  Mn9  1  0.48292328  0.49563014  0.97974941  1
  Sb  Sb10  1  0.88836920  0.90085321  0.46114807  1
  Sb  Sb11  1  0.11377646  0.99606567  0.54306754  1
  Sb  Sb12  1  0.03405173  0.51748615  0.82605696  1
  Sb  Sb13  1  0.96259768  0.45859368  0.20222570  1
  Sb  Sb14  1  0.40879071  0.56380323  0.45304016  1
  Sb  Sb15  1  0.60195938  0.51981818  0.52704103  1
  Sb  Sb16  1  0.52503784  0.94111565  0.79001233  1
  Sb  Sb17  1  0.46824303  0.98250064  0.17792796  1
  S  S18  1  0.92526333  0.02625313  0.79331875  1
  S  S19  1  0.05945690  0.97599078  0.20115847  1
  S  S20  1  0.41507120  0.01762021  0.97162480  1
  S  S21  1  0.58280585  0.04725944  0.99863414  1
  S  S22  1  0.16746989  0.95142972  0.89899378  1
  S  S23  1  0.83587753  0.01794059  0.11681268  1
  S  S24  1  0.10563662  0.51402640  0.64920472  1
  S  S25  1  0.89743568  0.44300405  0.35234718  1
  S  S26  1  0.73362945  0.96558307  0.30924395  1
  S  S27  1  0.26697212  0.93248116  0.68625706  1
  S  S28  1  0.17605091  0.51942801  0.44846335  1
  S  S29  1  0.82694067  0.53078327  0.55370037  1
  S  S30  1  0.43256435  0.50720762  0.79255466  1
  S  S31  1  0.56474473  0.45252252  0.18911974  1
  S  S32  1  0.91897101  0.50622823  0.99913031  1
  S  S33  1  0.08289677  0.44079949  0.02304707  1
  S  S34  1  0.66928128  0.53893656  0.90339126  1
  S  S35  1  0.32867997  0.45001908  0.11012719  1
  S  S36  1  0.59569019  0.02239350  0.64323864  1
  S  S37  1  0.40657430  0.05156933  0.34283308  1
  S  S38  1  0.24839662  0.52996549  0.32144725  1
  S  S39  1  0.76032541  0.50979320  0.68471571  1
  S  S40  1  0.65764755  0.92688105  0.44075138  1
  S  S41  1  0.33655528  0.92383488  0.55488099  1
