# generated using pymatgen
data_Pr2Mn3(SbS3)4
_symmetry_space_group_name_H-M   'P 1'
_cell_length_a   20.02960800
_cell_length_b   3.90410600
_cell_length_c   14.95364829
_cell_angle_alpha   90.00000000
_cell_angle_beta   126.33350609
_cell_angle_gamma   90.00000000
_symmetry_Int_Tables_number   1
_chemical_formula_structural   Pr2Mn3(SbS3)4
_chemical_formula_sum   'Pr4 Mn6 Sb8 S24'
_cell_volume   942.00006694
_cell_formula_units_Z   2
loop_
 _symmetry_equiv_pos_site_id
 _symmetry_equiv_pos_as_xyz
  1  'x, y, z'
loop_
 _atom_site_type_symbol
 _atom_site_label
 _atom_site_symmetry_multiplicity
 _atom_site_fract_x
 _atom_site_fract_y
 _atom_site_fract_z
 _atom_site_occupancy
  Pr  Pr0  1  0.27346307  0.46516342  0.88362724  1
  Pr  Pr1  1  0.72483483  0.51181284  0.13303087  1
  Pr  Pr2  1  0.75882636  0.06299235  0.86648128  1
  Pr  Pr3  1  0.23659637  0.91153021  0.12709170  1
  Mn  Mn4  1  0.29958223  0.40687290  0.60969865  1
  Mn  Mn5  1  0.69448421  0.51242403  0.36850654  1
  Mn  Mn6  1  0.00646768  0.93207812  0.00689762  1
  Mn  Mn7  1  0.80278407  0.98146325  0.63664567  1
  Mn  Mn8  1  0.21283462  0.04341891  0.40484961  1
  Mn  Mn9  1  0.48283874  0.49511777  0.97940671  1
  Sb  Sb10  1  0.88835234  0.90028336  0.46126080  1
  Sb  Sb11  1  0.11386824  0.99556028  0.54307562  1
  Sb  Sb12  1  0.03406488  0.51738730  0.82597118  1
  Sb  Sb13  1  0.96266222  0.45834302  0.20230874  1
  Sb  Sb14  1  0.40878021  0.56376702  0.45304184  1
  Sb  Sb15  1  0.60200609  0.52043429  0.52703546  1
  Sb  Sb16  1  0.52496734  0.94054927  0.78985363  1
  Sb  Sb17  1  0.46815931  0.98225666  0.17790770  1
  S  S18  1  0.92517557  0.02615203  0.79314977  1
  S  S19  1  0.05960825  0.97623783  0.20084915  1
  S  S20  1  0.41511180  0.01603660  0.97132860  1
  S  S21  1  0.58279837  0.04833778  0.99880763  1
  S  S22  1  0.16766653  0.95122285  0.89896425  1
  S  S23  1  0.83605023  0.01743279  0.11694178  1
  S  S24  1  0.10556725  0.51483597  0.64904382  1
  S  S25  1  0.89757470  0.44342499  0.35275639  1
  S  S26  1  0.73353166  0.96500869  0.30902341  1
  S  S27  1  0.26709552  0.93332636  0.68628841  1
  S  S28  1  0.17599789  0.52096626  0.44886925  1
  S  S29  1  0.82696358  0.53222015  0.55365431  1
  S  S30  1  0.43257592  0.50647627  0.79244476  1
  S  S31  1  0.56468959  0.45312414  0.18912362  1
  S  S32  1  0.91898264  0.50604938  0.99906577  1
  S  S33  1  0.08293944  0.44051015  0.02288805  1
  S  S34  1  0.66944720  0.53892801  0.90370916  1
  S  S35  1  0.32854508  0.44892865  0.11000275  1
  S  S36  1  0.59566007  0.02152072  0.64310302  1
  S  S37  1  0.40687459  0.05207995  0.34337752  1
  S  S38  1  0.24836015  0.53058049  0.32130860  1
  S  S39  1  0.76055867  0.50912619  0.68502292  1
  S  S40  1  0.65773303  0.92544610  0.44066211  1
  S  S41  1  0.33670316  0.92350215  0.55477685  1
