# generated using pymatgen
data_Pr2Mn3(SbS3)4
_symmetry_space_group_name_H-M   'P 1'
_cell_length_a   20.02960800
_cell_length_b   3.90410600
_cell_length_c   14.95364829
_cell_angle_alpha   90.00000000
_cell_angle_beta   126.33350609
_cell_angle_gamma   90.00000000
_symmetry_Int_Tables_number   1
_chemical_formula_structural   Pr2Mn3(SbS3)4
_chemical_formula_sum   'Pr4 Mn6 Sb8 S24'
_cell_volume   942.00006694
_cell_formula_units_Z   2
loop_
 _symmetry_equiv_pos_site_id
 _symmetry_equiv_pos_as_xyz
  1  'x, y, z'
loop_
 _atom_site_type_symbol
 _atom_site_label
 _atom_site_symmetry_multiplicity
 _atom_site_fract_x
 _atom_site_fract_y
 _atom_site_fract_z
 _atom_site_occupancy
  Pr  Pr0  1  0.27360835  0.46487235  0.88372822  1
  Pr  Pr1  1  0.72486093  0.51179604  0.13299112  1
  Pr  Pr2  1  0.75889239  0.06334078  0.86659724  1
  Pr  Pr3  1  0.23659206  0.91112107  0.12701353  1
  Mn  Mn4  1  0.29977081  0.40660452  0.60968936  1
  Mn  Mn5  1  0.69448740  0.51208069  0.36843935  1
  Mn  Mn6  1  0.00645831  0.93188507  0.00684610  1
  Mn  Mn7  1  0.80256192  0.98224818  0.63659687  1
  Mn  Mn8  1  0.21291391  0.04315708  0.40536785  1
  Mn  Mn9  1  0.48273330  0.49488042  0.97915574  1
  Sb  Sb10  1  0.88834318  0.89982722  0.46148160  1
  Sb  Sb11  1  0.11393369  0.99466271  0.54301715  1
  Sb  Sb12  1  0.03407164  0.51747092  0.82592894  1
  Sb  Sb13  1  0.96281122  0.45819843  0.20246412  1
  Sb  Sb14  1  0.40869737  0.56375561  0.45297203  1
  Sb  Sb15  1  0.60212846  0.52108439  0.52703035  1
  Sb  Sb16  1  0.52498275  0.94015876  0.78984725  1
  Sb  Sb17  1  0.46803033  0.98211875  0.17774637  1
  S  S18  1  0.92514507  0.02618019  0.79298931  1
  S  S19  1  0.05974556  0.97678808  0.20061367  1
  S  S20  1  0.41524277  0.01450274  0.97114181  1
  S  S21  1  0.58279613  0.04962060  0.99895971  1
  S  S22  1  0.16783769  0.95164468  0.89863256  1
  S  S23  1  0.83623307  0.01702052  0.11718440  1
  S  S24  1  0.10544295  0.51576260  0.64891533  1
  S  S25  1  0.89774472  0.44349956  0.35307947  1
  S  S26  1  0.73354152  0.96404347  0.30902835  1
  S  S27  1  0.26730708  0.93394743  0.68632554  1
  S  S28  1  0.17592597  0.52241544  0.44915639  1
  S  S29  1  0.82696627  0.53333200  0.55368351  1
  S  S30  1  0.43260167  0.50580905  0.79222603  1
  S  S31  1  0.56470478  0.45371010  0.18914858  1
  S  S32  1  0.91892905  0.50536145  0.99907026  1
  S  S33  1  0.08298025  0.44070940  0.02271707  1
  S  S34  1  0.66963500  0.53837954  0.90402306  1
  S  S35  1  0.32842159  0.44813303  0.10999966  1
  S  S36  1  0.59546431  0.02084897  0.64266186  1
  S  S37  1  0.40708603  0.05272105  0.34369371  1
  S  S38  1  0.24832408  0.53082076  0.32136957  1
  S  S39  1  0.76080017  0.50826371  0.68517685  1
  S  S40  1  0.65784203  0.92427041  0.44066371  1
  S  S41  1  0.33686546  0.92286732  0.55475324  1
