# generated using pymatgen
data_Pr2Mn3(SbS3)4
_symmetry_space_group_name_H-M   'P 1'
_cell_length_a   20.02960800
_cell_length_b   3.90410600
_cell_length_c   14.95364829
_cell_angle_alpha   90.00000000
_cell_angle_beta   126.33350609
_cell_angle_gamma   90.00000000
_symmetry_Int_Tables_number   1
_chemical_formula_structural   Pr2Mn3(SbS3)4
_chemical_formula_sum   'Pr4 Mn6 Sb8 S24'
_cell_volume   942.00006694
_cell_formula_units_Z   2
loop_
 _symmetry_equiv_pos_site_id
 _symmetry_equiv_pos_as_xyz
  1  'x, y, z'
loop_
 _atom_site_type_symbol
 _atom_site_label
 _atom_site_symmetry_multiplicity
 _atom_site_fract_x
 _atom_site_fract_y
 _atom_site_fract_z
 _atom_site_occupancy
  Pr  Pr0  1  0.27381406  0.46456999  0.88383346  1
  Pr  Pr1  1  0.72490376  0.51181570  0.13300359  1
  Pr  Pr2  1  0.75895807  0.06399233  0.86668319  1
  Pr  Pr3  1  0.23654340  0.91066402  0.12692591  1
  Mn  Mn4  1  0.30000807  0.40620416  0.60975634  1
  Mn  Mn5  1  0.69447995  0.51134486  0.36825606  1
  Mn  Mn6  1  0.00642140  0.93188368  0.00690051  1
  Mn  Mn7  1  0.80231661  0.98296817  0.63657199  1
  Mn  Mn8  1  0.21304482  0.04270312  0.40585341  1
  Mn  Mn9  1  0.48255847  0.49488719  0.97882675  1
  Sb  Sb10  1  0.88830516  0.89950508  0.46168410  1
  Sb  Sb11  1  0.11403556  0.99377703  0.54294205  1
  Sb  Sb12  1  0.03405178  0.51746891  0.82587211  1
  Sb  Sb13  1  0.96288297  0.45809838  0.20260687  1
  Sb  Sb14  1  0.40871760  0.56387530  0.45295005  1
  Sb  Sb15  1  0.60227050  0.52166672  0.52708565  1
  Sb  Sb16  1  0.52495343  0.93983469  0.78976151  1
  Sb  Sb17  1  0.46789041  0.98210200  0.17755993  1
  S  S18  1  0.92505860  0.02631972  0.79265884  1
  S  S19  1  0.05987587  0.97664678  0.20036301  1
  S  S20  1  0.41534680  0.01318125  0.97093081  1
  S  S21  1  0.58272029  0.05057867  0.99887833  1
  S  S22  1  0.16799174  0.95166253  0.89838957  1
  S  S23  1  0.83643015  0.01729884  0.11743052  1
  S  S24  1  0.10539867  0.51632806  0.64875830  1
  S  S25  1  0.89778821  0.44378592  0.35332006  1
  S  S26  1  0.73351391  0.96334187  0.30907071  1
  S  S27  1  0.26757992  0.93413429  0.68644995  1
  S  S28  1  0.17573768  0.52353701  0.44933406  1
  S  S29  1  0.82698125  0.53452055  0.55386495  1
  S  S30  1  0.43281756  0.50498943  0.79214886  1
  S  S31  1  0.56476518  0.45509626  0.18917053  1
  S  S32  1  0.91906499  0.50407599  0.99914469  1
  S  S33  1  0.08296152  0.44054686  0.02258801  1
  S  S34  1  0.66988092  0.53807674  0.90431499  1
  S  S35  1  0.32831314  0.44747496  0.11009665  1
  S  S36  1  0.59529207  0.01990509  0.64227381  1
  S  S37  1  0.40733685  0.05330005  0.34397695  1
  S  S38  1  0.24817791  0.53135630  0.32143047  1
  S  S39  1  0.76099481  0.50734680  0.68526517  1
  S  S40  1  0.65801329  0.92261524  0.44071450  1
  S  S41  1  0.33709899  0.92257989  0.55479029  1
