# generated using pymatgen
data_Pr2Mn3(SbS3)4
_symmetry_space_group_name_H-M   'P 1'
_cell_length_a   20.02960800
_cell_length_b   3.90410600
_cell_length_c   14.95364829
_cell_angle_alpha   90.00000000
_cell_angle_beta   126.33350609
_cell_angle_gamma   90.00000000
_symmetry_Int_Tables_number   1
_chemical_formula_structural   Pr2Mn3(SbS3)4
_chemical_formula_sum   'Pr4 Mn6 Sb8 S24'
_cell_volume   942.00006694
_cell_formula_units_Z   2
loop_
 _symmetry_equiv_pos_site_id
 _symmetry_equiv_pos_as_xyz
  1  'x, y, z'
loop_
 _atom_site_type_symbol
 _atom_site_label
 _atom_site_symmetry_multiplicity
 _atom_site_fract_x
 _atom_site_fract_y
 _atom_site_fract_z
 _atom_site_occupancy
  Pr  Pr0  1  0.26465833  0.47903273  0.86934307  1
  Pr  Pr1  1  0.73804899  0.51353932  0.13602192  1
  Pr  Pr2  1  0.76346211  0.00867456  0.86341601  1
  Pr  Pr3  1  0.23600173  0.99794974  0.13883042  1
  Mn  Mn4  1  0.29355420  0.48680442  0.60569528  1
  Mn  Mn5  1  0.69512050  0.52786757  0.37995841  1
  Mn  Mn6  1  0.00482507  0.99535378  0.00201365  1
  Mn  Mn7  1  0.80312944  0.99455699  0.61605022  1
  Mn  Mn8  1  0.19575744  0.97051807  0.37865538  1
  Mn  Mn9  1  0.50195770  0.47104309  0.99424921  1
  Sb  Sb10  1  0.89109177  0.99740692  0.45385101  1
  Sb  Sb11  1  0.11199481  0.96686588  0.55243882  1
  Sb  Sb12  1  0.04016847  0.51044912  0.81669541  1
  Sb  Sb13  1  0.96227216  0.52913926  0.18682136  1
  Sb  Sb14  1  0.39929223  0.50348887  0.45851248  1
  Sb  Sb15  1  0.60575863  0.48414323  0.54712644  1
  Sb  Sb16  1  0.53432145  0.00921587  0.81272051  1
  Sb  Sb17  1  0.46157459  0.00701010  0.18202434  1
  S  S18  1  0.93789428  0.96861681  0.80124158  1
  S  S19  1  0.06634980  0.97514387  0.19047170  1
  S  S20  1  0.40884525  0.01771652  0.97835894  1
  S  S21  1  0.59351014  0.00078711  0.02541930  1
  S  S22  1  0.17331140  0.98386170  0.89548914  1
  S  S23  1  0.82562517  0.01360335  0.09902396  1
  S  S24  1  0.08589166  0.45944594  0.64601491  1
  S  S25  1  0.91348861  0.48814144  0.35950959  1
  S  S26  1  0.74054233  0.95375301  0.29922316  1
  S  S27  1  0.25732335  0.99941453  0.70188690  1
  S  S28  1  0.16914121  0.48983658  0.44753505  1
  S  S29  1  0.82906816  0.48148516  0.55029739  1
  S  S30  1  0.43233841  0.50042022  0.79920364  1
  S  S31  1  0.56236478  0.53157669  0.18860563  1
  S  S32  1  0.90828706  0.49603670  0.98683715  1
  S  S33  1  0.08358219  0.49557182  0.01591751  1
  S  S34  1  0.66454001  0.50117613  0.89001232  1
  S  S35  1  0.32838759  0.52519163  0.09878122  1
  S  S36  1  0.59170565  0.00501022  0.65277467  1
  S  S37  1  0.40755309  0.96723384  0.34743994  1
  S  S38  1  0.24361809  0.47330030  0.30585409  1
  S  S39  1  0.76001091  0.50587891  0.69901878  1
  S  S40  1  0.67388028  0.01998014  0.45985687  1
  S  S41  1  0.32919751  0.98978397  0.54050317  1
