# generated using pymatgen
data_Pr2Mn3(SbS3)4
_symmetry_space_group_name_H-M   'P 1'
_cell_length_a   20.02960800
_cell_length_b   3.90410600
_cell_length_c   14.95364829
_cell_angle_alpha   90.00000000
_cell_angle_beta   126.33350609
_cell_angle_gamma   90.00000000
_symmetry_Int_Tables_number   1
_chemical_formula_structural   Pr2Mn3(SbS3)4
_chemical_formula_sum   'Pr4 Mn6 Sb8 S24'
_cell_volume   942.00006694
_cell_formula_units_Z   2
loop_
 _symmetry_equiv_pos_site_id
 _symmetry_equiv_pos_as_xyz
  1  'x, y, z'
loop_
 _atom_site_type_symbol
 _atom_site_label
 _atom_site_symmetry_multiplicity
 _atom_site_fract_x
 _atom_site_fract_y
 _atom_site_fract_z
 _atom_site_occupancy
  Pr  Pr0  1  0.27403083  0.46445157  0.88390115  1
  Pr  Pr1  1  0.72488229  0.51178154  0.13298723  1
  Pr  Pr2  1  0.75898744  0.06446862  0.86673709  1
  Pr  Pr3  1  0.23650274  0.91038214  0.12683066  1
  Mn  Mn4  1  0.30027637  0.40546541  0.60991538  1
  Mn  Mn5  1  0.69449849  0.51027660  0.36806484  1
  Mn  Mn6  1  0.00636996  0.93224856  0.00699220  1
  Mn  Mn7  1  0.80207027  0.98318462  0.63661745  1
  Mn  Mn8  1  0.21329925  0.04262480  0.40645767  1
  Mn  Mn9  1  0.48250241  0.49497972  0.97867316  1
  Sb  Sb10  1  0.88828859  0.89902389  0.46186365  1
  Sb  Sb11  1  0.11416112  0.99309175  0.54288939  1
  Sb  Sb12  1  0.03405481  0.51747895  0.82584919  1
  Sb  Sb13  1  0.96303084  0.45804175  0.20285842  1
  Sb  Sb14  1  0.40877293  0.56395081  0.45296660  1
  Sb  Sb15  1  0.60239529  0.52221369  0.52715808  1
  Sb  Sb16  1  0.52494470  0.93954448  0.78968929  1
  Sb  Sb17  1  0.46775014  0.98228833  0.17742731  1
  S  S18  1  0.92509316  0.02665620  0.79251582  1
  S  S19  1  0.06005957  0.97664760  0.20007478  1
  S  S20  1  0.41546077  0.01123413  0.97072626  1
  S  S21  1  0.58259016  0.05165442  0.99870391  1
  S  S22  1  0.16815946  0.95208964  0.89815365  1
  S  S23  1  0.83657152  0.01819783  0.11769474  1
  S  S24  1  0.10521115  0.51673283  0.64844515  1
  S  S25  1  0.89797598  0.44419203  0.35365339  1
  S  S26  1  0.73340222  0.96272647  0.30903978  1
  S  S27  1  0.26780649  0.93421066  0.68661937  1
  S  S28  1  0.17553219  0.52453151  0.44943912  1
  S  S29  1  0.82687749  0.53529820  0.55393058  1
  S  S30  1  0.43290688  0.50400667  0.79202013  1
  S  S31  1  0.56487115  0.45619544  0.18949263  1
  S  S32  1  0.91912534  0.50239215  0.99916949  1
  S  S33  1  0.08303720  0.44031855  0.02258388  1
  S  S34  1  0.67003344  0.53735121  0.90447442  1
  S  S35  1  0.32817103  0.44645196  0.11016914  1
  S  S36  1  0.59507938  0.01865237  0.64200216  1
  S  S37  1  0.40744777  0.05369642  0.34409877  1
  S  S38  1  0.24804439  0.53191100  0.32150984  1
  S  S39  1  0.76113844  0.50654764  0.68526182  1
  S  S40  1  0.65817243  0.92128926  0.44081596  1
  S  S41  1  0.33732595  0.92221384  0.55490105  1
