# generated using pymatgen
data_Pr2Mn3(SbS3)4
_symmetry_space_group_name_H-M   'P 1'
_cell_length_a   20.02960800
_cell_length_b   3.90410600
_cell_length_c   14.95364829
_cell_angle_alpha   90.00000000
_cell_angle_beta   126.33350609
_cell_angle_gamma   90.00000000
_symmetry_Int_Tables_number   1
_chemical_formula_structural   Pr2Mn3(SbS3)4
_chemical_formula_sum   'Pr4 Mn6 Sb8 S24'
_cell_volume   942.00006694
_cell_formula_units_Z   2
loop_
 _symmetry_equiv_pos_site_id
 _symmetry_equiv_pos_as_xyz
  1  'x, y, z'
loop_
 _atom_site_type_symbol
 _atom_site_label
 _atom_site_symmetry_multiplicity
 _atom_site_fract_x
 _atom_site_fract_y
 _atom_site_fract_z
 _atom_site_occupancy
  Pr  Pr0  1  0.27425141  0.46408878  0.88394094  1
  Pr  Pr1  1  0.72489547  0.51157624  0.13309695  1
  Pr  Pr2  1  0.75908086  0.06498789  0.86680331  1
  Pr  Pr3  1  0.23645734  0.91014279  0.12677640  1
  Mn  Mn4  1  0.30042505  0.40445157  0.61002484  1
  Mn  Mn5  1  0.69455014  0.50914363  0.36802757  1
  Mn  Mn6  1  0.00635070  0.93294634  0.00714645  1
  Mn  Mn7  1  0.80180244  0.98335183  0.63659241  1
  Mn  Mn8  1  0.21356512  0.04295493  0.40707388  1
  Mn  Mn9  1  0.48252512  0.49512377  0.97864011  1
  Sb  Sb10  1  0.88833593  0.89875367  0.46210541  1
  Sb  Sb11  1  0.11426503  0.99218212  0.54283835  1
  Sb  Sb12  1  0.03401452  0.51729565  0.82579721  1
  Sb  Sb13  1  0.96312655  0.45829001  0.20301223  1
  Sb  Sb14  1  0.40879373  0.56404686  0.45300595  1
  Sb  Sb15  1  0.60243429  0.52286450  0.52725060  1
  Sb  Sb16  1  0.52493172  0.93928095  0.78968374  1
  Sb  Sb17  1  0.46764078  0.98259837  0.17734882  1
  S  S18  1  0.92512114  0.02646124  0.79237362  1
  S  S19  1  0.06006647  0.97639876  0.19955654  1
  S  S20  1  0.41559202  0.00952176  0.97054576  1
  S  S21  1  0.58247782  0.05235933  0.99850018  1
  S  S22  1  0.16812976  0.95226557  0.89773611  1
  S  S23  1  0.83666636  0.01868075  0.11799007  1
  S  S24  1  0.10499909  0.51641168  0.64813244  1
  S  S25  1  0.89815562  0.44445169  0.35391986  1
  S  S26  1  0.73335507  0.96223914  0.30902847  1
  S  S27  1  0.26811760  0.93452329  0.68678006  1
  S  S28  1  0.17535386  0.52534842  0.44961410  1
  S  S29  1  0.82681248  0.53585540  0.55390843  1
  S  S30  1  0.43300845  0.50305510  0.79193580  1
  S  S31  1  0.56502560  0.45725200  0.18993710  1
  S  S32  1  0.91898096  0.50049875  0.99897414  1
  S  S33  1  0.08310012  0.43983433  0.02273182  1
  S  S34  1  0.67010316  0.53646536  0.90460805  1
  S  S35  1  0.32804893  0.44521430  0.11030444  1
  S  S36  1  0.59486244  0.01709437  0.64168941  1
  S  S37  1  0.40755033  0.05374764  0.34422643  1
  S  S38  1  0.24786177  0.53247485  0.32155832  1
  S  S39  1  0.76140048  0.50633263  0.68547766  1
  S  S40  1  0.65828714  0.92018882  0.44096567  1
  S  S41  1  0.33764463  0.92212043  0.55504560  1
