# generated using pymatgen
data_Pr2Mn3(SbS3)4
_symmetry_space_group_name_H-M   'P 1'
_cell_length_a   20.02960800
_cell_length_b   3.90410600
_cell_length_c   14.95364829
_cell_angle_alpha   90.00000000
_cell_angle_beta   126.33350609
_cell_angle_gamma   90.00000000
_symmetry_Int_Tables_number   1
_chemical_formula_structural   Pr2Mn3(SbS3)4
_chemical_formula_sum   'Pr4 Mn6 Sb8 S24'
_cell_volume   942.00006694
_cell_formula_units_Z   2
loop_
 _symmetry_equiv_pos_site_id
 _symmetry_equiv_pos_as_xyz
  1  'x, y, z'
loop_
 _atom_site_type_symbol
 _atom_site_label
 _atom_site_symmetry_multiplicity
 _atom_site_fract_x
 _atom_site_fract_y
 _atom_site_fract_z
 _atom_site_occupancy
  Pr  Pr0  1  0.27443038  0.46396286  0.88400472  1
  Pr  Pr1  1  0.72492836  0.51134449  0.13328778  1
  Pr  Pr2  1  0.75922455  0.06549882  0.86687090  1
  Pr  Pr3  1  0.23640282  0.91001430  0.12670748  1
  Mn  Mn4  1  0.30048308  0.40377260  0.61014477  1
  Mn  Mn5  1  0.69464118  0.50811190  0.36804381  1
  Mn  Mn6  1  0.00636703  0.93390486  0.00730475  1
  Mn  Mn7  1  0.80151426  0.98353999  0.63647963  1
  Mn  Mn8  1  0.21388230  0.04286818  0.40771498  1
  Mn  Mn9  1  0.48253057  0.49501004  0.97861028  1
  Sb  Sb10  1  0.88837897  0.89833518  0.46226789  1
  Sb  Sb11  1  0.11435586  0.99121520  0.54279980  1
  Sb  Sb12  1  0.03391791  0.51700081  0.82574172  1
  Sb  Sb13  1  0.96325697  0.45855906  0.20322929  1
  Sb  Sb14  1  0.40877954  0.56405803  0.45309001  1
  Sb  Sb15  1  0.60251610  0.52346666  0.52737168  1
  Sb  Sb16  1  0.52485838  0.93939485  0.78970495  1
  Sb  Sb17  1  0.46751069  0.98298244  0.17728187  1
  S  S18  1  0.92506753  0.02686378  0.79212911  1
  S  S19  1  0.06014622  0.97623593  0.19908547  1
  S  S20  1  0.41565334  0.00803962  0.97031408  1
  S  S21  1  0.58244577  0.05286039  0.99843900  1
  S  S22  1  0.16803946  0.95169233  0.89738675  1
  S  S23  1  0.83678877  0.01950275  0.11833262  1
  S  S24  1  0.10486306  0.51577749  0.64802013  1
  S  S25  1  0.89811478  0.44511084  0.35419987  1
  S  S26  1  0.73328971  0.96232264  0.30904690  1
  S  S27  1  0.26827494  0.93476272  0.68683826  1
  S  S28  1  0.17515906  0.52601796  0.44971343  1
  S  S29  1  0.82678626  0.53624395  0.55396693  1
  S  S30  1  0.43298987  0.50267784  0.79171070  1
  S  S31  1  0.56518136  0.45863170  0.19037112  1
  S  S32  1  0.91878259  0.49933659  0.99877834  1
  S  S33  1  0.08324827  0.43924813  0.02294731  1
  S  S34  1  0.67021822  0.53519287  0.90478810  1
  S  S35  1  0.32797877  0.44368140  0.11049015  1
  S  S36  1  0.59483187  0.01550803  0.64146443  1
  S  S37  1  0.40761931  0.05343531  0.34432779  1
  S  S38  1  0.24772148  0.53270751  0.32168312  1
  S  S39  1  0.76161429  0.50600819  0.68575408  1
  S  S40  1  0.65831539  0.91947565  0.44107967  1
  S  S41  1  0.33790951  0.92204700  0.55511959  1
