# generated using pymatgen
data_Pr2Mn3(SbS3)4
_symmetry_space_group_name_H-M   'P 1'
_cell_length_a   20.02960800
_cell_length_b   3.90410600
_cell_length_c   14.95364829
_cell_angle_alpha   90.00000000
_cell_angle_beta   126.33350609
_cell_angle_gamma   90.00000000
_symmetry_Int_Tables_number   1
_chemical_formula_structural   Pr2Mn3(SbS3)4
_chemical_formula_sum   'Pr4 Mn6 Sb8 S24'
_cell_volume   942.00006694
_cell_formula_units_Z   2
loop_
 _symmetry_equiv_pos_site_id
 _symmetry_equiv_pos_as_xyz
  1  'x, y, z'
loop_
 _atom_site_type_symbol
 _atom_site_label
 _atom_site_symmetry_multiplicity
 _atom_site_fract_x
 _atom_site_fract_y
 _atom_site_fract_z
 _atom_site_occupancy
  Pr  Pr0  1  0.27457849  0.46375665  0.88406254  1
  Pr  Pr1  1  0.72495248  0.51127356  0.13341219  1
  Pr  Pr2  1  0.75940589  0.06611684  0.86700787  1
  Pr  Pr3  1  0.23629195  0.91003949  0.12657838  1
  Mn  Mn4  1  0.30060282  0.40340085  0.61018712  1
  Mn  Mn5  1  0.69479462  0.50732646  0.36808734  1
  Mn  Mn6  1  0.00645882  0.93509243  0.00747961  1
  Mn  Mn7  1  0.80129459  0.98332883  0.63635069  1
  Mn  Mn8  1  0.21410573  0.04281322  0.40831875  1
  Mn  Mn9  1  0.48258071  0.49515506  0.97853173  1
  Sb  Sb10  1  0.88843285  0.89790650  0.46240372  1
  Sb  Sb11  1  0.11446246  0.99028113  0.54278664  1
  Sb  Sb12  1  0.03381933  0.51689698  0.82567430  1
  Sb  Sb13  1  0.96344007  0.45865024  0.20344618  1
  Sb  Sb14  1  0.40877237  0.56413829  0.45316349  1
  Sb  Sb15  1  0.60256940  0.52388594  0.52748846  1
  Sb  Sb16  1  0.52478429  0.93965865  0.78976214  1
  Sb  Sb17  1  0.46744087  0.98328203  0.17729574  1
  S  S18  1  0.92507603  0.02662312  0.79194133  1
  S  S19  1  0.06027667  0.97618885  0.19864852  1
  S  S20  1  0.41568989  0.00670501  0.97014938  1
  S  S21  1  0.58240133  0.05373641  0.99827143  1
  S  S22  1  0.16799074  0.95132532  0.89692949  1
  S  S23  1  0.83682748  0.02021968  0.11866819  1
  S  S24  1  0.10467340  0.51503878  0.64785908  1
  S  S25  1  0.89801033  0.44588895  0.35436040  1
  S  S26  1  0.73325651  0.96245893  0.30902564  1
  S  S27  1  0.26841263  0.93499108  0.68697219  1
  S  S28  1  0.17499356  0.52634704  0.44972836  1
  S  S29  1  0.82664104  0.53689384  0.55408675  1
  S  S30  1  0.43302114  0.50197278  0.79155239  1
  S  S31  1  0.56527153  0.45992366  0.19075964  1
  S  S32  1  0.91864368  0.49842593  0.99852005  1
  S  S33  1  0.08332453  0.43827009  0.02308720  1
  S  S34  1  0.67018234  0.53389924  0.90490003  1
  S  S35  1  0.32796966  0.44185198  0.11067156  1
  S  S36  1  0.59481186  0.01452915  0.64116999  1
  S  S37  1  0.40773423  0.05320228  0.34451523  1
  S  S38  1  0.24760673  0.53319219  0.32187320  1
  S  S39  1  0.76173460  0.50566311  0.68596248  1
  S  S40  1  0.65841875  0.91921114  0.44130330  1
  S  S41  1  0.33814886  0.92236283  0.55521390  1
