# generated using pymatgen
data_Pr2Mn3(SbS3)4
_symmetry_space_group_name_H-M   'P 1'
_cell_length_a   20.02960800
_cell_length_b   3.90410600
_cell_length_c   14.95364829
_cell_angle_alpha   90.00000000
_cell_angle_beta   126.33350609
_cell_angle_gamma   90.00000000
_symmetry_Int_Tables_number   1
_chemical_formula_structural   Pr2Mn3(SbS3)4
_chemical_formula_sum   'Pr4 Mn6 Sb8 S24'
_cell_volume   942.00006694
_cell_formula_units_Z   2
loop_
 _symmetry_equiv_pos_site_id
 _symmetry_equiv_pos_as_xyz
  1  'x, y, z'
loop_
 _atom_site_type_symbol
 _atom_site_label
 _atom_site_symmetry_multiplicity
 _atom_site_fract_x
 _atom_site_fract_y
 _atom_site_fract_z
 _atom_site_occupancy
  Pr  Pr0  1  0.27469875  0.46354208  0.88409576  1
  Pr  Pr1  1  0.72497620  0.51118189  0.13352687  1
  Pr  Pr2  1  0.75962500  0.06674036  0.86723871  1
  Pr  Pr3  1  0.23618406  0.90984820  0.12647359  1
  Mn  Mn4  1  0.30078413  0.40328819  0.61023101  1
  Mn  Mn5  1  0.69488190  0.50640750  0.36799059  1
  Mn  Mn6  1  0.00654908  0.93599588  0.00766286  1
  Mn  Mn7  1  0.80103417  0.98321562  0.63612499  1
  Mn  Mn8  1  0.21430258  0.04248954  0.40882398  1
  Mn  Mn9  1  0.48255422  0.49530536  0.97847201  1
  Sb  Sb10  1  0.88842819  0.89726036  0.46245691  1
  Sb  Sb11  1  0.11456757  0.98942895  0.54278378  1
  Sb  Sb12  1  0.03376106  0.51690127  0.82560723  1
  Sb  Sb13  1  0.96364460  0.45860426  0.20368124  1
  Sb  Sb14  1  0.40875909  0.56450239  0.45322815  1
  Sb  Sb15  1  0.60263456  0.52434191  0.52760593  1
  Sb  Sb16  1  0.52476924  0.93985271  0.78985040  1
  Sb  Sb17  1  0.46733012  0.98373039  0.17722907  1
  S  S18  1  0.92510981  0.02702582  0.79185728  1
  S  S19  1  0.06038952  0.97687441  0.19827612  1
  S  S20  1  0.41569756  0.00536570  0.96999765  1
  S  S21  1  0.58224780  0.05453912  0.99804005  1
  S  S22  1  0.16791296  0.95087792  0.89649050  1
  S  S23  1  0.83681493  0.02129099  0.11887381  1
  S  S24  1  0.10445335  0.51409637  0.64764728  1
  S  S25  1  0.89778860  0.44670964  0.35431079  1
  S  S26  1  0.73330796  0.96291991  0.30904562  1
  S  S27  1  0.26852342  0.93517496  0.68714037  1
  S  S28  1  0.17492260  0.52669398  0.44983712  1
  S  S29  1  0.82641995  0.53754202  0.55402528  1
  S  S30  1  0.43303603  0.50078425  0.79130777  1
  S  S31  1  0.56542458  0.46114763  0.19106843  1
  S  S32  1  0.91855365  0.49749630  0.99824333  1
  S  S33  1  0.08336440  0.43736788  0.02309942  1
  S  S34  1  0.67016828  0.53285292  0.90497816  1
  S  S35  1  0.32797485  0.44013045  0.11080481  1
  S  S36  1  0.59474349  0.01370678  0.64082592  1
  S  S37  1  0.40790741  0.05297568  0.34478305  1
  S  S38  1  0.24751147  0.53266400  0.32201672  1
  S  S39  1  0.76186528  0.50519555  0.68614547  1
  S  S40  1  0.65853438  0.91940802  0.44145650  1
  S  S41  1  0.33839196  0.92315770  0.55540897  1
