# generated using pymatgen
data_Pr2Mn3(SbS3)4
_symmetry_space_group_name_H-M   'P 1'
_cell_length_a   20.02960800
_cell_length_b   3.90410600
_cell_length_c   14.95364829
_cell_angle_alpha   90.00000000
_cell_angle_beta   126.33350609
_cell_angle_gamma   90.00000000
_symmetry_Int_Tables_number   1
_chemical_formula_structural   Pr2Mn3(SbS3)4
_chemical_formula_sum   'Pr4 Mn6 Sb8 S24'
_cell_volume   942.00006694
_cell_formula_units_Z   2
loop_
 _symmetry_equiv_pos_site_id
 _symmetry_equiv_pos_as_xyz
  1  'x, y, z'
loop_
 _atom_site_type_symbol
 _atom_site_label
 _atom_site_symmetry_multiplicity
 _atom_site_fract_x
 _atom_site_fract_y
 _atom_site_fract_z
 _atom_site_occupancy
  Pr  Pr0  1  0.27478219  0.46327555  0.88415259  1
  Pr  Pr1  1  0.72498872  0.51124310  0.13366789  1
  Pr  Pr2  1  0.75975681  0.06725704  0.86743464  1
  Pr  Pr3  1  0.23613405  0.90949415  0.12640835  1
  Mn  Mn4  1  0.30097525  0.40330444  0.61025775  1
  Mn  Mn5  1  0.69494433  0.50617739  0.36799314  1
  Mn  Mn6  1  0.00663998  0.93694729  0.00782307  1
  Mn  Mn7  1  0.80066691  0.98323589  0.63585266  1
  Mn  Mn8  1  0.21447633  0.04248058  0.40924143  1
  Mn  Mn9  1  0.48256342  0.49556266  0.97843454  1
  Sb  Sb10  1  0.88844393  0.89672040  0.46250421  1
  Sb  Sb11  1  0.11458358  0.98845880  0.54274408  1
  Sb  Sb12  1  0.03364993  0.51689001  0.82558565  1
  Sb  Sb13  1  0.96383891  0.45855559  0.20394979  1
  Sb  Sb14  1  0.40870499  0.56490908  0.45328544  1
  Sb  Sb15  1  0.60264575  0.52480810  0.52764983  1
  Sb  Sb16  1  0.52476580  0.94012019  0.78991757  1
  Sb  Sb17  1  0.46719584  0.98397732  0.17713665  1
  S  S18  1  0.92520889  0.02800074  0.79187000  1
  S  S19  1  0.06050319  0.97804903  0.19788239  1
  S  S20  1  0.41564404  0.00428941  0.96970928  1
  S  S21  1  0.58208368  0.05533196  0.99786934  1
  S  S22  1  0.16785776  0.95045930  0.89618372  1
  S  S23  1  0.83684377  0.02248066  0.11906191  1
  S  S24  1  0.10432557  0.51255529  0.64752625  1
  S  S25  1  0.89768132  0.44758936  0.35427987  1
  S  S26  1  0.73341853  0.96300818  0.30909276  1
  S  S27  1  0.26869206  0.93525514  0.68739952  1
  S  S28  1  0.17479343  0.52710522  0.44988008  1
  S  S29  1  0.82633302  0.53791181  0.55413602  1
  S  S30  1  0.43298648  0.49963377  0.79111454  1
  S  S31  1  0.56565442  0.46246011  0.19131864  1
  S  S32  1  0.91843210  0.49616923  0.99806769  1
  S  S33  1  0.08339499  0.43683991  0.02304614  1
  S  S34  1  0.67014759  0.53219725  0.90511910  1
  S  S35  1  0.32796643  0.43878014  0.11086077  1
  S  S36  1  0.59466045  0.01278665  0.64054122  1
  S  S37  1  0.40796399  0.05297636  0.34493901  1
  S  S38  1  0.24745683  0.53280594  0.32208804  1
  S  S39  1  0.76198189  0.50537576  0.68625766  1
  S  S40  1  0.65862127  0.91926571  0.44157051  1
  S  S41  1  0.33868248  0.92344681  0.55570678  1
