# generated using pymatgen
data_Pr2Mn3(SbS3)4
_symmetry_space_group_name_H-M   'P 1'
_cell_length_a   20.02960800
_cell_length_b   3.90410600
_cell_length_c   14.95364829
_cell_angle_alpha   90.00000000
_cell_angle_beta   126.33350609
_cell_angle_gamma   90.00000000
_symmetry_Int_Tables_number   1
_chemical_formula_structural   Pr2Mn3(SbS3)4
_chemical_formula_sum   'Pr4 Mn6 Sb8 S24'
_cell_volume   942.00006694
_cell_formula_units_Z   2
loop_
 _symmetry_equiv_pos_site_id
 _symmetry_equiv_pos_as_xyz
  1  'x, y, z'
loop_
 _atom_site_type_symbol
 _atom_site_label
 _atom_site_symmetry_multiplicity
 _atom_site_fract_x
 _atom_site_fract_y
 _atom_site_fract_z
 _atom_site_occupancy
  Pr  Pr0  1  0.27485270  0.46326218  0.88416684  1
  Pr  Pr1  1  0.72494465  0.51108652  0.13370775  1
  Pr  Pr2  1  0.75982506  0.06788923  0.86754772  1
  Pr  Pr3  1  0.23607764  0.90912585  0.12636642  1
  Mn  Mn4  1  0.30108372  0.40332361  0.61030030  1
  Mn  Mn5  1  0.69498693  0.50567214  0.36793804  1
  Mn  Mn6  1  0.00663152  0.93823295  0.00788482  1
  Mn  Mn7  1  0.80037311  0.98292885  0.63551498  1
  Mn  Mn8  1  0.21466708  0.04225488  0.40979346  1
  Mn  Mn9  1  0.48249854  0.49585154  0.97833212  1
  Sb  Sb10  1  0.88836879  0.89633590  0.46247531  1
  Sb  Sb11  1  0.11460671  0.98719705  0.54264857  1
  Sb  Sb12  1  0.03360508  0.51695753  0.82557015  1
  Sb  Sb13  1  0.96403532  0.45840611  0.20427009  1
  Sb  Sb14  1  0.40866602  0.56543587  0.45336234  1
  Sb  Sb15  1  0.60260552  0.52542459  0.52770922  1
  Sb  Sb16  1  0.52476748  0.94037439  0.78992590  1
  Sb  Sb17  1  0.46706353  0.98417060  0.17700380  1
  S  S18  1  0.92537433  0.02901972  0.79198540  1
  S  S19  1  0.06064922  0.97897144  0.19752194  1
  S  S20  1  0.41549231  0.00341466  0.96943860  1
  S  S21  1  0.58186413  0.05623194  0.99761596  1
  S  S22  1  0.16779946  0.94988550  0.89585850  1
  S  S23  1  0.83674192  0.02370935  0.11902206  1
  S  S24  1  0.10424984  0.51096244  0.64750685  1
  S  S25  1  0.89756082  0.44841679  0.35426191  1
  S  S26  1  0.73350465  0.96342326  0.30903381  1
  S  S27  1  0.26896130  0.93568711  0.68769826  1
  S  S28  1  0.17475164  0.52743717  0.44994289  1
  S  S29  1  0.82618317  0.53800509  0.55423663  1
  S  S30  1  0.43296651  0.49862546  0.79087323  1
  S  S31  1  0.56590122  0.46339409  0.19145244  1
  S  S32  1  0.91822143  0.49462589  0.99778379  1
  S  S33  1  0.08348268  0.43649447  0.02296832  1
  S  S34  1  0.67014999  0.53127482  0.90524110  1
  S  S35  1  0.32801840  0.43721785  0.11098998  1
  S  S36  1  0.59455804  0.01204963  0.64015475  1
  S  S37  1  0.40801325  0.05329304  0.34508778  1
  S  S38  1  0.24726945  0.53280625  0.32217332  1
  S  S39  1  0.76207766  0.50532317  0.68623527  1
  S  S40  1  0.65874891  0.91898250  0.44168091  1
  S  S41  1  0.33906915  0.92334948  0.55600321  1
