# generated using pymatgen
data_Pr2Mn3(SbS3)4
_symmetry_space_group_name_H-M   'P 1'
_cell_length_a   20.02960800
_cell_length_b   3.90410600
_cell_length_c   14.95364829
_cell_angle_alpha   90.00000000
_cell_angle_beta   126.33350609
_cell_angle_gamma   90.00000000
_symmetry_Int_Tables_number   1
_chemical_formula_structural   Pr2Mn3(SbS3)4
_chemical_formula_sum   'Pr4 Mn6 Sb8 S24'
_cell_volume   942.00006694
_cell_formula_units_Z   2
loop_
 _symmetry_equiv_pos_site_id
 _symmetry_equiv_pos_as_xyz
  1  'x, y, z'
loop_
 _atom_site_type_symbol
 _atom_site_label
 _atom_site_symmetry_multiplicity
 _atom_site_fract_x
 _atom_site_fract_y
 _atom_site_fract_z
 _atom_site_occupancy
  Pr  Pr0  1  0.27493211  0.46310293  0.88418593  1
  Pr  Pr1  1  0.72494246  0.51080907  0.13376809  1
  Pr  Pr2  1  0.75988208  0.06838804  0.86765318  1
  Pr  Pr3  1  0.23598022  0.90875743  0.12634881  1
  Mn  Mn4  1  0.30112322  0.40337807  0.61034332  1
  Mn  Mn5  1  0.69502754  0.50548745  0.36789387  1
  Mn  Mn6  1  0.00653738  0.93896091  0.00783906  1
  Mn  Mn7  1  0.80006830  0.98277894  0.63522949  1
  Mn  Mn8  1  0.21485516  0.04200469  0.41026371  1
  Mn  Mn9  1  0.48242829  0.49626548  0.97820680  1
  Sb  Sb10  1  0.88826951  0.89608985  0.46244410  1
  Sb  Sb11  1  0.11460272  0.98610018  0.54254928  1
  Sb  Sb12  1  0.03361891  0.51682277  0.82559548  1
  Sb  Sb13  1  0.96425024  0.45816369  0.20458416  1
  Sb  Sb14  1  0.40862185  0.56581293  0.45342546  1
  Sb  Sb15  1  0.60254794  0.52609760  0.52774431  1
  Sb  Sb16  1  0.52478531  0.94037571  0.78991148  1
  Sb  Sb17  1  0.46693739  0.98463663  0.17685770  1
  S  S18  1  0.92539051  0.03026712  0.79204458  1
  S  S19  1  0.06075985  0.97999446  0.19721130  1
  S  S20  1  0.41530689  0.00266775  0.96919605  1
  S  S21  1  0.58167672  0.05700032  0.99745858  1
  S  S22  1  0.16773431  0.94929614  0.89544495  1
  S  S23  1  0.83674401  0.02476276  0.11906276  1
  S  S24  1  0.10414741  0.50977234  0.64742266  1
  S  S25  1  0.89745228  0.44919368  0.35427907  1
  S  S26  1  0.73354923  0.96384035  0.30900187  1
  S  S27  1  0.26924321  0.93578608  0.68803015  1
  S  S28  1  0.17468589  0.52810617  0.44986740  1
  S  S29  1  0.82606313  0.53829414  0.55422674  1
  S  S30  1  0.43296622  0.49734710  0.79069102  1
  S  S31  1  0.56613322  0.46433682  0.19162775  1
  S  S32  1  0.91799027  0.49328207  0.99759410  1
  S  S33  1  0.08346464  0.43621274  0.02293620  1
  S  S34  1  0.67022117  0.53095644  0.90531381  1
  S  S35  1  0.32813907  0.43567006  0.11128328  1
  S  S36  1  0.59439575  0.01140010  0.63976911  1
  S  S37  1  0.40807593  0.05333022  0.34533878  1
  S  S38  1  0.24708648  0.53322627  0.32227569  1
  S  S39  1  0.76220385  0.50484598  0.68638845  1
  S  S40  1  0.65869858  0.91846236  0.44167334  1
  S  S41  1  0.33940354  0.92331822  0.55642558  1
