# generated using pymatgen
data_Pr2Mn3(SbS3)4
_symmetry_space_group_name_H-M   'P 1'
_cell_length_a   20.02960800
_cell_length_b   3.90410600
_cell_length_c   14.95364829
_cell_angle_alpha   90.00000000
_cell_angle_beta   126.33350609
_cell_angle_gamma   90.00000000
_symmetry_Int_Tables_number   1
_chemical_formula_structural   Pr2Mn3(SbS3)4
_chemical_formula_sum   'Pr4 Mn6 Sb8 S24'
_cell_volume   942.00006694
_cell_formula_units_Z   2
loop_
 _symmetry_equiv_pos_site_id
 _symmetry_equiv_pos_as_xyz
  1  'x, y, z'
loop_
 _atom_site_type_symbol
 _atom_site_label
 _atom_site_symmetry_multiplicity
 _atom_site_fract_x
 _atom_site_fract_y
 _atom_site_fract_z
 _atom_site_occupancy
  Pr  Pr0  1  0.27500287  0.46299830  0.88418520  1
  Pr  Pr1  1  0.72500104  0.51041459  0.13389110  1
  Pr  Pr2  1  0.75997499  0.06884241  0.86778571  1
  Pr  Pr3  1  0.23590930  0.90848554  0.12632779  1
  Mn  Mn4  1  0.30123096  0.40356929  0.61054427  1
  Mn  Mn5  1  0.69514127  0.50514476  0.36787257  1
  Mn  Mn6  1  0.00656524  0.93992634  0.00787170  1
  Mn  Mn7  1  0.79982445  0.98276716  0.63505504  1
  Mn  Mn8  1  0.21504246  0.04177374  0.41068226  1
  Mn  Mn9  1  0.48233192  0.49640957  0.97805570  1
  Sb  Sb10  1  0.88819575  0.89605458  0.46241040  1
  Sb  Sb11  1  0.11458240  0.98492059  0.54243191  1
  Sb  Sb12  1  0.03366675  0.51656142  0.82561959  1
  Sb  Sb13  1  0.96454372  0.45795144  0.20502414  1
  Sb  Sb14  1  0.40855949  0.56616773  0.45347222  1
  Sb  Sb15  1  0.60251478  0.52705736  0.52781930  1
  Sb  Sb16  1  0.52477231  0.94038817  0.78987577  1
  Sb  Sb17  1  0.46682589  0.98527553  0.17669905  1
  S  S18  1  0.92542307  0.03130364  0.79220956  1
  S  S19  1  0.06077479  0.98068827  0.19682529  1
  S  S20  1  0.41513656  0.00178187  0.96892854  1
  S  S21  1  0.58155198  0.05799299  0.99744314  1
  S  S22  1  0.16762012  0.94900631  0.89519305  1
  S  S23  1  0.83667359  0.02570437  0.11911182  1
  S  S24  1  0.10410253  0.50895810  0.64739634  1
  S  S25  1  0.89734993  0.45012781  0.35417004  1
  S  S26  1  0.73372975  0.96403783  0.30898273  1
  S  S27  1  0.26951796  0.93596117  0.68842229  1
  S  S28  1  0.17472615  0.52861917  0.44983508  1
  S  S29  1  0.82595719  0.53860303  0.55413178  1
  S  S30  1  0.43289549  0.49619466  0.79041681  1
  S  S31  1  0.56641047  0.46521922  0.19179104  1
  S  S32  1  0.91786119  0.49190036  0.99762343  1
  S  S33  1  0.08344160  0.43598876  0.02281911  1
  S  S34  1  0.67036012  0.53131695  0.90528418  1
  S  S35  1  0.32823816  0.43442146  0.11132446  1
  S  S36  1  0.59421622  0.01099657  0.63935945  1
  S  S37  1  0.40803533  0.05328525  0.34543970  1
  S  S38  1  0.24700376  0.53385317  0.32243696  1
  S  S39  1  0.76235516  0.50486035  0.68657329  1
  S  S40  1  0.65867983  0.91809901  0.44171386  1
  S  S41  1  0.33960503  0.92306028  0.55676902  1
