# generated using pymatgen
data_Pr2Mn3(SbS3)4
_symmetry_space_group_name_H-M   'P 1'
_cell_length_a   20.02960800
_cell_length_b   3.90410600
_cell_length_c   14.95364829
_cell_angle_alpha   90.00000000
_cell_angle_beta   126.33350609
_cell_angle_gamma   90.00000000
_symmetry_Int_Tables_number   1
_chemical_formula_structural   Pr2Mn3(SbS3)4
_chemical_formula_sum   'Pr4 Mn6 Sb8 S24'
_cell_volume   942.00006694
_cell_formula_units_Z   2
loop_
 _symmetry_equiv_pos_site_id
 _symmetry_equiv_pos_as_xyz
  1  'x, y, z'
loop_
 _atom_site_type_symbol
 _atom_site_label
 _atom_site_symmetry_multiplicity
 _atom_site_fract_x
 _atom_site_fract_y
 _atom_site_fract_z
 _atom_site_occupancy
  Pr  Pr0  1  0.27506054  0.46302468  0.88420485  1
  Pr  Pr1  1  0.72510700  0.51003436  0.13395049  1
  Pr  Pr2  1  0.76005060  0.06937628  0.86782578  1
  Pr  Pr3  1  0.23578817  0.90832205  0.12628136  1
  Mn  Mn4  1  0.30133101  0.40364387  0.61080404  1
  Mn  Mn5  1  0.69523527  0.50521592  0.36776761  1
  Mn  Mn6  1  0.00663822  0.94068753  0.00791758  1
  Mn  Mn7  1  0.79964453  0.98264952  0.63492179  1
  Mn  Mn8  1  0.21528021  0.04151095  0.41118860  1
  Mn  Mn9  1  0.48224029  0.49632231  0.97788092  1
  Sb  Sb10  1  0.88816538  0.89602177  0.46244247  1
  Sb  Sb11  1  0.11462750  0.98391259  0.54229270  1
  Sb  Sb12  1  0.03370628  0.51669277  0.82560088  1
  Sb  Sb13  1  0.96478312  0.45777313  0.20538333  1
  Sb  Sb14  1  0.40848990  0.56659588  0.45343909  1
  Sb  Sb15  1  0.60252891  0.52784662  0.52794070  1
  Sb  Sb16  1  0.52475716  0.94024356  0.78985296  1
  Sb  Sb17  1  0.46666992  0.98597530  0.17649202  1
  S  S18  1  0.92547854  0.03206756  0.79227350  1
  S  S19  1  0.06071558  0.98143442  0.19642083  1
  S  S20  1  0.41484352  0.00085680  0.96856796  1
  S  S21  1  0.58149507  0.05903442  0.99747625  1
  S  S22  1  0.16760990  0.94860826  0.89509697  1
  S  S23  1  0.83660265  0.02667436  0.11923898  1
  S  S24  1  0.10399076  0.50761341  0.64726907  1
  S  S25  1  0.89722281  0.45034736  0.35406460  1
  S  S26  1  0.73380966  0.96342982  0.30902232  1
  S  S27  1  0.26984190  0.93626382  0.68880757  1
  S  S28  1  0.17475593  0.52848560  0.44975574  1
  S  S29  1  0.82587281  0.53871762  0.55410537  1
  S  S30  1  0.43282860  0.49496698  0.79022182  1
  S  S31  1  0.56676740  0.46591574  0.19191808  1
  S  S32  1  0.91776796  0.49100018  0.99758944  1
  S  S33  1  0.08340067  0.43551396  0.02255778  1
  S  S34  1  0.67039910  0.53206834  0.90525735  1
  S  S35  1  0.32829614  0.43268389  0.11131895  1
  S  S36  1  0.59404694  0.01083385  0.63883349  1
  S  S37  1  0.40791810  0.05343392  0.34549592  1
  S  S38  1  0.24685346  0.53456743  0.32249167  1
  S  S39  1  0.76249097  0.50452217  0.68680939  1
  S  S40  1  0.65867601  0.91763700  0.44191973  1
  S  S41  1  0.33988202  0.92270768  0.55715372  1
