# generated using pymatgen
data_Pr2Mn3(SbS3)4
_symmetry_space_group_name_H-M   'P 1'
_cell_length_a   20.02960800
_cell_length_b   3.90410600
_cell_length_c   14.95364829
_cell_angle_alpha   90.00000000
_cell_angle_beta   126.33350609
_cell_angle_gamma   90.00000000
_symmetry_Int_Tables_number   1
_chemical_formula_structural   Pr2Mn3(SbS3)4
_chemical_formula_sum   'Pr4 Mn6 Sb8 S24'
_cell_volume   942.00006694
_cell_formula_units_Z   2
loop_
 _symmetry_equiv_pos_site_id
 _symmetry_equiv_pos_as_xyz
  1  'x, y, z'
loop_
 _atom_site_type_symbol
 _atom_site_label
 _atom_site_symmetry_multiplicity
 _atom_site_fract_x
 _atom_site_fract_y
 _atom_site_fract_z
 _atom_site_occupancy
  Pr  Pr0  1  0.26466776  0.47857693  0.86934771  1
  Pr  Pr1  1  0.73803601  0.51407959  0.13609591  1
  Pr  Pr2  1  0.76348977  0.00902061  0.86351109  1
  Pr  Pr3  1  0.23596105  0.99822828  0.13878575  1
  Mn  Mn4  1  0.29338197  0.48650761  0.60542520  1
  Mn  Mn5  1  0.69501610  0.52805839  0.38001728  1
  Mn  Mn6  1  0.00481116  0.99518914  0.00205208  1
  Mn  Mn7  1  0.80299260  0.99509880  0.61577457  1
  Mn  Mn8  1  0.19559026  0.97077534  0.37859016  1
  Mn  Mn9  1  0.50186028  0.47038728  0.99403031  1
  Sb  Sb10  1  0.89091607  0.99736801  0.45375563  1
  Sb  Sb11  1  0.11197187  0.96632945  0.55249915  1
  Sb  Sb12  1  0.04016633  0.51080476  0.81670216  1
  Sb  Sb13  1  0.96232521  0.52829482  0.18694457  1
  Sb  Sb14  1  0.39927934  0.50316764  0.45855864  1
  Sb  Sb15  1  0.60579385  0.48420496  0.54708086  1
  Sb  Sb16  1  0.53429900  0.00923718  0.81284144  1
  Sb  Sb17  1  0.46163048  0.00719064  0.18205258  1
  S  S18  1  0.93794059  0.96842099  0.80162969  1
  S  S19  1  0.06635462  0.97441039  0.19002611  1
  S  S20  1  0.40893222  0.01734481  0.97835340  1
  S  S21  1  0.59349592  0.00033075  0.02555135  1
  S  S22  1  0.17342459  0.98426866  0.89550596  1
  S  S23  1  0.82545098  0.01349149  0.09887997  1
  S  S24  1  0.08585546  0.46035741  0.64606008  1
  S  S25  1  0.91331641  0.48818632  0.35949803  1
  S  S26  1  0.74054255  0.95475636  0.29920724  1
  S  S27  1  0.25751258  0.99902431  0.70210362  1
  S  S28  1  0.16934868  0.48972587  0.44745594  1
  S  S29  1  0.82894776  0.48257006  0.55034619  1
  S  S30  1  0.43250234  0.50024250  0.79951828  1
  S  S31  1  0.56234012  0.53076529  0.18838936  1
  S  S32  1  0.90878482  0.49583289  0.98768011  1
  S  S33  1  0.08337840  0.49571235  0.01572836  1
  S  S34  1  0.66453405  0.49996094  0.88965048  1
  S  S35  1  0.32826747  0.52393703  0.09834341  1
  S  S36  1  0.59197852  0.00488958  0.65331258  1
  S  S37  1  0.40733807  0.96811376  0.34685819  1
  S  S38  1  0.24365704  0.47252568  0.30589943  1
  S  S39  1  0.76008477  0.50547887  0.69917281  1
  S  S40  1  0.67375029  0.02123890  0.45950085  1
  S  S41  1  0.32909149  0.98940372  0.54069551  1
