# generated using pymatgen
data_Pr2Mn3(SbS3)4
_symmetry_space_group_name_H-M   'P 1'
_cell_length_a   20.02960800
_cell_length_b   3.90410600
_cell_length_c   14.95364829
_cell_angle_alpha   90.00000000
_cell_angle_beta   126.33350609
_cell_angle_gamma   90.00000000
_symmetry_Int_Tables_number   1
_chemical_formula_structural   Pr2Mn3(SbS3)4
_chemical_formula_sum   'Pr4 Mn6 Sb8 S24'
_cell_volume   942.00006694
_cell_formula_units_Z   2
loop_
 _symmetry_equiv_pos_site_id
 _symmetry_equiv_pos_as_xyz
  1  'x, y, z'
loop_
 _atom_site_type_symbol
 _atom_site_label
 _atom_site_symmetry_multiplicity
 _atom_site_fract_x
 _atom_site_fract_y
 _atom_site_fract_z
 _atom_site_occupancy
  Pr  Pr0  1  0.27511774  0.46321966  0.88420317  1
  Pr  Pr1  1  0.72521859  0.50969419  0.13402862  1
  Pr  Pr2  1  0.76007835  0.06991926  0.86782162  1
  Pr  Pr3  1  0.23569552  0.90828202  0.12629241  1
  Mn  Mn4  1  0.30142597  0.40367006  0.61104221  1
  Mn  Mn5  1  0.69532632  0.50498156  0.36778258  1
  Mn  Mn6  1  0.00671594  0.94118553  0.00800516  1
  Mn  Mn7  1  0.79948072  0.98214616  0.63481626  1
  Mn  Mn8  1  0.21553218  0.04132959  0.41153778  1
  Mn  Mn9  1  0.48217832  0.49619237  0.97760414  1
  Sb  Sb10  1  0.88813704  0.89586112  0.46252597  1
  Sb  Sb11  1  0.11472241  0.98282511  0.54226423  1
  Sb  Sb12  1  0.03372514  0.51704844  0.82559042  1
  Sb  Sb13  1  0.96504401  0.45743074  0.20569387  1
  Sb  Sb14  1  0.40845088  0.56683594  0.45344833  1
  Sb  Sb15  1  0.60262180  0.52835715  0.52812521  1
  Sb  Sb16  1  0.52476648  0.94024157  0.78984431  1
  Sb  Sb17  1  0.46656953  0.98642419  0.17634762  1
  S  S18  1  0.92560633  0.03309052  0.79232902  1
  S  S19  1  0.06069709  0.98214779  0.19609280  1
  S  S20  1  0.41456659  0.99935531  0.96817016  1
  S  S21  1  0.58140728  0.05969452  0.99743088  1
  S  S22  1  0.16763738  0.94788931  0.89505725  1
  S  S23  1  0.83656993  0.02808800  0.11929317  1
  S  S24  1  0.10390866  0.50615850  0.64707273  1
  S  S25  1  0.89689825  0.45012669  0.35378853  1
  S  S26  1  0.73402948  0.96283125  0.30921804  1
  S  S27  1  0.27024095  0.93680315  0.68921488  1
  S  S28  1  0.17481251  0.52807799  0.44970073  1
  S  S29  1  0.82572816  0.53901558  0.55390234  1
  S  S30  1  0.43267567  0.49393849  0.79001368  1
  S  S31  1  0.56705347  0.46703959  0.19208930  1
  S  S32  1  0.91774629  0.49038888  0.99753819  1
  S  S33  1  0.08330215  0.43481986  0.02221971  1
  S  S34  1  0.67047113  0.53302090  0.90525527  1
  S  S35  1  0.32846382  0.43091320  0.11136746  1
  S  S36  1  0.59393303  0.01068228  0.63831912  1
  S  S37  1  0.40762994  0.05409798  0.34536408  1
  S  S38  1  0.24676738  0.53532833  0.32256845  1
  S  S39  1  0.76267151  0.50450555  0.68714620  1
  S  S40  1  0.65879729  0.91699371  0.44225678  1
  S  S41  1  0.34013718  0.92291426  0.55751301  1
