# generated using pymatgen
data_Pr2Mn3(SbS3)4
_symmetry_space_group_name_H-M   'P 1'
_cell_length_a   20.02960800
_cell_length_b   3.90410600
_cell_length_c   14.95364829
_cell_angle_alpha   90.00000000
_cell_angle_beta   126.33350609
_cell_angle_gamma   90.00000000
_symmetry_Int_Tables_number   1
_chemical_formula_structural   Pr2Mn3(SbS3)4
_chemical_formula_sum   'Pr4 Mn6 Sb8 S24'
_cell_volume   942.00006694
_cell_formula_units_Z   2
loop_
 _symmetry_equiv_pos_site_id
 _symmetry_equiv_pos_as_xyz
  1  'x, y, z'
loop_
 _atom_site_type_symbol
 _atom_site_label
 _atom_site_symmetry_multiplicity
 _atom_site_fract_x
 _atom_site_fract_y
 _atom_site_fract_z
 _atom_site_occupancy
  Pr  Pr0  1  0.27512298  0.46365997  0.88418123  1
  Pr  Pr1  1  0.72527437  0.50938948  0.13398023  1
  Pr  Pr2  1  0.76008221  0.07079581  0.86779531  1
  Pr  Pr3  1  0.23559070  0.90831553  0.12628921  1
  Mn  Mn4  1  0.30149682  0.40346660  0.61134096  1
  Mn  Mn5  1  0.69540232  0.50469435  0.36781502  1
  Mn  Mn6  1  0.00675217  0.94153998  0.00821327  1
  Mn  Mn7  1  0.79933039  0.98170614  0.63466303  1
  Mn  Mn8  1  0.21576751  0.04100508  0.41183719  1
  Mn  Mn9  1  0.48213299  0.49567409  0.97738435  1
  Sb  Sb10  1  0.88813386  0.89563892  0.46263725  1
  Sb  Sb11  1  0.11483389  0.98171496  0.54224494  1
  Sb  Sb12  1  0.03372969  0.51711421  0.82553509  1
  Sb  Sb13  1  0.96525542  0.45712068  0.20592291  1
  Sb  Sb14  1  0.40846247  0.56685901  0.45365034  1
  Sb  Sb15  1  0.60271569  0.52895870  0.52836216  1
  Sb  Sb16  1  0.52478063  0.94031320  0.78988266  1
  Sb  Sb17  1  0.46656187  0.98702642  0.17629434  1
  S  S18  1  0.92561499  0.03440458  0.79244281  1
  S  S19  1  0.06064736  0.98271362  0.19580944  1
  S  S20  1  0.41426121  0.99822603  0.96771204  1
  S  S21  1  0.58130959  0.05994540  0.99743564  1
  S  S22  1  0.16758616  0.94746885  0.89490202  1
  S  S23  1  0.83656729  0.02888018  0.11942344  1
  S  S24  1  0.10387925  0.50459480  0.64672273  1
  S  S25  1  0.89655846  0.45021727  0.35334977  1
  S  S26  1  0.73421719  0.96188861  0.30939439  1
  S  S27  1  0.27064124  0.93724695  0.68966744  1
  S  S28  1  0.17496974  0.52770234  0.44977012  1
  S  S29  1  0.82556788  0.53956376  0.55379145  1
  S  S30  1  0.43258526  0.49316030  0.78983397  1
  S  S31  1  0.56732622  0.46777570  0.19236146  1
  S  S32  1  0.91772959  0.49016259  0.99755008  1
  S  S33  1  0.08302202  0.43396391  0.02183256  1
  S  S34  1  0.67047212  0.53357796  0.90516682  1
  S  S35  1  0.32871807  0.42955661  0.11140169  1
  S  S36  1  0.59391468  0.01010691  0.63808395  1
  S  S37  1  0.40737180  0.05416650  0.34538812  1
  S  S38  1  0.24665520  0.53589384  0.32249883  1
  S  S39  1  0.76284331  0.50393126  0.68750157  1
  S  S40  1  0.65888970  0.91665617  0.44246173  1
  S  S41  1  0.34034360  0.92304432  0.55777026  1
