# generated using pymatgen
data_Pr2Mn3(SbS3)4
_symmetry_space_group_name_H-M   'P 1'
_cell_length_a   20.02960800
_cell_length_b   3.90410600
_cell_length_c   14.95364829
_cell_angle_alpha   90.00000000
_cell_angle_beta   126.33350609
_cell_angle_gamma   90.00000000
_symmetry_Int_Tables_number   1
_chemical_formula_structural   Pr2Mn3(SbS3)4
_chemical_formula_sum   'Pr4 Mn6 Sb8 S24'
_cell_volume   942.00006694
_cell_formula_units_Z   2
loop_
 _symmetry_equiv_pos_site_id
 _symmetry_equiv_pos_as_xyz
  1  'x, y, z'
loop_
 _atom_site_type_symbol
 _atom_site_label
 _atom_site_symmetry_multiplicity
 _atom_site_fract_x
 _atom_site_fract_y
 _atom_site_fract_z
 _atom_site_occupancy
  Pr  Pr0  1  0.27513386  0.46415726  0.88423091  1
  Pr  Pr1  1  0.72534007  0.50903683  0.13396589  1
  Pr  Pr2  1  0.76006360  0.07167298  0.86776669  1
  Pr  Pr3  1  0.23550355  0.90829246  0.12627854  1
  Mn  Mn4  1  0.30151588  0.40324340  0.61156698  1
  Mn  Mn5  1  0.69546597  0.50440803  0.36777066  1
  Mn  Mn6  1  0.00678936  0.94192363  0.00836569  1
  Mn  Mn7  1  0.79912822  0.98131819  0.63445780  1
  Mn  Mn8  1  0.21602407  0.04048376  0.41212966  1
  Mn  Mn9  1  0.48217146  0.49527040  0.97717522  1
  Sb  Sb10  1  0.88811908  0.89545375  0.46272035  1
  Sb  Sb11  1  0.11486831  0.98071345  0.54216966  1
  Sb  Sb12  1  0.03374672  0.51703120  0.82544781  1
  Sb  Sb13  1  0.96543378  0.45670695  0.20611299  1
  Sb  Sb14  1  0.40846582  0.56703353  0.45376883  1
  Sb  Sb15  1  0.60275467  0.52940403  0.52857396  1
  Sb  Sb16  1  0.52482506  0.94042365  0.78996695  1
  Sb  Sb17  1  0.46657444  0.98798698  0.17623250  1
  S  S18  1  0.92557925  0.03604973  0.79235526  1
  S  S19  1  0.06059533  0.98291066  0.19561183  1
  S  S20  1  0.41395170  0.99713858  0.96732351  1
  S  S21  1  0.58112527  0.06007438  0.99738668  1
  S  S22  1  0.16757271  0.94696713  0.89480265  1
  S  S23  1  0.83648048  0.02959000  0.11957606  1
  S  S24  1  0.10383378  0.50337440  0.64647167  1
  S  S25  1  0.89625648  0.45010621  0.35288939  1
  S  S26  1  0.73437541  0.96139280  0.30957561  1
  S  S27  1  0.27104468  0.93797016  0.69008782  1
  S  S28  1  0.17522048  0.52721061  0.44992728  1
  S  S29  1  0.82533127  0.53999321  0.55371676  1
  S  S30  1  0.43249321  0.49233608  0.78964294  1
  S  S31  1  0.56762676  0.46851035  0.19267949  1
  S  S32  1  0.91768431  0.48977605  0.99749098  1
  S  S33  1  0.08282171  0.43303690  0.02160030  1
  S  S34  1  0.67054240  0.53453430  0.90499501  1
  S  S35  1  0.32887281  0.42826013  0.11146511  1
  S  S36  1  0.59390979  0.00970301  0.63775080  1
  S  S37  1  0.40708571  0.05452989  0.34529949  1
  S  S38  1  0.24651675  0.53651568  0.32238831  1
  S  S39  1  0.76285683  0.50368046  0.68765396  1
  S  S40  1  0.65897830  0.91642438  0.44279214  1
  S  S41  1  0.34072563  0.92307841  0.55830606  1
