# generated using pymatgen
data_Pr2Mn3(SbS3)4
_symmetry_space_group_name_H-M   'P 1'
_cell_length_a   20.02960800
_cell_length_b   3.90410600
_cell_length_c   14.95364829
_cell_angle_alpha   90.00000000
_cell_angle_beta   126.33350609
_cell_angle_gamma   90.00000000
_symmetry_Int_Tables_number   1
_chemical_formula_structural   Pr2Mn3(SbS3)4
_chemical_formula_sum   'Pr4 Mn6 Sb8 S24'
_cell_volume   942.00006694
_cell_formula_units_Z   2
loop_
 _symmetry_equiv_pos_site_id
 _symmetry_equiv_pos_as_xyz
  1  'x, y, z'
loop_
 _atom_site_type_symbol
 _atom_site_label
 _atom_site_symmetry_multiplicity
 _atom_site_fract_x
 _atom_site_fract_y
 _atom_site_fract_z
 _atom_site_occupancy
  Pr  Pr0  1  0.27511753  0.46469616  0.88423380  1
  Pr  Pr1  1  0.72539352  0.50880731  0.13395474  1
  Pr  Pr2  1  0.76007321  0.07251723  0.86779515  1
  Pr  Pr3  1  0.23538731  0.90830091  0.12626395  1
  Mn  Mn4  1  0.30146487  0.40287621  0.61168625  1
  Mn  Mn5  1  0.69549945  0.50418170  0.36782236  1
  Mn  Mn6  1  0.00680989  0.94234936  0.00854354  1
  Mn  Mn7  1  0.79894851  0.98069139  0.63432577  1
  Mn  Mn8  1  0.21622296  0.03988210  0.41242913  1
  Mn  Mn9  1  0.48221205  0.49480482  0.97691160  1
  Sb  Sb10  1  0.88812801  0.89537592  0.46272930  1
  Sb  Sb11  1  0.11490987  0.97969863  0.54206982  1
  Sb  Sb12  1  0.03379631  0.51695475  0.82540054  1
  Sb  Sb13  1  0.96563833  0.45608894  0.20627300  1
  Sb  Sb14  1  0.40852121  0.56718728  0.45395518  1
  Sb  Sb15  1  0.60277328  0.52965680  0.52885158  1
  Sb  Sb16  1  0.52486220  0.94069107  0.79011568  1
  Sb  Sb17  1  0.46660885  0.98866792  0.17619335  1
  S  S18  1  0.92555051  0.03717486  0.79226948  1
  S  S19  1  0.06042519  0.98338458  0.19549722  1
  S  S20  1  0.41380939  0.99607214  0.96716320  1
  S  S21  1  0.58102051  0.06031295  0.99754371  1
  S  S22  1  0.16761733  0.94623956  0.89465116  1
  S  S23  1  0.83647433  0.03035672  0.11987285  1
  S  S24  1  0.10371355  0.50163858  0.64614114  1
  S  S25  1  0.89586691  0.44962001  0.35231154  1
  S  S26  1  0.73444289  0.96132670  0.30964838  1
  S  S27  1  0.27139022  0.93886873  0.69037068  1
  S  S28  1  0.17544028  0.52634688  0.45000660  1
  S  S29  1  0.82507064  0.53988595  0.55352222  1
  S  S30  1  0.43247262  0.49128948  0.78954546  1
  S  S31  1  0.56790451  0.46949170  0.19291258  1
  S  S32  1  0.91790892  0.48916313  0.99764701  1
  S  S33  1  0.08253505  0.43233127  0.02129144  1
  S  S34  1  0.67067605  0.53570763  0.90476361  1
  S  S35  1  0.32904245  0.42706188  0.11149432  1
  S  S36  1  0.59401647  0.00935207  0.63750342  1
  S  S37  1  0.40683668  0.05444609  0.34517984  1
  S  S38  1  0.24648155  0.53696232  0.32245975  1
  S  S39  1  0.76288883  0.50349080  0.68781511  1
  S  S40  1  0.65907815  0.91681842  0.44316318  1
  S  S41  1  0.34131043  0.92322520  0.55916567  1
