# generated using pymatgen
data_Pr2Mn3(SbS3)4
_symmetry_space_group_name_H-M   'P 1'
_cell_length_a   20.02960800
_cell_length_b   3.90410600
_cell_length_c   14.95364829
_cell_angle_alpha   90.00000000
_cell_angle_beta   126.33350609
_cell_angle_gamma   90.00000000
_symmetry_Int_Tables_number   1
_chemical_formula_structural   Pr2Mn3(SbS3)4
_chemical_formula_sum   'Pr4 Mn6 Sb8 S24'
_cell_volume   942.00006694
_cell_formula_units_Z   2
loop_
 _symmetry_equiv_pos_site_id
 _symmetry_equiv_pos_as_xyz
  1  'x, y, z'
loop_
 _atom_site_type_symbol
 _atom_site_label
 _atom_site_symmetry_multiplicity
 _atom_site_fract_x
 _atom_site_fract_y
 _atom_site_fract_z
 _atom_site_occupancy
  Pr  Pr0  1  0.27509725  0.46499638  0.88425566  1
  Pr  Pr1  1  0.72544182  0.50854587  0.13395557  1
  Pr  Pr2  1  0.76009328  0.07313145  0.86773924  1
  Pr  Pr3  1  0.23527218  0.90826923  0.12618925  1
  Mn  Mn4  1  0.30141349  0.40264607  0.61179895  1
  Mn  Mn5  1  0.69546702  0.50387855  0.36781708  1
  Mn  Mn6  1  0.00673588  0.94222405  0.00861199  1
  Mn  Mn7  1  0.79870369  0.98025995  0.63420173  1
  Mn  Mn8  1  0.21632714  0.03907081  0.41267092  1
  Mn  Mn9  1  0.48225992  0.49428236  0.97665811  1
  Sb  Sb10  1  0.88808149  0.89527858  0.46267151  1
  Sb  Sb11  1  0.11501562  0.97863360  0.54199416  1
  Sb  Sb12  1  0.03384627  0.51691128  0.82539570  1
  Sb  Sb13  1  0.96581969  0.45560165  0.20639748  1
  Sb  Sb14  1  0.40854699  0.56728195  0.45410467  1
  Sb  Sb15  1  0.60272056  0.52980236  0.52907679  1
  Sb  Sb16  1  0.52496204  0.94057902  0.79036837  1
  Sb  Sb17  1  0.46660101  0.98922963  0.17615325  1
  S  S18  1  0.92547469  0.03805188  0.79213627  1
  S  S19  1  0.06023384  0.98318207  0.19526326  1
  S  S20  1  0.41358523  0.99534393  0.96694503  1
  S  S21  1  0.58101759  0.06040986  0.99755881  1
  S  S22  1  0.16757812  0.94596884  0.89441583  1
  S  S23  1  0.83657934  0.03075324  0.12028256  1
  S  S24  1  0.10362628  0.50044639  0.64579441  1
  S  S25  1  0.89535672  0.44928870  0.35178244  1
  S  S26  1  0.73444075  0.96150052  0.30968083  1
  S  S27  1  0.27161645  0.93949762  0.69045825  1
  S  S28  1  0.17565238  0.52528137  0.45004581  1
  S  S29  1  0.82460781  0.53964118  0.55332677  1
  S  S30  1  0.43242328  0.48972098  0.78952220  1
  S  S31  1  0.56816278  0.47051090  0.19317749  1
  S  S32  1  0.91819547  0.48876013  0.99785001  1
  S  S33  1  0.08236614  0.43182000  0.02104757  1
  S  S34  1  0.67085891  0.53648959  0.90472038  1
  S  S35  1  0.32923947  0.42585308  0.11153503  1
  S  S36  1  0.59416173  0.00923194  0.63730406  1
  S  S37  1  0.40660825  0.05457255  0.34510046  1
  S  S38  1  0.24643868  0.53723940  0.32245029  1
  S  S39  1  0.76299075  0.50305768  0.68784748  1
  S  S40  1  0.65918547  0.91704978  0.44345693  1
  S  S41  1  0.34179648  0.92315583  0.55989431  1
