# generated using pymatgen
data_Pr2Mn3(SbS3)4
_symmetry_space_group_name_H-M   'P 1'
_cell_length_a   20.02960800
_cell_length_b   3.90410600
_cell_length_c   14.95364829
_cell_angle_alpha   90.00000000
_cell_angle_beta   126.33350609
_cell_angle_gamma   90.00000000
_symmetry_Int_Tables_number   1
_chemical_formula_structural   Pr2Mn3(SbS3)4
_chemical_formula_sum   'Pr4 Mn6 Sb8 S24'
_cell_volume   942.00006694
_cell_formula_units_Z   2
loop_
 _symmetry_equiv_pos_site_id
 _symmetry_equiv_pos_as_xyz
  1  'x, y, z'
loop_
 _atom_site_type_symbol
 _atom_site_label
 _atom_site_symmetry_multiplicity
 _atom_site_fract_x
 _atom_site_fract_y
 _atom_site_fract_z
 _atom_site_occupancy
  Pr  Pr0  1  0.27514180  0.46526039  0.88436697  1
  Pr  Pr1  1  0.72546139  0.50846363  0.13394543  1
  Pr  Pr2  1  0.76012714  0.07375025  0.86774257  1
  Pr  Pr3  1  0.23521285  0.90810373  0.12621275  1
  Mn  Mn4  1  0.30138519  0.40194300  0.61191210  1
  Mn  Mn5  1  0.69546659  0.50372643  0.36788556  1
  Mn  Mn6  1  0.00666953  0.94196976  0.00884268  1
  Mn  Mn7  1  0.79848995  0.97975707  0.63406831  1
  Mn  Mn8  1  0.21635568  0.03858588  0.41271412  1
  Mn  Mn9  1  0.48234654  0.49393102  0.97653150  1
  Sb  Sb10  1  0.88806667  0.89515103  0.46267262  1
  Sb  Sb11  1  0.11517731  0.97782700  0.54194063  1
  Sb  Sb12  1  0.03389382  0.51689827  0.82545601  1
  Sb  Sb13  1  0.96601286  0.45488168  0.20651243  1
  Sb  Sb14  1  0.40853201  0.56736662  0.45418092  1
  Sb  Sb15  1  0.60267494  0.52988460  0.52931611  1
  Sb  Sb16  1  0.52508879  0.94068719  0.79062984  1
  Sb  Sb17  1  0.46655552  0.98976904  0.17614058  1
  S  S18  1  0.92541122  0.03850942  0.79190924  1
  S  S19  1  0.06005645  0.98396154  0.19510951  1
  S  S20  1  0.41329727  0.99405150  0.96677048  1
  S  S21  1  0.58103470  0.06034496  0.99758328  1
  S  S22  1  0.16746951  0.94563926  0.89421843  1
  S  S23  1  0.83670115  0.03112055  0.12057018  1
  S  S24  1  0.10365816  0.49953811  0.64550154  1
  S  S25  1  0.89491112  0.44910336  0.35132106  1
  S  S26  1  0.73440445  0.96172039  0.30980423  1
  S  S27  1  0.27185948  0.94020361  0.69046938  1
  S  S28  1  0.17581301  0.52404346  0.45012587  1
  S  S29  1  0.82427100  0.53917151  0.55324313  1
  S  S30  1  0.43248263  0.48834943  0.78948625  1
  S  S31  1  0.56842965  0.47142626  0.19335229  1
  S  S32  1  0.91847352  0.48830330  0.99808264  1
  S  S33  1  0.08217606  0.43141506  0.02070585  1
  S  S34  1  0.67109566  0.53753231  0.90461872  1
  S  S35  1  0.32950862  0.42427795  0.11160742  1
  S  S36  1  0.59425871  0.00886263  0.63708811  1
  S  S37  1  0.40648864  0.05458655  0.34505969  1
  S  S38  1  0.24636930  0.53742133  0.32261001  1
  S  S39  1  0.76303445  0.50273144  0.68774294  1
  S  S40  1  0.65935137  0.91718850  0.44380236  1
  S  S41  1  0.34220408  0.92284694  0.56063457  1
