# generated using pymatgen
data_Pr2Mn3(SbS3)4
_symmetry_space_group_name_H-M   'P 1'
_cell_length_a   20.02960800
_cell_length_b   3.90410600
_cell_length_c   14.95364829
_cell_angle_alpha   90.00000000
_cell_angle_beta   126.33350609
_cell_angle_gamma   90.00000000
_symmetry_Int_Tables_number   1
_chemical_formula_structural   Pr2Mn3(SbS3)4
_chemical_formula_sum   'Pr4 Mn6 Sb8 S24'
_cell_volume   942.00006694
_cell_formula_units_Z   2
loop_
 _symmetry_equiv_pos_site_id
 _symmetry_equiv_pos_as_xyz
  1  'x, y, z'
loop_
 _atom_site_type_symbol
 _atom_site_label
 _atom_site_symmetry_multiplicity
 _atom_site_fract_x
 _atom_site_fract_y
 _atom_site_fract_z
 _atom_site_occupancy
  Pr  Pr0  1  0.27516811  0.46542269  0.88449692  1
  Pr  Pr1  1  0.72552116  0.50821823  0.13398488  1
  Pr  Pr2  1  0.76020410  0.07450958  0.86778387  1
  Pr  Pr3  1  0.23515656  0.90795263  0.12619114  1
  Mn  Mn4  1  0.30146095  0.40130795  0.61208851  1
  Mn  Mn5  1  0.69543473  0.50387786  0.36794299  1
  Mn  Mn6  1  0.00660711  0.94201116  0.00899268  1
  Mn  Mn7  1  0.79826565  0.97899076  0.63389024  1
  Mn  Mn8  1  0.21643297  0.03825086  0.41284778  1
  Mn  Mn9  1  0.48242452  0.49335523  0.97636552  1
  Sb  Sb10  1  0.88809073  0.89483768  0.46267473  1
  Sb  Sb11  1  0.11524529  0.97700383  0.54176581  1
  Sb  Sb12  1  0.03396299  0.51669043  0.82549601  1
  Sb  Sb13  1  0.96620003  0.45431610  0.20658966  1
  Sb  Sb14  1  0.40855696  0.56760130  0.45423718  1
  Sb  Sb15  1  0.60267354  0.52973169  0.52959996  1
  Sb  Sb16  1  0.52528142  0.94091359  0.79094333  1
  Sb  Sb17  1  0.46650136  0.99011644  0.17609570  1
  S  S18  1  0.92534554  0.03911371  0.79163864  1
  S  S19  1  0.05986736  0.98442601  0.19487960  1
  S  S20  1  0.41304374  0.99296613  0.96659314  1
  S  S21  1  0.58105498  0.06042669  0.99755663  1
  S  S22  1  0.16734543  0.94569191  0.89404303  1
  S  S23  1  0.83682896  0.03152494  0.12086233  1
  S  S24  1  0.10368788  0.49879809  0.64523207  1
  S  S25  1  0.89451125  0.44901061  0.35085279  1
  S  S26  1  0.73428746  0.96155537  0.30981932  1
  S  S27  1  0.27216001  0.94131603  0.69045182  1
  S  S28  1  0.17586468  0.52265916  0.45010624  1
  S  S29  1  0.82400852  0.53852881  0.55319395  1
  S  S30  1  0.43255769  0.48682016  0.78953824  1
  S  S31  1  0.56859582  0.47242473  0.19362544  1
  S  S32  1  0.91876460  0.48754358  0.99823705  1
  S  S33  1  0.08196917  0.43141592  0.02049318  1
  S  S34  1  0.67133719  0.53865755  0.90477549  1
  S  S35  1  0.32969064  0.42274111  0.11175218  1
  S  S36  1  0.59442806  0.00879266  0.63688639  1
  S  S37  1  0.40633226  0.05437626  0.34498099  1
  S  S38  1  0.24631897  0.53764018  0.32279506  1
  S  S39  1  0.76293854  0.50245947  0.68759296  1
  S  S40  1  0.65951936  0.91761369  0.44413753  1
  S  S41  1  0.34255520  0.92286456  0.56122229  1
