# generated using pymatgen
data_Pr2Mn3(SbS3)4
_symmetry_space_group_name_H-M   'P 1'
_cell_length_a   20.02960800
_cell_length_b   3.90410600
_cell_length_c   14.95364829
_cell_angle_alpha   90.00000000
_cell_angle_beta   126.33350609
_cell_angle_gamma   90.00000000
_symmetry_Int_Tables_number   1
_chemical_formula_structural   Pr2Mn3(SbS3)4
_chemical_formula_sum   'Pr4 Mn6 Sb8 S24'
_cell_volume   942.00006694
_cell_formula_units_Z   2
loop_
 _symmetry_equiv_pos_site_id
 _symmetry_equiv_pos_as_xyz
  1  'x, y, z'
loop_
 _atom_site_type_symbol
 _atom_site_label
 _atom_site_symmetry_multiplicity
 _atom_site_fract_x
 _atom_site_fract_y
 _atom_site_fract_z
 _atom_site_occupancy
  Pr  Pr0  1  0.27514667  0.46589792  0.88449091  1
  Pr  Pr1  1  0.72553563  0.50805632  0.13394931  1
  Pr  Pr2  1  0.76030988  0.07532467  0.86786429  1
  Pr  Pr3  1  0.23507051  0.90772264  0.12614966  1
  Mn  Mn4  1  0.30151318  0.40094698  0.61212271  1
  Mn  Mn5  1  0.69536429  0.50376119  0.36793668  1
  Mn  Mn6  1  0.00658875  0.94197447  0.00920059  1
  Mn  Mn7  1  0.79796206  0.97827050  0.63370778  1
  Mn  Mn8  1  0.21650827  0.03822345  0.41302496  1
  Mn  Mn9  1  0.48252475  0.49278545  0.97625586  1
  Sb  Sb10  1  0.88807710  0.89462723  0.46264778  1
  Sb  Sb11  1  0.11532139  0.97648648  0.54172776  1
  Sb  Sb12  1  0.03402558  0.51656619  0.82561865  1
  Sb  Sb13  1  0.96635145  0.45379576  0.20665474  1
  Sb  Sb14  1  0.40854024  0.56791200  0.45424241  1
  Sb  Sb15  1  0.60273051  0.52968929  0.52993464  1
  Sb  Sb16  1  0.52548857  0.94127095  0.79134641  1
  Sb  Sb17  1  0.46650784  0.99041716  0.17610917  1
  S  S18  1  0.92526383  0.03940807  0.79139702  1
  S  S19  1  0.05957941  0.98470110  0.19445886  1
  S  S20  1  0.41270051  0.99237948  0.96629391  1
  S  S21  1  0.58112316  0.05987951  0.99749458  1
  S  S22  1  0.16720298  0.94563343  0.89377566  1
  S  S23  1  0.83698568  0.03206994  0.12131690  1
  S  S24  1  0.10371132  0.49838075  0.64508674  1
  S  S25  1  0.89399144  0.44898110  0.35040202  1
  S  S26  1  0.73422143  0.96144370  0.30983121  1
  S  S27  1  0.27254066  0.94201965  0.69057855  1
  S  S28  1  0.17591374  0.52177992  0.45015700  1
  S  S29  1  0.82371801  0.53808835  0.55310500  1
  S  S30  1  0.43260016  0.48545736  0.78977809  1
  S  S31  1  0.56868608  0.47340031  0.19390461  1
  S  S32  1  0.91899786  0.48663514  0.99836977  1
  S  S33  1  0.08182812  0.43108840  0.02036100  1
  S  S34  1  0.67145482  0.53962072  0.90481079  1
  S  S35  1  0.32982613  0.42200945  0.11179654  1
  S  S36  1  0.59466745  0.00880985  0.63663397  1
  S  S37  1  0.40616141  0.05358263  0.34486660  1
  S  S38  1  0.24637202  0.53783797  0.32306450  1
  S  S39  1  0.76276036  0.50210825  0.68739452  1
  S  S40  1  0.65958793  0.91751728  0.44435747  1
  S  S41  1  0.34282687  0.92339012  0.56179429  1
