# generated using pymatgen
data_Pr2Mn3(SbS3)4
_symmetry_space_group_name_H-M   'P 1'
_cell_length_a   20.02960800
_cell_length_b   3.90410600
_cell_length_c   14.95364829
_cell_angle_alpha   90.00000000
_cell_angle_beta   126.33350609
_cell_angle_gamma   90.00000000
_symmetry_Int_Tables_number   1
_chemical_formula_structural   Pr2Mn3(SbS3)4
_chemical_formula_sum   'Pr4 Mn6 Sb8 S24'
_cell_volume   942.00006694
_cell_formula_units_Z   2
loop_
 _symmetry_equiv_pos_site_id
 _symmetry_equiv_pos_as_xyz
  1  'x, y, z'
loop_
 _atom_site_type_symbol
 _atom_site_label
 _atom_site_symmetry_multiplicity
 _atom_site_fract_x
 _atom_site_fract_y
 _atom_site_fract_z
 _atom_site_occupancy
  Pr  Pr0  1  0.27507848  0.46639985  0.88447118  1
  Pr  Pr1  1  0.72555378  0.50783839  0.13397113  1
  Pr  Pr2  1  0.76040381  0.07603321  0.86794920  1
  Pr  Pr3  1  0.23500506  0.90759003  0.12609969  1
  Mn  Mn4  1  0.30158636  0.40080626  0.61214128  1
  Mn  Mn5  1  0.69530361  0.50346508  0.36799925  1
  Mn  Mn6  1  0.00649391  0.94187968  0.00921764  1
  Mn  Mn7  1  0.79768079  0.97765776  0.63358858  1
  Mn  Mn8  1  0.21656596  0.03812400  0.41327456  1
  Mn  Mn9  1  0.48264839  0.49205752  0.97608658  1
  Sb  Sb10  1  0.88807868  0.89470088  0.46258561  1
  Sb  Sb11  1  0.11539294  0.97597508  0.54160591  1
  Sb  Sb12  1  0.03406169  0.51663449  0.82570906  1
  Sb  Sb13  1  0.96652581  0.45350323  0.20671310  1
  Sb  Sb14  1  0.40853268  0.56838185  0.45427988  1
  Sb  Sb15  1  0.60284746  0.52951182  0.53036001  1
  Sb  Sb16  1  0.52567959  0.94151989  0.79178533  1
  Sb  Sb17  1  0.46651251  0.99067422  0.17611846  1
  S  S18  1  0.92505715  0.03983231  0.79101826  1
  S  S19  1  0.05931031  0.98535125  0.19397575  1
  S  S20  1  0.41241646  0.99239628  0.96609474  1
  S  S21  1  0.58114764  0.05982696  0.99748619  1
  S  S22  1  0.16714516  0.94568522  0.89362031  1
  S  S23  1  0.83716923  0.03238012  0.12175696  1
  S  S24  1  0.10371955  0.49781254  0.64499593  1
  S  S25  1  0.89367230  0.44891114  0.35001373  1
  S  S26  1  0.73415868  0.96174519  0.30986171  1
  S  S27  1  0.27289738  0.94284865  0.69062548  1
  S  S28  1  0.17586395  0.52099895  0.45006349  1
  S  S29  1  0.82340039  0.53740086  0.55290434  1
  S  S30  1  0.43258533  0.48422031  0.78997364  1
  S  S31  1  0.56882118  0.47459081  0.19429941  1
  S  S32  1  0.91914063  0.48586255  0.99840854  1
  S  S33  1  0.08177290  0.43142924  0.02024978  1
  S  S34  1  0.67142822  0.54050317  0.90469250  1
  S  S35  1  0.33000367  0.42129095  0.11185716  1
  S  S36  1  0.59484730  0.00904301  0.63630868  1
  S  S37  1  0.40587520  0.05263923  0.34466070  1
  S  S38  1  0.24644805  0.53796758  0.32335841  1
  S  S39  1  0.76260544  0.50241913  0.68730270  1
  S  S40  1  0.65972009  0.91774093  0.44460039  1
  S  S41  1  0.34305313  0.92369966  0.56233099  1
