# generated using pymatgen
data_Pr2Mn3(SbS3)4
_symmetry_space_group_name_H-M   'P 1'
_cell_length_a   20.02960800
_cell_length_b   3.90410600
_cell_length_c   14.95364829
_cell_angle_alpha   90.00000000
_cell_angle_beta   126.33350609
_cell_angle_gamma   90.00000000
_symmetry_Int_Tables_number   1
_chemical_formula_structural   Pr2Mn3(SbS3)4
_chemical_formula_sum   'Pr4 Mn6 Sb8 S24'
_cell_volume   942.00006694
_cell_formula_units_Z   2
loop_
 _symmetry_equiv_pos_site_id
 _symmetry_equiv_pos_as_xyz
  1  'x, y, z'
loop_
 _atom_site_type_symbol
 _atom_site_label
 _atom_site_symmetry_multiplicity
 _atom_site_fract_x
 _atom_site_fract_y
 _atom_site_fract_z
 _atom_site_occupancy
  Pr  Pr0  1  0.27500768  0.46672653  0.88445202  1
  Pr  Pr1  1  0.72557719  0.50772666  0.13402954  1
  Pr  Pr2  1  0.76047788  0.07679872  0.86795412  1
  Pr  Pr3  1  0.23489493  0.90752990  0.12605869  1
  Mn  Mn4  1  0.30162966  0.40067855  0.61208862  1
  Mn  Mn5  1  0.69520251  0.50310334  0.36797054  1
  Mn  Mn6  1  0.00635487  0.94192224  0.00922120  1
  Mn  Mn7  1  0.79738222  0.97742627  0.63338366  1
  Mn  Mn8  1  0.21662200  0.03774490  0.41349696  1
  Mn  Mn9  1  0.48272930  0.49154335  0.97600267  1
  Sb  Sb10  1  0.88805946  0.89495021  0.46257522  1
  Sb  Sb11  1  0.11545287  0.97547534  0.54149371  1
  Sb  Sb12  1  0.03404483  0.51672494  0.82579951  1
  Sb  Sb13  1  0.96664387  0.45320723  0.20675679  1
  Sb  Sb14  1  0.40853745  0.56898643  0.45432661  1
  Sb  Sb15  1  0.60298573  0.52936071  0.53077888  1
  Sb  Sb16  1  0.52582003  0.94157876  0.79210440  1
  Sb  Sb17  1  0.46651520  0.99099860  0.17613833  1
  S  S18  1  0.92486253  0.04043304  0.79058490  1
  S  S19  1  0.05913566  0.98623606  0.19348503  1
  S  S20  1  0.41221753  0.99246179  0.96598852  1
  S  S21  1  0.58106146  0.05976120  0.99725239  1
  S  S22  1  0.16720178  0.94634063  0.89363910  1
  S  S23  1  0.83719548  0.03318839  0.12204024  1
  S  S24  1  0.10377923  0.49716304  0.64500171  1
  S  S25  1  0.89330582  0.44836421  0.34955942  1
  S  S26  1  0.73421346  0.96212460  0.30992423  1
  S  S27  1  0.27318114  0.94378788  0.69067514  1
  S  S28  1  0.17578321  0.52055410  0.44999175  1
  S  S29  1  0.82301485  0.53683218  0.55253166  1
  S  S30  1  0.43261766  0.48267371  0.79007062  1
  S  S31  1  0.56886022  0.47567758  0.19463558  1
  S  S32  1  0.91923361  0.48569307  0.99847228  1
  S  S33  1  0.08179640  0.43239713  0.02019613  1
  S  S34  1  0.67152764  0.54051047  0.90474610  1
  S  S35  1  0.33017945  0.42042346  0.11186664  1
  S  S36  1  0.59502868  0.00922370  0.63601511  1
  S  S37  1  0.40547801  0.05120343  0.34435551  1
  S  S38  1  0.24651821  0.53848758  0.32364419  1
  S  S39  1  0.76240006  0.50225746  0.68712768  1
  S  S40  1  0.65974882  0.91747236  0.44471915  1
  S  S41  1  0.34315552  0.92426225  0.56274319  1
