# generated using pymatgen
data_Pr2Mn3(SbS3)4
_symmetry_space_group_name_H-M   'P 1'
_cell_length_a   20.02960800
_cell_length_b   3.90410600
_cell_length_c   14.95364829
_cell_angle_alpha   90.00000000
_cell_angle_beta   126.33350609
_cell_angle_gamma   90.00000000
_symmetry_Int_Tables_number   1
_chemical_formula_structural   Pr2Mn3(SbS3)4
_chemical_formula_sum   'Pr4 Mn6 Sb8 S24'
_cell_volume   942.00006694
_cell_formula_units_Z   2
loop_
 _symmetry_equiv_pos_site_id
 _symmetry_equiv_pos_as_xyz
  1  'x, y, z'
loop_
 _atom_site_type_symbol
 _atom_site_label
 _atom_site_symmetry_multiplicity
 _atom_site_fract_x
 _atom_site_fract_y
 _atom_site_fract_z
 _atom_site_occupancy
  Pr  Pr0  1  0.26078379  0.49895629  0.86367058  1
  Pr  Pr1  1  0.74023875  0.49872323  0.13706716  1
  Pr  Pr2  1  0.76013924  0.00404953  0.86245206  1
  Pr  Pr3  1  0.24040932  0.99446237  0.13764847  1
  Mn  Mn4  1  0.30027721  0.50460175  0.62070962  1
  Mn  Mn5  1  0.69835514  0.50068250  0.37928459  1
  Mn  Mn6  1  0.99989279  0.99704944  0.00015025  1
  Mn  Mn7  1  0.80138512  0.99825472  0.62019639  1
  Mn  Mn8  1  0.19892501  0.99545079  0.37919264  1
  Mn  Mn9  1  0.49998737  0.49317964  0.00095424  1
  Sb  Sb10  1  0.89454636  0.00154392  0.45336901  1
  Sb  Sb11  1  0.10681646  0.99779037  0.54900550  1
  Sb  Sb12  1  0.03813745  0.49630783  0.81430279  1
  Sb  Sb13  1  0.96219459  0.49688722  0.18651674  1
  Sb  Sb14  1  0.39428118  0.49761589  0.45446304  1
  Sb  Sb15  1  0.60562374  0.49844283  0.54719588  1
  Sb  Sb16  1  0.53904966  0.99772511  0.81531029  1
  Sb  Sb17  1  0.46219938  0.00013986  0.18547693  1
  S  S18  1  0.94052910  0.99738481  0.79995439  1
  S  S19  1  0.05789714  0.99516199  0.19632350  1
  S  S20  1  0.40161876  0.99142852  0.98006989  1
  S  S21  1  0.59935448  0.99826172  0.01951683  1
  S  S22  1  0.16854746  0.99092461  0.89720136  1
  S  S23  1  0.83016239  0.00195570  0.10275361  1
  S  S24  1  0.08980214  0.49703616  0.65025956  1
  S  S25  1  0.91017215  0.49747992  0.34921189  1
  S  S26  1  0.74324212  0.99385824  0.29453484  1
  S  S27  1  0.25716800  0.00569154  0.70449995  1
  S  S28  1  0.15659614  0.49367921  0.45070736  1
  S  S29  1  0.84235882  0.50358561  0.54779613  1
  S  S30  1  0.44244832  0.49737199  0.80090804  1
  S  S31  1  0.55947561  0.49898554  0.19941375  1
  S  S32  1  0.90212603  0.49575704  0.98012085  1
  S  S33  1  0.09865790  0.49379032  0.02138242  1
  S  S34  1  0.66640364  0.50624351  0.89454276  1
  S  S35  1  0.33401326  0.49930728  0.10575769  1
  S  S36  1  0.58756415  0.00670626  0.64739064  1
  S  S37  1  0.41296477  0.99575210  0.35258573  1
  S  S38  1  0.24390841  0.49154573  0.29335294  1
  S  S39  1  0.75956162  0.49990087  0.70772393  1
  S  S40  1  0.65746648  0.99613132  0.45318216  1
  S  S41  1  0.34295643  0.99468589  0.54631632  1
