# generated using pymatgen
data_Pr2Mn3(SbS3)4
_symmetry_space_group_name_H-M   'P 1'
_cell_length_a   20.02960800
_cell_length_b   3.90410600
_cell_length_c   14.95364829
_cell_angle_alpha   90.00000000
_cell_angle_beta   126.33350609
_cell_angle_gamma   90.00000000
_symmetry_Int_Tables_number   1
_chemical_formula_structural   Pr2Mn3(SbS3)4
_chemical_formula_sum   'Pr4 Mn6 Sb8 S24'
_cell_volume   942.00006694
_cell_formula_units_Z   2
loop_
 _symmetry_equiv_pos_site_id
 _symmetry_equiv_pos_as_xyz
  1  'x, y, z'
loop_
 _atom_site_type_symbol
 _atom_site_label
 _atom_site_symmetry_multiplicity
 _atom_site_fract_x
 _atom_site_fract_y
 _atom_site_fract_z
 _atom_site_occupancy
  Pr  Pr0  1  0.26468348  0.47814512  0.86937370  1
  Pr  Pr1  1  0.73797551  0.51454241  0.13617108  1
  Pr  Pr2  1  0.76351099  0.00950909  0.86356405  1
  Pr  Pr3  1  0.23590763  0.99849822  0.13876909  1
  Mn  Mn4  1  0.29325179  0.48616452  0.60521445  1
  Mn  Mn5  1  0.69495625  0.52798704  0.38009951  1
  Mn  Mn6  1  0.00486510  0.99517701  0.00220523  1
  Mn  Mn7  1  0.80293511  0.99590721  0.61555244  1
  Mn  Mn8  1  0.19551104  0.97079915  0.37847682  1
  Mn  Mn9  1  0.50182239  0.46996864  0.99384147  1
  Sb  Sb10  1  0.89078655  0.99701398  0.45366265  1
  Sb  Sb11  1  0.11195191  0.96582175  0.55255392  1
  Sb  Sb12  1  0.04016573  0.51128073  0.81675992  1
  Sb  Sb13  1  0.96235793  0.52727439  0.18701983  1
  Sb  Sb14  1  0.39921620  0.50297041  0.45857803  1
  Sb  Sb15  1  0.60582083  0.48420018  0.54697173  1
  Sb  Sb16  1  0.53423165  0.00927320  0.81289214  1
  Sb  Sb17  1  0.46171160  0.00736600  0.18217281  1
  S  S18  1  0.93794157  0.96864352  0.80206742  1
  S  S19  1  0.06637266  0.97437953  0.18952520  1
  S  S20  1  0.40897917  0.01675154  0.97830511  1
  S  S21  1  0.59341839  0.00002791  0.02571610  1
  S  S22  1  0.17351745  0.98451272  0.89546032  1
  S  S23  1  0.82528488  0.01348648  0.09870286  1
  S  S24  1  0.08590884  0.46085164  0.64605840  1
  S  S25  1  0.91310911  0.48819314  0.35943933  1
  S  S26  1  0.74060294  0.95549852  0.29906102  1
  S  S27  1  0.25759041  0.99845031  0.70235702  1
  S  S28  1  0.16952714  0.48993030  0.44740447  1
  S  S29  1  0.82892171  0.48345001  0.55033671  1
  S  S30  1  0.43257100  0.50047063  0.79966103  1
  S  S31  1  0.56236392  0.53027652  0.18809872  1
  S  S32  1  0.90933163  0.49622993  0.98841385  1
  S  S33  1  0.08325514  0.49601840  0.01578266  1
  S  S34  1  0.66457235  0.49853764  0.88933664  1
  S  S35  1  0.32814887  0.52307843  0.09785112  1
  S  S36  1  0.59224268  0.00500870  0.65378117  1
  S  S37  1  0.40714912  0.96900294  0.34645382  1
  S  S38  1  0.24374710  0.47182384  0.30608234  1
  S  S39  1  0.76034856  0.50534097  0.69934992  1
  S  S40  1  0.67366825  0.02228977  0.45912789  1
  S  S41  1  0.32898723  0.98852264  0.54097640  1
