# generated using pymatgen
data_Pr2Mn3(SbS3)4
_symmetry_space_group_name_H-M   'P 1'
_cell_length_a   20.02960800
_cell_length_b   3.90410600
_cell_length_c   14.95364829
_cell_angle_alpha   90.00000000
_cell_angle_beta   126.33350609
_cell_angle_gamma   90.00000000
_symmetry_Int_Tables_number   1
_chemical_formula_structural   Pr2Mn3(SbS3)4
_chemical_formula_sum   'Pr4 Mn6 Sb8 S24'
_cell_volume   942.00006694
_cell_formula_units_Z   2
loop_
 _symmetry_equiv_pos_site_id
 _symmetry_equiv_pos_as_xyz
  1  'x, y, z'
loop_
 _atom_site_type_symbol
 _atom_site_label
 _atom_site_symmetry_multiplicity
 _atom_site_fract_x
 _atom_site_fract_y
 _atom_site_fract_z
 _atom_site_occupancy
  Pr  Pr0  1  0.27487819  0.46713179  0.88439317  1
  Pr  Pr1  1  0.72560430  0.50753028  0.13408861  1
  Pr  Pr2  1  0.76053458  0.07732243  0.86794578  1
  Pr  Pr3  1  0.23478396  0.90750021  0.12594493  1
  Mn  Mn4  1  0.30173625  0.40060155  0.61205666  1
  Mn  Mn5  1  0.69509017  0.50293350  0.36798525  1
  Mn  Mn6  1  0.00629362  0.94193649  0.00930084  1
  Mn  Mn7  1  0.79716556  0.97734245  0.63323133  1
  Mn  Mn8  1  0.21665230  0.03751380  0.41372528  1
  Mn  Mn9  1  0.48283642  0.49091435  0.97595712  1
  Sb  Sb10  1  0.88805965  0.89503951  0.46262207  1
  Sb  Sb11  1  0.11551094  0.97495545  0.54143247  1
  Sb  Sb12  1  0.03402206  0.51683589  0.82585142  1
  Sb  Sb13  1  0.96677747  0.45279336  0.20677066  1
  Sb  Sb14  1  0.40853216  0.56952521  0.45435163  1
  Sb  Sb15  1  0.60316006  0.52940892  0.53118608  1
  Sb  Sb16  1  0.52596695  0.94121409  0.79239384  1
  Sb  Sb17  1  0.46656548  0.99122080  0.17621100  1
  S  S18  1  0.92475202  0.04093956  0.79024100  1
  S  S19  1  0.05888235  0.98704589  0.19310941  1
  S  S20  1  0.41196105  0.99249241  0.96586403  1
  S  S21  1  0.58094000  0.05979512  0.99696411  1
  S  S22  1  0.16724301  0.94744096  0.89380167  1
  S  S23  1  0.83717670  0.03357055  0.12221230  1
  S  S24  1  0.10388957  0.49666599  0.64511148  1
  S  S25  1  0.89288923  0.44773882  0.34900852  1
  S  S26  1  0.73436311  0.96236301  0.31002332  1
  S  S27  1  0.27344127  0.94405500  0.69082461  1
  S  S28  1  0.17566766  0.52021505  0.44993345  1
  S  S29  1  0.82255407  0.53588825  0.55202398  1
  S  S30  1  0.43279662  0.48130633  0.79009849  1
  S  S31  1  0.56889793  0.47639857  0.19489841  1
  S  S32  1  0.91927723  0.48575424  0.99844847  1
  S  S33  1  0.08186870  0.43403356  0.02024375  1
  S  S34  1  0.67152915  0.54084905  0.90482989  1
  S  S35  1  0.33036216  0.41956821  0.11184516  1
  S  S36  1  0.59516868  0.00891848  0.63572372  1
  S  S37  1  0.40518933  0.04963988  0.34403664  1
  S  S38  1  0.24648487  0.53881270  0.32390263  1
  S  S39  1  0.76221982  0.50232563  0.68703810  1
  S  S40  1  0.65972288  0.91722953  0.44493861  1
  S  S41  1  0.34318462  0.92515572  0.56302835  1
