# generated using pymatgen
data_Pr2Mn3(SbS3)4
_symmetry_space_group_name_H-M   'P 1'
_cell_length_a   20.02960800
_cell_length_b   3.90410600
_cell_length_c   14.95364829
_cell_angle_alpha   90.00000000
_cell_angle_beta   126.33350609
_cell_angle_gamma   90.00000000
_symmetry_Int_Tables_number   1
_chemical_formula_structural   Pr2Mn3(SbS3)4
_chemical_formula_sum   'Pr4 Mn6 Sb8 S24'
_cell_volume   942.00006694
_cell_formula_units_Z   2
loop_
 _symmetry_equiv_pos_site_id
 _symmetry_equiv_pos_as_xyz
  1  'x, y, z'
loop_
 _atom_site_type_symbol
 _atom_site_label
 _atom_site_symmetry_multiplicity
 _atom_site_fract_x
 _atom_site_fract_y
 _atom_site_fract_z
 _atom_site_occupancy
  Pr  Pr0  1  0.27472596  0.46753772  0.88427700  1
  Pr  Pr1  1  0.72568018  0.50743358  0.13419996  1
  Pr  Pr2  1  0.76059850  0.07750597  0.86799103  1
  Pr  Pr3  1  0.23467340  0.90753368  0.12578234  1
  Mn  Mn4  1  0.30181799  0.40056999  0.61199179  1
  Mn  Mn5  1  0.69486536  0.50301163  0.36790598  1
  Mn  Mn6  1  0.00616615  0.94158139  0.00941406  1
  Mn  Mn7  1  0.79697111  0.97712213  0.63305678  1
  Mn  Mn8  1  0.21670930  0.03757390  0.41390990  1
  Mn  Mn9  1  0.48286677  0.49078777  0.97575006  1
  Sb  Sb10  1  0.88801343  0.89505673  0.46265928  1
  Sb  Sb11  1  0.11563091  0.97467672  0.54140936  1
  Sb  Sb12  1  0.03405192  0.51685247  0.82591052  1
  Sb  Sb13  1  0.96688840  0.45259875  0.20673983  1
  Sb  Sb14  1  0.40859966  0.57016046  0.45447793  1
  Sb  Sb15  1  0.60331169  0.52937431  0.53156767  1
  Sb  Sb16  1  0.52616267  0.94086187  0.79266237  1
  Sb  Sb17  1  0.46659715  0.99141761  0.17621828  1
  S  S18  1  0.92481514  0.04113349  0.79014071  1
  S  S19  1  0.05862257  0.98806866  0.19275586  1
  S  S20  1  0.41172947  0.99221853  0.96568586  1
  S  S21  1  0.58090450  0.05971331  0.99670433  1
  S  S22  1  0.16736413  0.94881450  0.89400038  1
  S  S23  1  0.83711633  0.03425829  0.12227071  1
  S  S24  1  0.10398830  0.49548412  0.64513563  1
  S  S25  1  0.89247195  0.44747849  0.34852854  1
  S  S26  1  0.73450728  0.96223198  0.31014132  1
  S  S27  1  0.27362408  0.94479846  0.69091560  1
  S  S28  1  0.17557291  0.51953504  0.44990757  1
  S  S29  1  0.82197733  0.53513946  0.55120801  1
  S  S30  1  0.43301411  0.48024133  0.79019880  1
  S  S31  1  0.56880696  0.47689802  0.19511564  1
  S  S32  1  0.91939270  0.48566224  0.99847065  1
  S  S33  1  0.08197741  0.43538413  0.02048386  1
  S  S34  1  0.67161865  0.54108462  0.90497785  1
  S  S35  1  0.33050066  0.41838960  0.11185870  1
  S  S36  1  0.59534830  0.00845591  0.63558624  1
  S  S37  1  0.40509632  0.04849175  0.34378958  1
  S  S38  1  0.24648176  0.53887147  0.32420205  1
  S  S39  1  0.76210376  0.50255743  0.68696379  1
  S  S40  1  0.65978149  0.91751382  0.44512412  1
  S  S41  1  0.34320467  0.92599894  0.56331057  1
