# generated using pymatgen
data_Pr2Mn3(SbS3)4
_symmetry_space_group_name_H-M   'P 1'
_cell_length_a   20.02960800
_cell_length_b   3.90410600
_cell_length_c   14.95364829
_cell_angle_alpha   90.00000000
_cell_angle_beta   126.33350609
_cell_angle_gamma   90.00000000
_symmetry_Int_Tables_number   1
_chemical_formula_structural   Pr2Mn3(SbS3)4
_chemical_formula_sum   'Pr4 Mn6 Sb8 S24'
_cell_volume   942.00006694
_cell_formula_units_Z   2
loop_
 _symmetry_equiv_pos_site_id
 _symmetry_equiv_pos_as_xyz
  1  'x, y, z'
loop_
 _atom_site_type_symbol
 _atom_site_label
 _atom_site_symmetry_multiplicity
 _atom_site_fract_x
 _atom_site_fract_y
 _atom_site_fract_z
 _atom_site_occupancy
  Pr  Pr0  1  0.27460302  0.46777771  0.88416171  1
  Pr  Pr1  1  0.72572347  0.50737739  0.13422780  1
  Pr  Pr2  1  0.76067266  0.07760995  0.86806939  1
  Pr  Pr3  1  0.23463750  0.90747145  0.12566351  1
  Mn  Mn4  1  0.30183868  0.40054793  0.61177306  1
  Mn  Mn5  1  0.69471386  0.50285636  0.36783812  1
  Mn  Mn6  1  0.00605276  0.94139240  0.00950640  1
  Mn  Mn7  1  0.79679426  0.97674034  0.63286914  1
  Mn  Mn8  1  0.21677888  0.03759313  0.41409932  1
  Mn  Mn9  1  0.48284338  0.49024319  0.97546931  1
  Sb  Sb10  1  0.88802307  0.89486233  0.46275352  1
  Sb  Sb11  1  0.11580696  0.97422072  0.54146216  1
  Sb  Sb12  1  0.03414663  0.51666408  0.82606054  1
  Sb  Sb13  1  0.96699888  0.45254637  0.20674954  1
  Sb  Sb14  1  0.40865356  0.57065658  0.45463751  1
  Sb  Sb15  1  0.60343709  0.52956664  0.53193099  1
  Sb  Sb16  1  0.52634254  0.94065903  0.79287100  1
  Sb  Sb17  1  0.46664460  0.99177053  0.17625533  1
  S  S18  1  0.92492154  0.04117956  0.79002542  1
  S  S19  1  0.05837187  0.98883542  0.19241635  1
  S  S20  1  0.41147867  0.99187846  0.96556488  1
  S  S21  1  0.58097122  0.06002388  0.99662443  1
  S  S22  1  0.16740163  0.94991872  0.89405659  1
  S  S23  1  0.83678440  0.03470380  0.12209086  1
  S  S24  1  0.10402938  0.49441842  0.64514036  1
  S  S25  1  0.89209528  0.44725096  0.34809537  1
  S  S26  1  0.73469887  0.96215691  0.31027656  1
  S  S27  1  0.27382451  0.94565665  0.69107032  1
  S  S28  1  0.17551322  0.51876543  0.44993807  1
  S  S29  1  0.82153794  0.53404376  0.55047684  1
  S  S30  1  0.43327022  0.47904793  0.79029274  1
  S  S31  1  0.56870976  0.47722422  0.19534865  1
  S  S32  1  0.91953441  0.48571777  0.99835229  1
  S  S33  1  0.08214676  0.43686799  0.02073660  1
  S  S34  1  0.67180750  0.54149064  0.90519137  1
  S  S35  1  0.33065026  0.41690588  0.11184191  1
  S  S36  1  0.59551822  0.00777129  0.63550754  1
  S  S37  1  0.40493067  0.04684185  0.34336700  1
  S  S38  1  0.24650801  0.53914521  0.32443615  1
  S  S39  1  0.76198282  0.50266138  0.68677005  1
  S  S40  1  0.65995402  0.91766108  0.44538319  1
  S  S41  1  0.34337829  0.92656456  0.56374679  1
