# generated using pymatgen
data_Pr2Mn3(SbS3)4
_symmetry_space_group_name_H-M   'P 1'
_cell_length_a   20.02960800
_cell_length_b   3.90410600
_cell_length_c   14.95364829
_cell_angle_alpha   90.00000000
_cell_angle_beta   126.33350609
_cell_angle_gamma   90.00000000
_symmetry_Int_Tables_number   1
_chemical_formula_structural   Pr2Mn3(SbS3)4
_chemical_formula_sum   'Pr4 Mn6 Sb8 S24'
_cell_volume   942.00006694
_cell_formula_units_Z   2
loop_
 _symmetry_equiv_pos_site_id
 _symmetry_equiv_pos_as_xyz
  1  'x, y, z'
loop_
 _atom_site_type_symbol
 _atom_site_label
 _atom_site_symmetry_multiplicity
 _atom_site_fract_x
 _atom_site_fract_y
 _atom_site_fract_z
 _atom_site_occupancy
  Pr  Pr0  1  0.27453126  0.46813312  0.88415607  1
  Pr  Pr1  1  0.72578967  0.50760248  0.13428279  1
  Pr  Pr2  1  0.76071793  0.07762503  0.86805124  1
  Pr  Pr3  1  0.23464610  0.90750791  0.12550919  1
  Mn  Mn4  1  0.30187915  0.40034910  0.61159098  1
  Mn  Mn5  1  0.69458008  0.50259868  0.36778145  1
  Mn  Mn6  1  0.00599020  0.94108114  0.00968405  1
  Mn  Mn7  1  0.79672244  0.97664282  0.63277721  1
  Mn  Mn8  1  0.21680945  0.03741139  0.41430760  1
  Mn  Mn9  1  0.48283725  0.48958819  0.97526408  1
  Sb  Sb10  1  0.88805137  0.89457951  0.46284393  1
  Sb  Sb11  1  0.11608017  0.97393202  0.54158323  1
  Sb  Sb12  1  0.03419293  0.51674407  0.82617431  1
  Sb  Sb13  1  0.96715098  0.45272532  0.20681270  1
  Sb  Sb14  1  0.40873222  0.57077770  0.45475343  1
  Sb  Sb15  1  0.60366300  0.52970323  0.53234240  1
  Sb  Sb16  1  0.52649606  0.94052066  0.79307563  1
  Sb  Sb17  1  0.46665535  0.99205510  0.17633249  1
  S  S18  1  0.92497855  0.04152249  0.78983790  1
  S  S19  1  0.05812623  0.98944961  0.19203245  1
  S  S20  1  0.41124751  0.99181586  0.96543573  1
  S  S21  1  0.58108056  0.06015663  0.99643592  1
  S  S22  1  0.16753335  0.95097098  0.89418915  1
  S  S23  1  0.83647779  0.03448401  0.12186649  1
  S  S24  1  0.10409594  0.49344625  0.64506397  1
  S  S25  1  0.89171513  0.44670567  0.34779558  1
  S  S26  1  0.73488049  0.96173630  0.31039018  1
  S  S27  1  0.27393659  0.94662992  0.69109414  1
  S  S28  1  0.17555205  0.51806215  0.45002087  1
  S  S29  1  0.82120331  0.53303032  0.54988908  1
  S  S30  1  0.43330075  0.47733034  0.79009478  1
  S  S31  1  0.56861767  0.47718580  0.19561874  1
  S  S32  1  0.91955910  0.48609030  0.99802165  1
  S  S33  1  0.08230166  0.43791096  0.02110969  1
  S  S34  1  0.67209401  0.54170852  0.90541599  1
  S  S35  1  0.33079386  0.41580952  0.11191029  1
  S  S36  1  0.59569376  0.00768443  0.63550367  1
  S  S37  1  0.40474808  0.04484797  0.34291610  1
  S  S38  1  0.24664504  0.53902559  0.32470446  1
  S  S39  1  0.76184567  0.50324019  0.68663530  1
  S  S40  1  0.65991371  0.91771707  0.44558346  1
  S  S41  1  0.34358568  0.92729621  0.56431677  1
