# generated using pymatgen
data_Pr2Mn3(SbS3)4
_symmetry_space_group_name_H-M   'P 1'
_cell_length_a   20.02960800
_cell_length_b   3.90410600
_cell_length_c   14.95364829
_cell_angle_alpha   90.00000000
_cell_angle_beta   126.33350609
_cell_angle_gamma   90.00000000
_symmetry_Int_Tables_number   1
_chemical_formula_structural   Pr2Mn3(SbS3)4
_chemical_formula_sum   'Pr4 Mn6 Sb8 S24'
_cell_volume   942.00006694
_cell_formula_units_Z   2
loop_
 _symmetry_equiv_pos_site_id
 _symmetry_equiv_pos_as_xyz
  1  'x, y, z'
loop_
 _atom_site_type_symbol
 _atom_site_label
 _atom_site_symmetry_multiplicity
 _atom_site_fract_x
 _atom_site_fract_y
 _atom_site_fract_z
 _atom_site_occupancy
  Pr  Pr0  1  0.27449661  0.46837758  0.88413755  1
  Pr  Pr1  1  0.72583902  0.50743525  0.13431778  1
  Pr  Pr2  1  0.76076532  0.07794611  0.86804805  1
  Pr  Pr3  1  0.23461685  0.90758675  0.12532756  1
  Mn  Mn4  1  0.30190689  0.40003277  0.61144250  1
  Mn  Mn5  1  0.69450809  0.50202554  0.36772021  1
  Mn  Mn6  1  0.00588392  0.94124237  0.00973617  1
  Mn  Mn7  1  0.79657642  0.97647524  0.63279301  1
  Mn  Mn8  1  0.21683409  0.03714440  0.41442364  1
  Mn  Mn9  1  0.48287690  0.48900943  0.97516163  1
  Sb  Sb10  1  0.88802556  0.89449345  0.46286862  1
  Sb  Sb11  1  0.11633142  0.97376369  0.54168053  1
  Sb  Sb12  1  0.03427391  0.51673149  0.82633646  1
  Sb  Sb13  1  0.96725282  0.45292058  0.20683439  1
  Sb  Sb14  1  0.40879449  0.57096734  0.45490881  1
  Sb  Sb15  1  0.60388009  0.52947048  0.53277880  1
  Sb  Sb16  1  0.52659374  0.94029539  0.79318377  1
  Sb  Sb17  1  0.46668072  0.99231375  0.17643393  1
  S  S18  1  0.92514389  0.04177980  0.78971101  1
  S  S19  1  0.05785152  0.98980632  0.19158024  1
  S  S20  1  0.41101060  0.99206461  0.96537959  1
  S  S21  1  0.58105811  0.06023298  0.99613615  1
  S  S22  1  0.16774965  0.95175963  0.89444041  1
  S  S23  1  0.83624465  0.03371649  0.12170364  1
  S  S24  1  0.10427874  0.49307183  0.64508118  1
  S  S25  1  0.89135780  0.44635078  0.34741906  1
  S  S26  1  0.73509305  0.96179623  0.31053601  1
  S  S27  1  0.27399562  0.94756036  0.69109699  1
  S  S28  1  0.17564495  0.51709191  0.45012106  1
  S  S29  1  0.82092539  0.53205538  0.54943909  1
  S  S30  1  0.43328969  0.47568604  0.78988912  1
  S  S31  1  0.56860860  0.47692708  0.19601228  1
  S  S32  1  0.91942866  0.48639065  0.99775332  1
  S  S33  1  0.08243189  0.43897250  0.02138140  1
  S  S34  1  0.67240161  0.54249727  0.90568948  1
  S  S35  1  0.33093794  0.41450516  0.11197863  1
  S  S36  1  0.59581501  0.00790031  0.63542595  1
  S  S37  1  0.40454355  0.04252998  0.34242537  1
  S  S38  1  0.24681053  0.53863913  0.32495828  1
  S  S39  1  0.76170105  0.50366145  0.68651985  1
  S  S40  1  0.65997215  0.91764540  0.44579977  1
  S  S41  1  0.34379935  0.92841534  0.56486517  1
