# generated using pymatgen
data_Pr2Mn3(SbS3)4
_symmetry_space_group_name_H-M   'P 1'
_cell_length_a   20.02960800
_cell_length_b   3.90410600
_cell_length_c   14.95364829
_cell_angle_alpha   90.00000000
_cell_angle_beta   126.33350609
_cell_angle_gamma   90.00000000
_symmetry_Int_Tables_number   1
_chemical_formula_structural   Pr2Mn3(SbS3)4
_chemical_formula_sum   'Pr4 Mn6 Sb8 S24'
_cell_volume   942.00006694
_cell_formula_units_Z   2
loop_
 _symmetry_equiv_pos_site_id
 _symmetry_equiv_pos_as_xyz
  1  'x, y, z'
loop_
 _atom_site_type_symbol
 _atom_site_label
 _atom_site_symmetry_multiplicity
 _atom_site_fract_x
 _atom_site_fract_y
 _atom_site_fract_z
 _atom_site_occupancy
  Pr  Pr0  1  0.27443706  0.46851180  0.88409269  1
  Pr  Pr1  1  0.72595457  0.50740733  0.13434973  1
  Pr  Pr2  1  0.76083475  0.07805904  0.86800835  1
  Pr  Pr3  1  0.23457791  0.90777741  0.12502975  1
  Mn  Mn4  1  0.30193179  0.39977546  0.61131826  1
  Mn  Mn5  1  0.69448199  0.50136648  0.36766475  1
  Mn  Mn6  1  0.00572514  0.94127443  0.00967599  1
  Mn  Mn7  1  0.79647251  0.97650785  0.63288651  1
  Mn  Mn8  1  0.21675764  0.03719864  0.41450084  1
  Mn  Mn9  1  0.48294659  0.48865872  0.97505933  1
  Sb  Sb10  1  0.88803002  0.89449627  0.46291126  1
  Sb  Sb11  1  0.11651067  0.97365552  0.54179733  1
  Sb  Sb12  1  0.03431219  0.51665645  0.82645684  1
  Sb  Sb13  1  0.96731704  0.45311286  0.20675905  1
  Sb  Sb14  1  0.40884823  0.57124289  0.45503403  1
  Sb  Sb15  1  0.60408137  0.52932899  0.53314917  1
  Sb  Sb16  1  0.52665379  0.94049214  0.79326100  1
  Sb  Sb17  1  0.46673575  0.99269524  0.17652495  1
  S  S18  1  0.92529603  0.04181830  0.78970395  1
  S  S19  1  0.05756074  0.99035963  0.19127524  1
  S  S20  1  0.41075789  0.99256838  0.96538484  1
  S  S21  1  0.58105945  0.06009630  0.99583957  1
  S  S22  1  0.16792431  0.95201288  0.89475266  1
  S  S23  1  0.83602073  0.03321172  0.12164548  1
  S  S24  1  0.10437695  0.49253021  0.64504894  1
  S  S25  1  0.89111037  0.44635829  0.34730892  1
  S  S26  1  0.73526944  0.96201236  0.31071577  1
  S  S27  1  0.27405748  0.94864127  0.69119802  1
  S  S28  1  0.17576608  0.51656534  0.45026963  1
  S  S29  1  0.82070037  0.53111202  0.54899410  1
  S  S30  1  0.43320002  0.47393820  0.78971423  1
  S  S31  1  0.56857970  0.47754511  0.19637048  1
  S  S32  1  0.91927489  0.48672491  0.99754215  1
  S  S33  1  0.08251397  0.43993206  0.02154843  1
  S  S34  1  0.67272793  0.54329486  0.90597696  1
  S  S35  1  0.33127344  0.41341330  0.11223644  1
  S  S36  1  0.59587210  0.00817010  0.63532867  1
  S  S37  1  0.40445146  0.04039115  0.34217423  1
  S  S38  1  0.24689035  0.53818743  0.32521510  1
  S  S39  1  0.76151611  0.50338962  0.68631641  1
  S  S40  1  0.65988467  0.91757055  0.44584600  1
  S  S41  1  0.34392079  0.92895846  0.56530391  1
