# generated using pymatgen
data_Pr2Mn3(SbS3)4
_symmetry_space_group_name_H-M   'P 1'
_cell_length_a   20.02960800
_cell_length_b   3.90410600
_cell_length_c   14.95364829
_cell_angle_alpha   90.00000000
_cell_angle_beta   126.33350609
_cell_angle_gamma   90.00000000
_symmetry_Int_Tables_number   1
_chemical_formula_structural   Pr2Mn3(SbS3)4
_chemical_formula_sum   'Pr4 Mn6 Sb8 S24'
_cell_volume   942.00006694
_cell_formula_units_Z   2
loop_
 _symmetry_equiv_pos_site_id
 _symmetry_equiv_pos_as_xyz
  1  'x, y, z'
loop_
 _atom_site_type_symbol
 _atom_site_label
 _atom_site_symmetry_multiplicity
 _atom_site_fract_x
 _atom_site_fract_y
 _atom_site_fract_z
 _atom_site_occupancy
  Pr  Pr0  1  0.27443282  0.46850697  0.88402273  1
  Pr  Pr1  1  0.72604429  0.50752423  0.13442152  1
  Pr  Pr2  1  0.76085745  0.07795743  0.86795598  1
  Pr  Pr3  1  0.23455773  0.90818034  0.12484443  1
  Mn  Mn4  1  0.30188314  0.39965221  0.61117511  1
  Mn  Mn5  1  0.69450130  0.50080536  0.36756136  1
  Mn  Mn6  1  0.00566497  0.94138843  0.00965951  1
  Mn  Mn7  1  0.79641167  0.97690651  0.63310286  1
  Mn  Mn8  1  0.21659312  0.03695494  0.41445290  1
  Mn  Mn9  1  0.48294772  0.48852809  0.97496038  1
  Sb  Sb10  1  0.88799034  0.89453860  0.46292511  1
  Sb  Sb11  1  0.11668282  0.97344699  0.54184688  1
  Sb  Sb12  1  0.03431912  0.51647434  0.82650732  1
  Sb  Sb13  1  0.96734263  0.45328506  0.20671538  1
  Sb  Sb14  1  0.40893007  0.57160195  0.45512033  1
  Sb  Sb15  1  0.60429934  0.52944616  0.53356735  1
  Sb  Sb16  1  0.52675900  0.94062866  0.79340401  1
  Sb  Sb17  1  0.46681306  0.99310495  0.17660292  1
  S  S18  1  0.92552729  0.04135809  0.78969480  1
  S  S19  1  0.05725658  0.99093492  0.19095328  1
  S  S20  1  0.41059715  0.99294151  0.96544666  1
  S  S21  1  0.58109438  0.05961832  0.99557964  1
  S  S22  1  0.16814131  0.95194507  0.89509300  1
  S  S23  1  0.83565337  0.03328570  0.12151800  1
  S  S24  1  0.10446374  0.49180420  0.64493301  1
  S  S25  1  0.89079696  0.44640616  0.34707491  1
  S  S26  1  0.73551835  0.96198221  0.31107590  1
  S  S27  1  0.27408375  0.95006788  0.69126842  1
  S  S28  1  0.17594869  0.51658379  0.45046130  1
  S  S29  1  0.82036223  0.53048427  0.54840019  1
  S  S30  1  0.43314911  0.47212534  0.78956290  1
  S  S31  1  0.56859221  0.47842051  0.19680567  1
  S  S32  1  0.91911512  0.48631334  0.99735912  1
  S  S33  1  0.08257594  0.44077816  0.02176029  1
  S  S34  1  0.67305403  0.54414436  0.90625801  1
  S  S35  1  0.33148882  0.41254651  0.11241981  1
  S  S36  1  0.59604118  0.00807992  0.63531655  1
  S  S37  1  0.40434020  0.03857455  0.34194487  1
  S  S38  1  0.24694920  0.53788388  0.32555119  1
  S  S39  1  0.76134021  0.50324868  0.68605106  1
  S  S40  1  0.65985591  0.91778173  0.44590352  1
  S  S41  1  0.34395350  0.92974867  0.56559808  1
