# generated using pymatgen
data_Pr2Mn3(SbS3)4
_symmetry_space_group_name_H-M   'P 1'
_cell_length_a   20.02960800
_cell_length_b   3.90410600
_cell_length_c   14.95364829
_cell_angle_alpha   90.00000000
_cell_angle_beta   126.33350609
_cell_angle_gamma   90.00000000
_symmetry_Int_Tables_number   1
_chemical_formula_structural   Pr2Mn3(SbS3)4
_chemical_formula_sum   'Pr4 Mn6 Sb8 S24'
_cell_volume   942.00006694
_cell_formula_units_Z   2
loop_
 _symmetry_equiv_pos_site_id
 _symmetry_equiv_pos_as_xyz
  1  'x, y, z'
loop_
 _atom_site_type_symbol
 _atom_site_label
 _atom_site_symmetry_multiplicity
 _atom_site_fract_x
 _atom_site_fract_y
 _atom_site_fract_z
 _atom_site_occupancy
  Pr  Pr0  1  0.27444237  0.46861056  0.88401246  1
  Pr  Pr1  1  0.72616295  0.50749682  0.13445379  1
  Pr  Pr2  1  0.76081225  0.07764705  0.86786825  1
  Pr  Pr3  1  0.23452271  0.90858509  0.12472926  1
  Mn  Mn4  1  0.30184708  0.39950623  0.61091040  1
  Mn  Mn5  1  0.69447287  0.50042103  0.36739708  1
  Mn  Mn6  1  0.00568339  0.94134533  0.00974041  1
  Mn  Mn7  1  0.79639106  0.97754612  0.63336380  1
  Mn  Mn8  1  0.21642816  0.03659709  0.41451422  1
  Mn  Mn9  1  0.48287934  0.48847604  0.97490177  1
  Sb  Sb10  1  0.88794590  0.89479308  0.46295151  1
  Sb  Sb11  1  0.11684670  0.97325020  0.54197963  1
  Sb  Sb12  1  0.03434632  0.51646849  0.82655988  1
  Sb  Sb13  1  0.96733642  0.45345598  0.20664725  1
  Sb  Sb14  1  0.40904176  0.57170429  0.45521153  1
  Sb  Sb15  1  0.60446385  0.52934037  0.53389884  1
  Sb  Sb16  1  0.52683311  0.94078303  0.79353184  1
  Sb  Sb17  1  0.46692656  0.99343480  0.17671339  1
  S  S18  1  0.92574733  0.04089922  0.78980632  1
  S  S19  1  0.05690677  0.99213182  0.19065671  1
  S  S20  1  0.41050152  0.99311330  0.96554762  1
  S  S21  1  0.58105023  0.05940829  0.99519612  1
  S  S22  1  0.16836584  0.95193072  0.89538111  1
  S  S23  1  0.83518915  0.03323947  0.12121178  1
  S  S24  1  0.10451782  0.49060354  0.64486961  1
  S  S25  1  0.89052998  0.44646956  0.34686289  1
  S  S26  1  0.73583437  0.96190962  0.31144788  1
  S  S27  1  0.27402945  0.95127662  0.69128139  1
  S  S28  1  0.17615256  0.51699760  0.45077602  1
  S  S29  1  0.82000763  0.53049991  0.54781054  1
  S  S30  1  0.43324542  0.47014018  0.78953504  1
  S  S31  1  0.56862235  0.47888887  0.19729397  1
  S  S32  1  0.91888080  0.48610582  0.99709506  1
  S  S33  1  0.08269764  0.44119626  0.02209529  1
  S  S34  1  0.67336617  0.54486294  0.90660693  1
  S  S35  1  0.33146449  0.41257888  0.11241997  1
  S  S36  1  0.59625642  0.00821454  0.63536598  1
  S  S37  1  0.40434192  0.03697706  0.34191203  1
  S  S38  1  0.24700674  0.53757644  0.32587704  1
  S  S39  1  0.76113866  0.50357361  0.68571821  1
  S  S40  1  0.65987561  0.91806998  0.44593551  1
  S  S41  1  0.34402833  0.93048327  0.56594183  1
