# generated using pymatgen
data_Pr2Mn3(SbS3)4
_symmetry_space_group_name_H-M   'P 1'
_cell_length_a   20.02960800
_cell_length_b   3.90410600
_cell_length_c   14.95364829
_cell_angle_alpha   90.00000000
_cell_angle_beta   126.33350609
_cell_angle_gamma   90.00000000
_symmetry_Int_Tables_number   1
_chemical_formula_structural   Pr2Mn3(SbS3)4
_chemical_formula_sum   'Pr4 Mn6 Sb8 S24'
_cell_volume   942.00006694
_cell_formula_units_Z   2
loop_
 _symmetry_equiv_pos_site_id
 _symmetry_equiv_pos_as_xyz
  1  'x, y, z'
loop_
 _atom_site_type_symbol
 _atom_site_label
 _atom_site_symmetry_multiplicity
 _atom_site_fract_x
 _atom_site_fract_y
 _atom_site_fract_z
 _atom_site_occupancy
  Pr  Pr0  1  0.27450285  0.46896291  0.88401584  1
  Pr  Pr1  1  0.72629697  0.50740145  0.13450909  1
  Pr  Pr2  1  0.76079734  0.07723642  0.86780787  1
  Pr  Pr3  1  0.23443198  0.90900750  0.12457464  1
  Mn  Mn4  1  0.30181517  0.39909696  0.61046331  1
  Mn  Mn5  1  0.69438024  0.49959344  0.36718877  1
  Mn  Mn6  1  0.00573274  0.94103213  0.00989052  1
  Mn  Mn7  1  0.79624280  0.97835593  0.63349932  1
  Mn  Mn8  1  0.21627724  0.03617913  0.41449152  1
  Mn  Mn9  1  0.48285868  0.48850720  0.97488837  1
  Sb  Sb10  1  0.88787689  0.89499077  0.46296998  1
  Sb  Sb11  1  0.11696217  0.97305182  0.54199924  1
  Sb  Sb12  1  0.03439810  0.51655440  0.82660648  1
  Sb  Sb13  1  0.96733046  0.45354880  0.20659837  1
  Sb  Sb14  1  0.40923843  0.57190860  0.45533604  1
  Sb  Sb15  1  0.60465400  0.52936148  0.53425251  1
  Sb  Sb16  1  0.52688189  0.94126071  0.79355472  1
  Sb  Sb17  1  0.46704793  0.99361482  0.17687188  1
  S  S18  1  0.92599828  0.04015180  0.78991678  1
  S  S19  1  0.05665177  0.99313837  0.19051919  1
  S  S20  1  0.41044095  0.99331202  0.96567601  1
  S  S21  1  0.58107155  0.05919183  0.99481033  1
  S  S22  1  0.16858329  0.95228586  0.89577996  1
  S  S23  1  0.83487278  0.03306550  0.12095523  1
  S  S24  1  0.10459852  0.48913285  0.64483418  1
  S  S25  1  0.89032912  0.44620620  0.34664596  1
  S  S26  1  0.73622660  0.96208415  0.31185709  1
  S  S27  1  0.27404378  0.95224260  0.69129421  1
  S  S28  1  0.17637129  0.51760335  0.45101950  1
  S  S29  1  0.81971862  0.53064118  0.54743839  1
  S  S30  1  0.43334642  0.46814993  0.78953690  1
  S  S31  1  0.56871729  0.47938701  0.19782619  1
  S  S32  1  0.91872691  0.48624100  0.99688774  1
  S  S33  1  0.08283784  0.44177476  0.02245580  1
  S  S34  1  0.67369165  0.54551553  0.90680747  1
  S  S35  1  0.33141281  0.41309250  0.11246249  1
  S  S36  1  0.59645501  0.00866807  0.63543500  1
  S  S37  1  0.40428022  0.03555818  0.34182851  1
  S  S38  1  0.24707917  0.53772811  0.32618761  1
  S  S39  1  0.76092774  0.50385191  0.68530956  1
  S  S40  1  0.65993787  0.91847399  0.44588975  1
  S  S41  1  0.34403423  0.93107359  0.56615671  1
