# generated using pymatgen
data_Pr2Mn3(SbS3)4
_symmetry_space_group_name_H-M   'P 1'
_cell_length_a   20.02960800
_cell_length_b   3.90410600
_cell_length_c   14.95364829
_cell_angle_alpha   90.00000000
_cell_angle_beta   126.33350609
_cell_angle_gamma   90.00000000
_symmetry_Int_Tables_number   1
_chemical_formula_structural   Pr2Mn3(SbS3)4
_chemical_formula_sum   'Pr4 Mn6 Sb8 S24'
_cell_volume   942.00006694
_cell_formula_units_Z   2
loop_
 _symmetry_equiv_pos_site_id
 _symmetry_equiv_pos_as_xyz
  1  'x, y, z'
loop_
 _atom_site_type_symbol
 _atom_site_label
 _atom_site_symmetry_multiplicity
 _atom_site_fract_x
 _atom_site_fract_y
 _atom_site_fract_z
 _atom_site_occupancy
  Pr  Pr0  1  0.27454499  0.46914678  0.88401191  1
  Pr  Pr1  1  0.72644873  0.50736155  0.13460165  1
  Pr  Pr2  1  0.76078076  0.07661817  0.86771944  1
  Pr  Pr3  1  0.23430775  0.90950278  0.12443072  1
  Mn  Mn4  1  0.30183975  0.39856685  0.61017658  1
  Mn  Mn5  1  0.69425033  0.49889303  0.36698948  1
  Mn  Mn6  1  0.00574058  0.94081298  0.00989523  1
  Mn  Mn7  1  0.79608388  0.97952465  0.63357318  1
  Mn  Mn8  1  0.21621389  0.03574783  0.41445369  1
  Mn  Mn9  1  0.48281665  0.48854827  0.97488585  1
  Sb  Sb10  1  0.88779571  0.89486432  0.46300361  1
  Sb  Sb11  1  0.11711320  0.97265860  0.54208821  1
  Sb  Sb12  1  0.03445706  0.51638609  0.82665173  1
  Sb  Sb13  1  0.96735071  0.45370270  0.20657953  1
  Sb  Sb14  1  0.40947074  0.57187426  0.45553812  1
  Sb  Sb15  1  0.60486669  0.52949583  0.53459845  1
  Sb  Sb16  1  0.52688702  0.94165872  0.79356731  1
  Sb  Sb17  1  0.46716261  0.99353148  0.17697419  1
  S  S18  1  0.92621243  0.03927241  0.78992112  1
  S  S19  1  0.05642398  0.99426070  0.19037663  1
  S  S20  1  0.41040570  0.99411126  0.96584470  1
  S  S21  1  0.58104180  0.05938471  0.99442453  1
  S  S22  1  0.16883903  0.95234313  0.89618338  1
  S  S23  1  0.83461811  0.03297138  0.12081878  1
  S  S24  1  0.10461665  0.48809855  0.64467626  1
  S  S25  1  0.89020165  0.44581038  0.34638730  1
  S  S26  1  0.73657050  0.96218104  0.31225225  1
  S  S27  1  0.27398054  0.95325793  0.69122543  1
  S  S28  1  0.17656633  0.51832061  0.45120735  1
  S  S29  1  0.81950561  0.53070456  0.54718245  1
  S  S30  1  0.43353414  0.46637969  0.78948403  1
  S  S31  1  0.56884849  0.47955231  0.19851124  1
  S  S32  1  0.91857771  0.48607777  0.99660298  1
  S  S33  1  0.08296473  0.44190584  0.02291760  1
  S  S34  1  0.67408174  0.54600701  0.90705554  1
  S  S35  1  0.33147808  0.41392604  0.11245886  1
  S  S36  1  0.59662906  0.00933418  0.63564942  1
  S  S37  1  0.40415161  0.03386023  0.34171286  1
  S  S38  1  0.24715511  0.53786892  0.32642025  1
  S  S39  1  0.76072367  0.50447040  0.68488976  1
  S  S40  1  0.66005813  0.91888516  0.44584838  1
  S  S41  1  0.34407535  0.93086741  0.56631116  1
