# generated using pymatgen
data_Pr2Mn3(SbS3)4
_symmetry_space_group_name_H-M   'P 1'
_cell_length_a   20.02960800
_cell_length_b   3.90410600
_cell_length_c   14.95364829
_cell_angle_alpha   90.00000000
_cell_angle_beta   126.33350609
_cell_angle_gamma   90.00000000
_symmetry_Int_Tables_number   1
_chemical_formula_structural   Pr2Mn3(SbS3)4
_chemical_formula_sum   'Pr4 Mn6 Sb8 S24'
_cell_volume   942.00006694
_cell_formula_units_Z   2
loop_
 _symmetry_equiv_pos_site_id
 _symmetry_equiv_pos_as_xyz
  1  'x, y, z'
loop_
 _atom_site_type_symbol
 _atom_site_label
 _atom_site_symmetry_multiplicity
 _atom_site_fract_x
 _atom_site_fract_y
 _atom_site_fract_z
 _atom_site_occupancy
  Pr  Pr0  1  0.26470832  0.47781207  0.86940674  1
  Pr  Pr1  1  0.73792776  0.51491331  0.13625219  1
  Pr  Pr2  1  0.76355645  0.00996293  0.86364906  1
  Pr  Pr3  1  0.23592276  0.99879722  0.13878610  1
  Mn  Mn4  1  0.29307309  0.48621822  0.60492514  1
  Mn  Mn5  1  0.69484426  0.52793255  0.38013749  1
  Mn  Mn6  1  0.00493275  0.99498284  0.00228586  1
  Mn  Mn7  1  0.80293622  0.99711867  0.61545906  1
  Mn  Mn8  1  0.19546306  0.97082969  0.37831521  1
  Mn  Mn9  1  0.50180121  0.46926558  0.99363700  1
  Sb  Sb10  1  0.89069320  0.99664021  0.45357941  1
  Sb  Sb11  1  0.11187654  0.96535437  0.55250828  1
  Sb  Sb12  1  0.04014306  0.51190603  0.81689535  1
  Sb  Sb13  1  0.96239976  0.52628952  0.18703000  1
  Sb  Sb14  1  0.39917380  0.50282660  0.45866713  1
  Sb  Sb15  1  0.60582052  0.48398882  0.54685182  1
  Sb  Sb16  1  0.53417220  0.00942634  0.81286274  1
  Sb  Sb17  1  0.46185311  0.00754792  0.18234016  1
  S  S18  1  0.93781943  0.96875036  0.80232284  1
  S  S19  1  0.06638375  0.97427735  0.18909182  1
  S  S20  1  0.40915799  0.01681345  0.97833298  1
  S  S21  1  0.59336672  0.99976596  0.02602132  1
  S  S22  1  0.17362007  0.98425436  0.89543180  1
  S  S23  1  0.82527450  0.01379465  0.09856548  1
  S  S24  1  0.08612684  0.46108332  0.64611431  1
  S  S25  1  0.91294860  0.48785565  0.35935988  1
  S  S26  1  0.74063583  0.95634941  0.29872926  1
  S  S27  1  0.25769945  0.99778655  0.70272557  1
  S  S28  1  0.16969653  0.49021178  0.44743028  1
  S  S29  1  0.82893917  0.48430935  0.55033874  1
  S  S30  1  0.43259776  0.50039079  0.79957377  1
  S  S31  1  0.56225488  0.52935031  0.18778357  1
  S  S32  1  0.90982756  0.49654389  0.98905182  1
  S  S33  1  0.08316986  0.49663268  0.01584428  1
  S  S34  1  0.66462768  0.49690502  0.88910462  1
  S  S35  1  0.32795777  0.52178793  0.09733451  1
  S  S36  1  0.59249787  0.00532059  0.65423110  1
  S  S37  1  0.40697149  0.97003311  0.34619437  1
  S  S38  1  0.24382498  0.47114841  0.30632212  1
  S  S39  1  0.76058240  0.50508382  0.69954383  1
  S  S40  1  0.67372654  0.02307816  0.45898229  1
  S  S41  1  0.32889715  0.98769542  0.54119082  1
