# generated using pymatgen
data_Pr2Mn3(SbS3)4
_symmetry_space_group_name_H-M   'P 1'
_cell_length_a   20.02960800
_cell_length_b   3.90410600
_cell_length_c   14.95364829
_cell_angle_alpha   90.00000000
_cell_angle_beta   126.33350609
_cell_angle_gamma   90.00000000
_symmetry_Int_Tables_number   1
_chemical_formula_structural   Pr2Mn3(SbS3)4
_chemical_formula_sum   'Pr4 Mn6 Sb8 S24'
_cell_volume   942.00006694
_cell_formula_units_Z   2
loop_
 _symmetry_equiv_pos_site_id
 _symmetry_equiv_pos_as_xyz
  1  'x, y, z'
loop_
 _atom_site_type_symbol
 _atom_site_label
 _atom_site_symmetry_multiplicity
 _atom_site_fract_x
 _atom_site_fract_y
 _atom_site_fract_z
 _atom_site_occupancy
  Pr  Pr0  1  0.27461493  0.46938527  0.88405152  1
  Pr  Pr1  1  0.72662978  0.50761155  0.13468359  1
  Pr  Pr2  1  0.76077978  0.07602979  0.86764105  1
  Pr  Pr3  1  0.23416262  0.90986770  0.12437350  1
  Mn  Mn4  1  0.30189506  0.39780951  0.60993337  1
  Mn  Mn5  1  0.69415782  0.49844539  0.36682335  1
  Mn  Mn6  1  0.00573601  0.94074969  0.00995044  1
  Mn  Mn7  1  0.79591220  0.98044348  0.63364132  1
  Mn  Mn8  1  0.21616690  0.03502136  0.41449204  1
  Mn  Mn9  1  0.48279374  0.48865877  0.97482753  1
  Sb  Sb10  1  0.88761114  0.89467749  0.46295434  1
  Sb  Sb11  1  0.11725762  0.97243341  0.54219280  1
  Sb  Sb12  1  0.03455384  0.51597276  0.82671274  1
  Sb  Sb13  1  0.96738292  0.45408311  0.20651250  1
  Sb  Sb14  1  0.40965808  0.57197766  0.45573618  1
  Sb  Sb15  1  0.60507718  0.52965599  0.53493162  1
  Sb  Sb16  1  0.52690475  0.94190225  0.79350431  1
  Sb  Sb17  1  0.46720953  0.99349430  0.17707959  1
  S  S18  1  0.92654954  0.03806394  0.79007743  1
  S  S19  1  0.05629663  0.99516501  0.19037784  1
  S  S20  1  0.41026759  0.99444610  0.96598592  1
  S  S21  1  0.58103484  0.05909823  0.99408860  1
  S  S22  1  0.16917340  0.95270175  0.89663714  1
  S  S23  1  0.83428641  0.03251158  0.12066216  1
  S  S24  1  0.10464266  0.48719647  0.64460787  1
  S  S25  1  0.89010571  0.44578895  0.34614849  1
  S  S26  1  0.73687521  0.96234864  0.31276468  1
  S  S27  1  0.27381610  0.95421872  0.69108245  1
  S  S28  1  0.17680150  0.51927581  0.45143442  1
  S  S29  1  0.81942179  0.53105248  0.54721176  1
  S  S30  1  0.43376025  0.46474266  0.78950412  1
  S  S31  1  0.56897689  0.48031157  0.19929530  1
  S  S32  1  0.91842225  0.48665101  0.99640669  1
  S  S33  1  0.08304630  0.44198732  0.02328625  1
  S  S34  1  0.67445058  0.54617621  0.90739521  1
  S  S35  1  0.33137726  0.41461484  0.11244802  1
  S  S36  1  0.59672195  0.01010526  0.63583181  1
  S  S37  1  0.40395725  0.03248003  0.34147007  1
  S  S38  1  0.24729224  0.53800342  0.32667629  1
  S  S39  1  0.76049180  0.50522268  0.68445753  1
  S  S40  1  0.66020527  0.91931728  0.44577334  1
  S  S41  1  0.34423121  0.93050236  0.56658852  1
