# generated using pymatgen
data_Pr2Mn3(SbS3)4
_symmetry_space_group_name_H-M   'P 1'
_cell_length_a   20.02960800
_cell_length_b   3.90410600
_cell_length_c   14.95364829
_cell_angle_alpha   90.00000000
_cell_angle_beta   126.33350609
_cell_angle_gamma   90.00000000
_symmetry_Int_Tables_number   1
_chemical_formula_structural   Pr2Mn3(SbS3)4
_chemical_formula_sum   'Pr4 Mn6 Sb8 S24'
_cell_volume   942.00006694
_cell_formula_units_Z   2
loop_
 _symmetry_equiv_pos_site_id
 _symmetry_equiv_pos_as_xyz
  1  'x, y, z'
loop_
 _atom_site_type_symbol
 _atom_site_label
 _atom_site_symmetry_multiplicity
 _atom_site_fract_x
 _atom_site_fract_y
 _atom_site_fract_z
 _atom_site_occupancy
  Pr  Pr0  1  0.27468758  0.46955841  0.88414522  1
  Pr  Pr1  1  0.72677447  0.50787383  0.13476471  1
  Pr  Pr2  1  0.76075792  0.07539836  0.86754214  1
  Pr  Pr3  1  0.23402233  0.91021873  0.12429878  1
  Mn  Mn4  1  0.30191923  0.39698437  0.60974952  1
  Mn  Mn5  1  0.69395622  0.49784660  0.36650073  1
  Mn  Mn6  1  0.00582331  0.94110195  0.01002656  1
  Mn  Mn7  1  0.79572928  0.98121965  0.63376632  1
  Mn  Mn8  1  0.21610489  0.03435209  0.41454312  1
  Mn  Mn9  1  0.48277995  0.48882978  0.97477705  1
  Sb  Sb10  1  0.88744646  0.89444444  0.46284765  1
  Sb  Sb11  1  0.11736180  0.97220218  0.54228590  1
  Sb  Sb12  1  0.03458738  0.51562927  0.82669086  1
  Sb  Sb13  1  0.96738373  0.45458031  0.20647409  1
  Sb  Sb14  1  0.40981805  0.57203773  0.45596295  1
  Sb  Sb15  1  0.60522337  0.52955313  0.53520520  1
  Sb  Sb16  1  0.52700483  0.94202854  0.79352565  1
  Sb  Sb17  1  0.46722759  0.99349823  0.17721628  1
  S  S18  1  0.92675087  0.03630830  0.79021142  1
  S  S19  1  0.05622031  0.99577865  0.19040430  1
  S  S20  1  0.41027991  0.99476097  0.96612472  1
  S  S21  1  0.58106924  0.05918379  0.99379665  1
  S  S22  1  0.16945461  0.95351727  0.89694938  1
  S  S23  1  0.83396946  0.03155246  0.12029927  1
  S  S24  1  0.10457567  0.48663829  0.64459509  1
  S  S25  1  0.89002080  0.44552461  0.34597338  1
  S  S26  1  0.73716201  0.96328918  0.31337436  1
  S  S27  1  0.27361148  0.95488659  0.69075017  1
  S  S28  1  0.17702344  0.52001737  0.45155834  1
  S  S29  1  0.81929859  0.53154956  0.54718675  1
  S  S30  1  0.43390307  0.46391090  0.78953633  1
  S  S31  1  0.56911103  0.48137504  0.20004578  1
  S  S32  1  0.91827416  0.48735889  0.99634126  1
  S  S33  1  0.08335971  0.44200222  0.02400777  1
  S  S34  1  0.67482805  0.54695524  0.90769305  1
  S  S35  1  0.33128192  0.41525489  0.11238424  1
  S  S36  1  0.59680126  0.01067947  0.63594561  1
  S  S37  1  0.40373020  0.03137208  0.34115692  1
  S  S38  1  0.24739293  0.53831636  0.32682179  1
  S  S39  1  0.76029142  0.50586011  0.68410329  1
  S  S40  1  0.66035306  0.91981559  0.44569623  1
  S  S41  1  0.34439513  0.93019672  0.56676341  1
