# generated using pymatgen
data_Pr2Mn3(SbS3)4
_symmetry_space_group_name_H-M   'P 1'
_cell_length_a   20.02960800
_cell_length_b   3.90410600
_cell_length_c   14.95364829
_cell_angle_alpha   90.00000000
_cell_angle_beta   126.33350609
_cell_angle_gamma   90.00000000
_symmetry_Int_Tables_number   1
_chemical_formula_structural   Pr2Mn3(SbS3)4
_chemical_formula_sum   'Pr4 Mn6 Sb8 S24'
_cell_volume   942.00006694
_cell_formula_units_Z   2
loop_
 _symmetry_equiv_pos_site_id
 _symmetry_equiv_pos_as_xyz
  1  'x, y, z'
loop_
 _atom_site_type_symbol
 _atom_site_label
 _atom_site_symmetry_multiplicity
 _atom_site_fract_x
 _atom_site_fract_y
 _atom_site_fract_z
 _atom_site_occupancy
  Pr  Pr0  1  0.27478879  0.46972697  0.88423440  1
  Pr  Pr1  1  0.72688344  0.50813478  0.13479569  1
  Pr  Pr2  1  0.76073871  0.07467243  0.86746715  1
  Pr  Pr3  1  0.23392863  0.91061808  0.12429619  1
  Mn  Mn4  1  0.30189325  0.39611461  0.60953824  1
  Mn  Mn5  1  0.69379868  0.49709201  0.36613558  1
  Mn  Mn6  1  0.00581778  0.94145317  0.01001901  1
  Mn  Mn7  1  0.79547872  0.98139670  0.63376642  1
  Mn  Mn8  1  0.21607342  0.03385532  0.41457412  1
  Mn  Mn9  1  0.48278062  0.48911350  0.97463482  1
  Sb  Sb10  1  0.88728489  0.89411074  0.46275255  1
  Sb  Sb11  1  0.11749159  0.97199380  0.54242969  1
  Sb  Sb12  1  0.03466091  0.51532941  0.82669208  1
  Sb  Sb13  1  0.96737949  0.45507196  0.20645902  1
  Sb  Sb14  1  0.41000465  0.57200558  0.45623957  1
  Sb  Sb15  1  0.60526528  0.52936984  0.53543589  1
  Sb  Sb16  1  0.52706779  0.94206329  0.79351745  1
  Sb  Sb17  1  0.46718653  0.99363450  0.17732374  1
  S  S18  1  0.92692263  0.03470482  0.79029840  1
  S  S19  1  0.05609437  0.99642400  0.19038009  1
  S  S20  1  0.41033191  0.99505808  0.96631358  1
  S  S21  1  0.58101053  0.05929419  0.99352490  1
  S  S22  1  0.16982516  0.95377004  0.89729348  1
  S  S23  1  0.83375363  0.03087525  0.12010597  1
  S  S24  1  0.10458184  0.48619156  0.64469103  1
  S  S25  1  0.88997664  0.44550322  0.34582023  1
  S  S26  1  0.73734245  0.96397284  0.31382358  1
  S  S27  1  0.27331467  0.95554084  0.69038320  1
  S  S28  1  0.17718260  0.52068286  0.45152119  1
  S  S29  1  0.81905896  0.53220437  0.54691686  1
  S  S30  1  0.43393759  0.46360749  0.78948484  1
  S  S31  1  0.56913887  0.48260734  0.20060358  1
  S  S32  1  0.91811261  0.48801198  0.99634278  1
  S  S33  1  0.08376735  0.44161671  0.02477586  1
  S  S34  1  0.67505350  0.54821509  0.90791911  1
  S  S35  1  0.33109949  0.41587855  0.11219835  1
  S  S36  1  0.59698216  0.01126892  0.63616101  1
  S  S37  1  0.40337299  0.03029854  0.34074643  1
  S  S38  1  0.24753217  0.53841000  0.32705733  1
  S  S39  1  0.76012761  0.50664867  0.68379134  1
  S  S40  1  0.66051103  0.92017399  0.44571815  1
  S  S41  1  0.34446026  0.93008441  0.56685236  1
