# generated using pymatgen
data_Pr2Mn3(SbS3)4
_symmetry_space_group_name_H-M   'P 1'
_cell_length_a   20.02960800
_cell_length_b   3.90410600
_cell_length_c   14.95364829
_cell_angle_alpha   90.00000000
_cell_angle_beta   126.33350609
_cell_angle_gamma   90.00000000
_symmetry_Int_Tables_number   1
_chemical_formula_structural   Pr2Mn3(SbS3)4
_chemical_formula_sum   'Pr4 Mn6 Sb8 S24'
_cell_volume   942.00006694
_cell_formula_units_Z   2
loop_
 _symmetry_equiv_pos_site_id
 _symmetry_equiv_pos_as_xyz
  1  'x, y, z'
loop_
 _atom_site_type_symbol
 _atom_site_label
 _atom_site_symmetry_multiplicity
 _atom_site_fract_x
 _atom_site_fract_y
 _atom_site_fract_z
 _atom_site_occupancy
  Pr  Pr0  1  0.27492123  0.46991097  0.88434857  1
  Pr  Pr1  1  0.72704445  0.50848660  0.13484235  1
  Pr  Pr2  1  0.76068550  0.07406570  0.86739611  1
  Pr  Pr3  1  0.23386028  0.91069146  0.12436404  1
  Mn  Mn4  1  0.30184004  0.39547967  0.60931375  1
  Mn  Mn5  1  0.69363760  0.49630023  0.36582615  1
  Mn  Mn6  1  0.00575528  0.94186373  0.00989253  1
  Mn  Mn7  1  0.79530001  0.98169460  0.63372792  1
  Mn  Mn8  1  0.21618677  0.03351100  0.41462669  1
  Mn  Mn9  1  0.48278263  0.48933659  0.97444109  1
  Sb  Sb10  1  0.88716617  0.89356089  0.46268889  1
  Sb  Sb11  1  0.11757447  0.97151723  0.54253611  1
  Sb  Sb12  1  0.03467117  0.51487262  0.82663550  1
  Sb  Sb13  1  0.96736720  0.45540064  0.20642795  1
  Sb  Sb14  1  0.41018504  0.57222627  0.45646908  1
  Sb  Sb15  1  0.60523802  0.52894632  0.53557077  1
  Sb  Sb16  1  0.52711851  0.94221510  0.79349507  1
  Sb  Sb17  1  0.46715016  0.99370568  0.17740366  1
  S  S18  1  0.92704373  0.03324642  0.79042764  1
  S  S19  1  0.05600885  0.99706680  0.19037395  1
  S  S20  1  0.41038747  0.99539043  0.96650630  1
  S  S21  1  0.58102792  0.05879006  0.99339330  1
  S  S22  1  0.17026760  0.95387001  0.89779052  1
  S  S23  1  0.83363575  0.03058635  0.11995498  1
  S  S24  1  0.10450339  0.48542714  0.64488750  1
  S  S25  1  0.88997867  0.44573286  0.34573612  1
  S  S26  1  0.73748310  0.96465597  0.31420684  1
  S  S27  1  0.27308770  0.95583077  0.69016744  1
  S  S28  1  0.17731033  0.52118542  0.45155035  1
  S  S29  1  0.81886046  0.53262153  0.54667745  1
  S  S30  1  0.43389636  0.46346003  0.78950797  1
  S  S31  1  0.56900960  0.48335610  0.20100865  1
  S  S32  1  0.91794658  0.48811202  0.99629003  1
  S  S33  1  0.08405811  0.44160540  0.02538073  1
  S  S34  1  0.67530693  0.54915990  0.90815283  1
  S  S35  1  0.33081935  0.41598236  0.11210956  1
  S  S36  1  0.59706424  0.01230905  0.63625356  1
  S  S37  1  0.40312850  0.02870965  0.34058795  1
  S  S38  1  0.24765936  0.53832487  0.32723549  1
  S  S39  1  0.75988037  0.50734782  0.68339590  1
  S  S40  1  0.66057374  0.92076644  0.44563530  1
  S  S41  1  0.34461964  0.92932562  0.56693562  1
