# generated using pymatgen
data_Pr2Mn3(SbS3)4
_symmetry_space_group_name_H-M   'P 1'
_cell_length_a   20.02960800
_cell_length_b   3.90410600
_cell_length_c   14.95364829
_cell_angle_alpha   90.00000000
_cell_angle_beta   126.33350609
_cell_angle_gamma   90.00000000
_symmetry_Int_Tables_number   1
_chemical_formula_structural   Pr2Mn3(SbS3)4
_chemical_formula_sum   'Pr4 Mn6 Sb8 S24'
_cell_volume   942.00006694
_cell_formula_units_Z   2
loop_
 _symmetry_equiv_pos_site_id
 _symmetry_equiv_pos_as_xyz
  1  'x, y, z'
loop_
 _atom_site_type_symbol
 _atom_site_label
 _atom_site_symmetry_multiplicity
 _atom_site_fract_x
 _atom_site_fract_y
 _atom_site_fract_z
 _atom_site_occupancy
  Pr  Pr0  1  0.27512526  0.47004779  0.88451069  1
  Pr  Pr1  1  0.72722498  0.50829137  0.13494024  1
  Pr  Pr2  1  0.76072302  0.07343235  0.86738433  1
  Pr  Pr3  1  0.23376430  0.91083983  0.12436925  1
  Mn  Mn4  1  0.30179352  0.39536506  0.60909452  1
  Mn  Mn5  1  0.69341755  0.49582594  0.36551089  1
  Mn  Mn6  1  0.00570230  0.94216546  0.00973651  1
  Mn  Mn7  1  0.79520761  0.98194869  0.63380798  1
  Mn  Mn8  1  0.21624512  0.03314716  0.41450916  1
  Mn  Mn9  1  0.48280644  0.48971445  0.97421934  1
  Sb  Sb10  1  0.88705067  0.89312729  0.46266840  1
  Sb  Sb11  1  0.11769516  0.97108265  0.54260119  1
  Sb  Sb12  1  0.03466400  0.51449636  0.82665252  1
  Sb  Sb13  1  0.96738027  0.45554856  0.20641457  1
  Sb  Sb14  1  0.41033613  0.57241766  0.45666942  1
  Sb  Sb15  1  0.60516031  0.52867472  0.53567025  1
  Sb  Sb16  1  0.52718762  0.94237767  0.79353291  1
  Sb  Sb17  1  0.46711080  0.99352412  0.17750764  1
  S  S18  1  0.92715814  0.03198121  0.79061688  1
  S  S19  1  0.05599088  0.99736283  0.19049937  1
  S  S20  1  0.41051371  0.99572572  0.96685897  1
  S  S21  1  0.58097661  0.05800003  0.99339922  1
  S  S22  1  0.17071292  0.95404474  0.89829508  1
  S  S23  1  0.83348147  0.03056060  0.11960627  1
  S  S24  1  0.10445925  0.48488866  0.64510590  1
  S  S25  1  0.88998687  0.44542697  0.34565250  1
  S  S26  1  0.73757397  0.96506405  0.31463771  1
  S  S27  1  0.27283893  0.95554112  0.68991734  1
  S  S28  1  0.17743196  0.52124239  0.45144071  1
  S  S29  1  0.81857355  0.53327391  0.54633468  1
  S  S30  1  0.43375083  0.46305805  0.78946239  1
  S  S31  1  0.56896329  0.48444956  0.20127947  1
  S  S32  1  0.91778447  0.48856518  0.99621877  1
  S  S33  1  0.08429268  0.44138668  0.02600176  1
  S  S34  1  0.67562825  0.55028734  0.90852499  1
  S  S35  1  0.33064585  0.41610579  0.11208576  1
  S  S36  1  0.59713850  0.01315203  0.63648535  1
  S  S37  1  0.40292434  0.02732089  0.34044707  1
  S  S38  1  0.24782924  0.53795981  0.32760101  1
  S  S39  1  0.75967732  0.50811894  0.68309855  1
  S  S40  1  0.66061721  0.92098634  0.44539207  1
  S  S41  1  0.34469506  0.92855160  0.56686157  1
