# generated using pymatgen
data_Pr2Mn3(SbS3)4
_symmetry_space_group_name_H-M   'P 1'
_cell_length_a   20.02960800
_cell_length_b   3.90410600
_cell_length_c   14.95364829
_cell_angle_alpha   90.00000000
_cell_angle_beta   126.33350609
_cell_angle_gamma   90.00000000
_symmetry_Int_Tables_number   1
_chemical_formula_structural   Pr2Mn3(SbS3)4
_chemical_formula_sum   'Pr4 Mn6 Sb8 S24'
_cell_volume   942.00006694
_cell_formula_units_Z   2
loop_
 _symmetry_equiv_pos_site_id
 _symmetry_equiv_pos_as_xyz
  1  'x, y, z'
loop_
 _atom_site_type_symbol
 _atom_site_label
 _atom_site_symmetry_multiplicity
 _atom_site_fract_x
 _atom_site_fract_y
 _atom_site_fract_z
 _atom_site_occupancy
  Pr  Pr0  1  0.27530938  0.47034438  0.88460488  1
  Pr  Pr1  1  0.72738655  0.50820724  0.13507688  1
  Pr  Pr2  1  0.76073569  0.07271284  0.86732401  1
  Pr  Pr3  1  0.23362333  0.91083748  0.12434981  1
  Mn  Mn4  1  0.30180326  0.39511420  0.60896347  1
  Mn  Mn5  1  0.69319787  0.49527387  0.36524538  1
  Mn  Mn6  1  0.00569990  0.94269903  0.00956354  1
  Mn  Mn7  1  0.79508551  0.98231546  0.63389564  1
  Mn  Mn8  1  0.21629560  0.03236497  0.41441396  1
  Mn  Mn9  1  0.48272777  0.49023710  0.97393131  1
  Sb  Sb10  1  0.88693459  0.89289296  0.46261571  1
  Sb  Sb11  1  0.11783418  0.97044625  0.54263293  1
  Sb  Sb12  1  0.03471144  0.51418689  0.82682574  1
  Sb  Sb13  1  0.96739788  0.45570270  0.20639004  1
  Sb  Sb14  1  0.41042557  0.57275281  0.45684314  1
  Sb  Sb15  1  0.60510900  0.52856439  0.53577407  1
  Sb  Sb16  1  0.52727471  0.94261221  0.79355272  1
  Sb  Sb17  1  0.46707517  0.99319834  0.17759493  1
  S  S18  1  0.92717040  0.03050188  0.79073288  1
  S  S19  1  0.05597897  0.99758298  0.19067683  1
  S  S20  1  0.41070652  0.99551869  0.96718291  1
  S  S21  1  0.58096662  0.05703269  0.99344445  1
  S  S22  1  0.17109603  0.95401772  0.89877074  1
  S  S23  1  0.83339133  0.03022486  0.11945520  1
  S  S24  1  0.10437772  0.48412182  0.64523461  1
  S  S25  1  0.88991270  0.44476937  0.34542236  1
  S  S26  1  0.73754288  0.96585030  0.31501862  1
  S  S27  1  0.27263923  0.95473990  0.68972462  1
  S  S28  1  0.17761565  0.52105151  0.45134856  1
  S  S29  1  0.81835338  0.53423819  0.54601206  1
  S  S30  1  0.43353733  0.46252272  0.78949429  1
  S  S31  1  0.56882986  0.48548691  0.20154507  1
  S  S32  1  0.91774469  0.48916156  0.99623577  1
  S  S33  1  0.08459760  0.44112487  0.02664623  1
  S  S34  1  0.67593367  0.55118996  0.90883720  1
  S  S35  1  0.33051317  0.41613702  0.11213841  1
  S  S36  1  0.59729774  0.01414919  0.63688514  1
  S  S37  1  0.40279223  0.02616716  0.34036269  1
  S  S38  1  0.24794460  0.53735393  0.32797143  1
  S  S39  1  0.75943115  0.50914931  0.68263256  1
  S  S40  1  0.66049873  0.92109743  0.44483438  1
  S  S41  1  0.34468587  0.92789601  0.56688314  1
