# generated using pymatgen
data_Pr2Mn3(SbS3)4
_symmetry_space_group_name_H-M   'P 1'
_cell_length_a   20.02960800
_cell_length_b   3.90410600
_cell_length_c   14.95364829
_cell_angle_alpha   90.00000000
_cell_angle_beta   126.33350609
_cell_angle_gamma   90.00000000
_symmetry_Int_Tables_number   1
_chemical_formula_structural   Pr2Mn3(SbS3)4
_chemical_formula_sum   'Pr4 Mn6 Sb8 S24'
_cell_volume   942.00006694
_cell_formula_units_Z   2
loop_
 _symmetry_equiv_pos_site_id
 _symmetry_equiv_pos_as_xyz
  1  'x, y, z'
loop_
 _atom_site_type_symbol
 _atom_site_label
 _atom_site_symmetry_multiplicity
 _atom_site_fract_x
 _atom_site_fract_y
 _atom_site_fract_z
 _atom_site_occupancy
  Pr  Pr0  1  0.27548550  0.47059064  0.88467740  1
  Pr  Pr1  1  0.72751665  0.50802855  0.13516259  1
  Pr  Pr2  1  0.76077832  0.07208128  0.86726261  1
  Pr  Pr3  1  0.23353055  0.91101416  0.12437717  1
  Mn  Mn4  1  0.30177884  0.39493406  0.60870915  1
  Mn  Mn5  1  0.69289274  0.49500137  0.36496981  1
  Mn  Mn6  1  0.00558909  0.94304377  0.00927720  1
  Mn  Mn7  1  0.79504835  0.98253501  0.63397757  1
  Mn  Mn8  1  0.21634275  0.03147047  0.41430705  1
  Mn  Mn9  1  0.48277785  0.49088744  0.97375258  1
  Sb  Sb10  1  0.88678428  0.89287403  0.46248045  1
  Sb  Sb11  1  0.11801727  0.97011229  0.54272739  1
  Sb  Sb12  1  0.03471962  0.51401170  0.82692535  1
  Sb  Sb13  1  0.96745768  0.45579306  0.20632357  1
  Sb  Sb14  1  0.41057634  0.57324450  0.45705754  1
  Sb  Sb15  1  0.60507912  0.52843600  0.53586294  1
  Sb  Sb16  1  0.52737389  0.94290036  0.79356825  1
  Sb  Sb17  1  0.46705527  0.99279397  0.17767881  1
  S  S18  1  0.92718025  0.02882205  0.79080173  1
  S  S19  1  0.05594555  0.99746591  0.19090187  1
  S  S20  1  0.41096628  0.99516365  0.96755226  1
  S  S21  1  0.58099805  0.05571966  0.99346857  1
  S  S22  1  0.17138637  0.95322021  0.89922364  1
  S  S23  1  0.83323779  0.02961906  0.11927262  1
  S  S24  1  0.10433089  0.48325706  0.64530293  1
  S  S25  1  0.88989653  0.44354395  0.34523797  1
  S  S26  1  0.73747974  0.96671877  0.31545632  1
  S  S27  1  0.27234443  0.95359435  0.68945935  1
  S  S28  1  0.17782492  0.52058938  0.45132270  1
  S  S29  1  0.81815968  0.53558112  0.54582681  1
  S  S30  1  0.43331238  0.46172213  0.78953960  1
  S  S31  1  0.56875259  0.48647351  0.20181631  1
  S  S32  1  0.91773044  0.48967531  0.99628599  1
  S  S33  1  0.08490626  0.44016625  0.02710963  1
  S  S34  1  0.67633609  0.55262454  0.90908202  1
  S  S35  1  0.33037149  0.41640891  0.11214859  1
  S  S36  1  0.59751686  0.01482167  0.63721470  1
  S  S37  1  0.40266066  0.02503691  0.34029761  1
  S  S38  1  0.24811185  0.53736028  0.32835948  1
  S  S39  1  0.75912791  0.51030035  0.68217912  1
  S  S40  1  0.66032621  0.92134853  0.44428449  1
  S  S41  1  0.34465621  0.92744672  0.56682099  1
