# generated using pymatgen
data_Pr2Mn3(SbS3)4
_symmetry_space_group_name_H-M   'P 1'
_cell_length_a   20.02960800
_cell_length_b   3.90410600
_cell_length_c   14.95364829
_cell_angle_alpha   90.00000000
_cell_angle_beta   126.33350609
_cell_angle_gamma   90.00000000
_symmetry_Int_Tables_number   1
_chemical_formula_structural   Pr2Mn3(SbS3)4
_chemical_formula_sum   'Pr4 Mn6 Sb8 S24'
_cell_volume   942.00006694
_cell_formula_units_Z   2
loop_
 _symmetry_equiv_pos_site_id
 _symmetry_equiv_pos_as_xyz
  1  'x, y, z'
loop_
 _atom_site_type_symbol
 _atom_site_label
 _atom_site_symmetry_multiplicity
 _atom_site_fract_x
 _atom_site_fract_y
 _atom_site_fract_z
 _atom_site_occupancy
  Pr  Pr0  1  0.27564043  0.47046428  0.88475664  1
  Pr  Pr1  1  0.72765650  0.50806994  0.13524110  1
  Pr  Pr2  1  0.76086260  0.07128545  0.86724156  1
  Pr  Pr3  1  0.23341031  0.91127609  0.12432745  1
  Mn  Mn4  1  0.30182420  0.39461309  0.60853807  1
  Mn  Mn5  1  0.69266771  0.49491176  0.36477588  1
  Mn  Mn6  1  0.00548205  0.94350045  0.00891290  1
  Mn  Mn7  1  0.79505415  0.98237680  0.63409707  1
  Mn  Mn8  1  0.21641516  0.03040486  0.41414689  1
  Mn  Mn9  1  0.48285026  0.49151248  0.97363376  1
  Sb  Sb10  1  0.88666624  0.89265501  0.46230604  1
  Sb  Sb11  1  0.11822267  0.96987931  0.54288388  1
  Sb  Sb12  1  0.03469934  0.51390004  0.82704042  1
  Sb  Sb13  1  0.96748463  0.45613912  0.20620923  1
  Sb  Sb14  1  0.41077730  0.57358529  0.45731319  1
  Sb  Sb15  1  0.60498112  0.52839533  0.53586022  1
  Sb  Sb16  1  0.52753568  0.94334104  0.79366173  1
  Sb  Sb17  1  0.46706958  0.99246877  0.17777553  1
  S  S18  1  0.92706745  0.02688853  0.79079509  1
  S  S19  1  0.05589430  0.99735384  0.19117463  1
  S  S20  1  0.41113727  0.99467282  0.96788394  1
  S  S21  1  0.58101089  0.05424721  0.99346214  1
  S  S22  1  0.17150181  0.95272289  0.89951550  1
  S  S23  1  0.83306132  0.02912199  0.11889247  1
  S  S24  1  0.10434304  0.48218142  0.64552317  1
  S  S25  1  0.88984029  0.44247752  0.34492313  1
  S  S26  1  0.73736763  0.96729085  0.31586072  1
  S  S27  1  0.27204635  0.95248444  0.68923580  1
  S  S28  1  0.17801560  0.51992385  0.45133889  1
  S  S29  1  0.81795766  0.53643226  0.54547504  1
  S  S30  1  0.43317984  0.46117570  0.78950277  1
  S  S31  1  0.56869465  0.48738143  0.20203540  1
  S  S32  1  0.91772921  0.48994317  0.99634282  1
  S  S33  1  0.08512051  0.43911494  0.02747872  1
  S  S34  1  0.67667166  0.55355829  0.90948527  1
  S  S35  1  0.33029423  0.41661505  0.11232682  1
  S  S36  1  0.59759950  0.01584447  0.63751759  1
  S  S37  1  0.40252095  0.02416534  0.34014486  1
  S  S38  1  0.24820146  0.53739499  0.32878714  1
  S  S39  1  0.75904624  0.51160492  0.68193159  1
  S  S40  1  0.66009849  0.92176420  0.44379666  1
  S  S41  1  0.34458113  0.92664572  0.56676652  1
