# generated using pymatgen
data_Pr2Mn3(SbS3)4
_symmetry_space_group_name_H-M   'P 1'
_cell_length_a   20.02960800
_cell_length_b   3.90410600
_cell_length_c   14.95364829
_cell_angle_alpha   90.00000000
_cell_angle_beta   126.33350609
_cell_angle_gamma   90.00000000
_symmetry_Int_Tables_number   1
_chemical_formula_structural   Pr2Mn3(SbS3)4
_chemical_formula_sum   'Pr4 Mn6 Sb8 S24'
_cell_volume   942.00006694
_cell_formula_units_Z   2
loop_
 _symmetry_equiv_pos_site_id
 _symmetry_equiv_pos_as_xyz
  1  'x, y, z'
loop_
 _atom_site_type_symbol
 _atom_site_label
 _atom_site_symmetry_multiplicity
 _atom_site_fract_x
 _atom_site_fract_y
 _atom_site_fract_z
 _atom_site_occupancy
  Pr  Pr0  1  0.27579097  0.47037321  0.88490851  1
  Pr  Pr1  1  0.72783764  0.50802061  0.13533750  1
  Pr  Pr2  1  0.76093978  0.07066541  0.86728579  1
  Pr  Pr3  1  0.23334902  0.91147638  0.12431065  1
  Mn  Mn4  1  0.30187301  0.39391638  0.60852835  1
  Mn  Mn5  1  0.69250052  0.49472604  0.36469211  1
  Mn  Mn6  1  0.00536850  0.94411126  0.00853287  1
  Mn  Mn7  1  0.79505539  0.98187090  0.63412463  1
  Mn  Mn8  1  0.21636689  0.02981411  0.41387142  1
  Mn  Mn9  1  0.48292989  0.49210829  0.97359201  1
  Sb  Sb10  1  0.88657600  0.89248898  0.46214184  1
  Sb  Sb11  1  0.11844688  0.96954242  0.54300576  1
  Sb  Sb12  1  0.03462183  0.51384228  0.82719056  1
  Sb  Sb13  1  0.96750952  0.45651526  0.20605190  1
  Sb  Sb14  1  0.41091879  0.57405628  0.45751021  1
  Sb  Sb15  1  0.60487840  0.52851339  0.53579797  1
  Sb  Sb16  1  0.52774123  0.94363120  0.79382506  1
  Sb  Sb17  1  0.46714549  0.99236734  0.17791114  1
  S  S18  1  0.92700102  0.02509108  0.79077435  1
  S  S19  1  0.05570489  0.99720101  0.19135322  1
  S  S20  1  0.41135560  0.99397378  0.96826333  1
  S  S21  1  0.58101233  0.05271453  0.99348399  1
  S  S22  1  0.17168487  0.95213346  0.89992148  1
  S  S23  1  0.83282374  0.02881882  0.11856407  1
  S  S24  1  0.10426148  0.48118088  0.64557155  1
  S  S25  1  0.88982237  0.44180040  0.34446585  1
  S  S26  1  0.73727054  0.96793761  0.31630033  1
  S  S27  1  0.27181381  0.95103000  0.68893842  1
  S  S28  1  0.17817607  0.51932392  0.45138070  1
  S  S29  1  0.81789064  0.53750909  0.54515213  1
  S  S30  1  0.43314350  0.46016725  0.78949511  1
  S  S31  1  0.56866910  0.48828914  0.20232420  1
  S  S32  1  0.91794506  0.48986794  0.99661880  1
  S  S33  1  0.08533054  0.43841682  0.02793039  1
  S  S34  1  0.67701739  0.55450962  0.90987382  1
  S  S35  1  0.33023464  0.41658312  0.11248655  1
  S  S36  1  0.59773919  0.01690657  0.63793538  1
  S  S37  1  0.40239489  0.02304417  0.33993371  1
  S  S38  1  0.24819708  0.53692397  0.32914078  1
  S  S39  1  0.75897715  0.51319744  0.68155665  1
  S  S40  1  0.65996784  0.92217093  0.44343203  1
  S  S41  1  0.34442242  0.92595356  0.56668177  1
