# generated using pymatgen
data_Pr2Mn3(SbS3)4
_symmetry_space_group_name_H-M   'P 1'
_cell_length_a   20.02960800
_cell_length_b   3.90410600
_cell_length_c   14.95364829
_cell_angle_alpha   90.00000000
_cell_angle_beta   126.33350609
_cell_angle_gamma   90.00000000
_symmetry_Int_Tables_number   1
_chemical_formula_structural   Pr2Mn3(SbS3)4
_chemical_formula_sum   'Pr4 Mn6 Sb8 S24'
_cell_volume   942.00006694
_cell_formula_units_Z   2
loop_
 _symmetry_equiv_pos_site_id
 _symmetry_equiv_pos_as_xyz
  1  'x, y, z'
loop_
 _atom_site_type_symbol
 _atom_site_label
 _atom_site_symmetry_multiplicity
 _atom_site_fract_x
 _atom_site_fract_y
 _atom_site_fract_z
 _atom_site_occupancy
  Pr  Pr0  1  0.27588217  0.47015677  0.88497178  1
  Pr  Pr1  1  0.72806303  0.50776601  0.13548117  1
  Pr  Pr2  1  0.76102375  0.06998992  0.86729213  1
  Pr  Pr3  1  0.23325791  0.91180240  0.12423004  1
  Mn  Mn4  1  0.30197918  0.39382659  0.60858248  1
  Mn  Mn5  1  0.69238851  0.49459008  0.36464837  1
  Mn  Mn6  1  0.00527809  0.94465184  0.00821799  1
  Mn  Mn7  1  0.79503563  0.98136100  0.63412226  1
  Mn  Mn8  1  0.21634606  0.02917352  0.41367376  1
  Mn  Mn9  1  0.48292943  0.49257844  0.97351158  1
  Sb  Sb10  1  0.88647600  0.89238701  0.46200303  1
  Sb  Sb11  1  0.11864062  0.96947984  0.54310180  1
  Sb  Sb12  1  0.03452463  0.51379477  0.82732540  1
  Sb  Sb13  1  0.96748443  0.45666592  0.20591624  1
  Sb  Sb14  1  0.41110389  0.57475942  0.45778237  1
  Sb  Sb15  1  0.60483197  0.52881513  0.53574184  1
  Sb  Sb16  1  0.52796860  0.94418394  0.79391768  1
  Sb  Sb17  1  0.46719507  0.99218324  0.17811171  1
  S  S18  1  0.92695916  0.02333409  0.79087837  1
  S  S19  1  0.05555284  0.99708232  0.19153288  1
  S  S20  1  0.41163077  0.99322759  0.96875484  1
  S  S21  1  0.58108001  0.05162871  0.99353184  1
  S  S22  1  0.17189998  0.95144113  0.90041218  1
  S  S23  1  0.83258754  0.02807053  0.11817689  1
  S  S24  1  0.10422511  0.48007170  0.64572608  1
  S  S25  1  0.88980455  0.44143631  0.34384831  1
  S  S26  1  0.73728280  0.96861503  0.31679148  1
  S  S27  1  0.27167411  0.95014114  0.68871711  1
  S  S28  1  0.17836907  0.51843861  0.45161080  1
  S  S29  1  0.81779380  0.53908145  0.54481294  1
  S  S30  1  0.43307876  0.45933485  0.78951621  1
  S  S31  1  0.56872333  0.48904627  0.20263955  1
  S  S32  1  0.91810498  0.48942632  0.99680003  1
  S  S33  1  0.08557570  0.43794990  0.02854133  1
  S  S34  1  0.67725734  0.55555940  0.91018564  1
  S  S35  1  0.33008712  0.41648886  0.11259883  1
  S  S36  1  0.59789379  0.01800497  0.63822686  1
  S  S37  1  0.40217786  0.02197747  0.33956325  1
  S  S38  1  0.24832962  0.53655747  0.32964865  1
  S  S39  1  0.75881268  0.51443662  0.68109405  1
  S  S40  1  0.65986707  0.92258394  0.44299297  1
  S  S41  1  0.34440700  0.92508397  0.56671736  1
