# generated using pymatgen
data_Pr2Mn3(SbS3)4
_symmetry_space_group_name_H-M   'P 1'
_cell_length_a   20.02960800
_cell_length_b   3.90410600
_cell_length_c   14.95364829
_cell_angle_alpha   90.00000000
_cell_angle_beta   126.33350609
_cell_angle_gamma   90.00000000
_symmetry_Int_Tables_number   1
_chemical_formula_structural   Pr2Mn3(SbS3)4
_chemical_formula_sum   'Pr4 Mn6 Sb8 S24'
_cell_volume   942.00006694
_cell_formula_units_Z   2
loop_
 _symmetry_equiv_pos_site_id
 _symmetry_equiv_pos_as_xyz
  1  'x, y, z'
loop_
 _atom_site_type_symbol
 _atom_site_label
 _atom_site_symmetry_multiplicity
 _atom_site_fract_x
 _atom_site_fract_y
 _atom_site_fract_z
 _atom_site_occupancy
  Pr  Pr0  1  0.26473775  0.47715803  0.86940982  1
  Pr  Pr1  1  0.73792132  0.51510745  0.13640214  1
  Pr  Pr2  1  0.76360229  0.01044263  0.86369742  1
  Pr  Pr3  1  0.23596370  0.99923106  0.13877273  1
  Mn  Mn4  1  0.29287878  0.48612439  0.60456567  1
  Mn  Mn5  1  0.69463657  0.52792768  0.38002426  1
  Mn  Mn6  1  0.00506978  0.99473839  0.00244204  1
  Mn  Mn7  1  0.80297550  0.99829682  0.61549648  1
  Mn  Mn8  1  0.19531210  0.97118633  0.37814043  1
  Mn  Mn9  1  0.50175554  0.46878950  0.99349237  1
  Sb  Sb10  1  0.89054216  0.99637970  0.45338104  1
  Sb  Sb11  1  0.11179302  0.96506093  0.55244593  1
  Sb  Sb12  1  0.04011870  0.51232477  0.81705867  1
  Sb  Sb13  1  0.96247292  0.52522957  0.18704080  1
  Sb  Sb14  1  0.39912993  0.50273243  0.45873043  1
  Sb  Sb15  1  0.60585601  0.48392891  0.54681316  1
  Sb  Sb16  1  0.53413976  0.00964407  0.81280213  1
  Sb  Sb17  1  0.46194411  0.00766275  0.18247582  1
  S  S18  1  0.93770990  0.96920667  0.80261345  1
  S  S19  1  0.06628437  0.97409501  0.18866934  1
  S  S20  1  0.40942702  0.01682830  0.97842548  1
  S  S21  1  0.59321299  0.99945577  0.02624121  1
  S  S22  1  0.17361716  0.98438313  0.89536861  1
  S  S23  1  0.82520545  0.01430676  0.09835130  1
  S  S24  1  0.08621507  0.46122210  0.64617604  1
  S  S25  1  0.91274786  0.48711803  0.35912450  1
  S  S26  1  0.74069084  0.95715773  0.29857503  1
  S  S27  1  0.25781978  0.99711134  0.70307755  1
  S  S28  1  0.16983785  0.49020422  0.44748570  1
  S  S29  1  0.82889327  0.48469306  0.55030829  1
  S  S30  1  0.43245674  0.50036409  0.79924242  1
  S  S31  1  0.56203438  0.52838914  0.18730167  1
  S  S32  1  0.91023682  0.49700733  0.98968691  1
  S  S33  1  0.08303675  0.49711582  0.01584155  1
  S  S34  1  0.66460467  0.49481355  0.88888540  1
  S  S35  1  0.32784867  0.52060945  0.09689762  1
  S  S36  1  0.59278376  0.00534988  0.65482039  1
  S  S37  1  0.40683136  0.97049193  0.34582728  1
  S  S38  1  0.24400376  0.47071317  0.30669677  1
  S  S39  1  0.76091063  0.50532002  0.69976802  1
  S  S40  1  0.67374395  0.02392300  0.45893207  1
  S  S41  1  0.32878426  0.98688593  0.54137428  1
