# generated using pymatgen
data_Pr2Mn3(SbS3)4
_symmetry_space_group_name_H-M   'P 1'
_cell_length_a   20.02960800
_cell_length_b   3.90410600
_cell_length_c   14.95364829
_cell_angle_alpha   90.00000000
_cell_angle_beta   126.33350609
_cell_angle_gamma   90.00000000
_symmetry_Int_Tables_number   1
_chemical_formula_structural   Pr2Mn3(SbS3)4
_chemical_formula_sum   'Pr4 Mn6 Sb8 S24'
_cell_volume   942.00006694
_cell_formula_units_Z   2
loop_
 _symmetry_equiv_pos_site_id
 _symmetry_equiv_pos_as_xyz
  1  'x, y, z'
loop_
 _atom_site_type_symbol
 _atom_site_label
 _atom_site_symmetry_multiplicity
 _atom_site_fract_x
 _atom_site_fract_y
 _atom_site_fract_z
 _atom_site_occupancy
  Pr  Pr0  1  0.27595764  0.46993400  0.88502129  1
  Pr  Pr1  1  0.72822433  0.50751900  0.13552934  1
  Pr  Pr2  1  0.76106687  0.06927849  0.86724160  1
  Pr  Pr3  1  0.23312340  0.91211648  0.12410363  1
  Mn  Mn4  1  0.30207385  0.39377008  0.60865467  1
  Mn  Mn5  1  0.69228288  0.49429169  0.36441628  1
  Mn  Mn6  1  0.00524057  0.94504947  0.00798682  1
  Mn  Mn7  1  0.79501534  0.98064912  0.63422877  1
  Mn  Mn8  1  0.21635216  0.02892510  0.41352927  1
  Mn  Mn9  1  0.48299772  0.49257174  0.97359425  1
  Sb  Sb10  1  0.88644578  0.89213195  0.46197579  1
  Sb  Sb11  1  0.11876467  0.96940856  0.54319603  1
  Sb  Sb12  1  0.03440173  0.51386775  0.82746920  1
  Sb  Sb13  1  0.96746562  0.45679601  0.20588634  1
  Sb  Sb14  1  0.41125185  0.57577246  0.45801682  1
  Sb  Sb15  1  0.60477003  0.52911793  0.53572184  1
  Sb  Sb16  1  0.52818591  0.94466166  0.79405369  1
  Sb  Sb17  1  0.46729256  0.99200182  0.17829673  1
  S  S18  1  0.92681438  0.02151244  0.79090458  1
  S  S19  1  0.05533726  0.99701596  0.19162993  1
  S  S20  1  0.41187016  0.99261832  0.96920623  1
  S  S21  1  0.58118266  0.05079706  0.99377534  1
  S  S22  1  0.17220120  0.95031108  0.90076391  1
  S  S23  1  0.83240168  0.02736751  0.11782989  1
  S  S24  1  0.10434362  0.47901626  0.64595665  1
  S  S25  1  0.88962368  0.44123322  0.34310306  1
  S  S26  1  0.73710096  0.96934751  0.31713456  1
  S  S27  1  0.27148306  0.94984982  0.68838591  1
  S  S28  1  0.17854666  0.51783411  0.45179738  1
  S  S29  1  0.81764140  0.54035924  0.54446858  1
  S  S30  1  0.43313868  0.45860674  0.78961279  1
  S  S31  1  0.56869548  0.48911793  0.20285501  1
  S  S32  1  0.91819514  0.48873473  0.99688638  1
  S  S33  1  0.08569638  0.43772516  0.02906541  1
  S  S34  1  0.67742215  0.55643300  0.91059085  1
  S  S35  1  0.32990997  0.41659250  0.11268357  1
  S  S36  1  0.59801212  0.01883786  0.63841023  1
  S  S37  1  0.40196995  0.02115125  0.33906831  1
  S  S38  1  0.24828981  0.53643488  0.32997239  1
  S  S39  1  0.75868487  0.51540433  0.68069361  1
  S  S40  1  0.65975318  0.92338295  0.44271765  1
  S  S41  1  0.34443875  0.92440920  0.56673128  1
