# generated using pymatgen
data_Pr2Mn3(SbS3)4
_symmetry_space_group_name_H-M   'P 1'
_cell_length_a   20.02960800
_cell_length_b   3.90410600
_cell_length_c   14.95364829
_cell_angle_alpha   90.00000000
_cell_angle_beta   126.33350609
_cell_angle_gamma   90.00000000
_symmetry_Int_Tables_number   1
_chemical_formula_structural   Pr2Mn3(SbS3)4
_chemical_formula_sum   'Pr4 Mn6 Sb8 S24'
_cell_volume   942.00006694
_cell_formula_units_Z   2
loop_
 _symmetry_equiv_pos_site_id
 _symmetry_equiv_pos_as_xyz
  1  'x, y, z'
loop_
 _atom_site_type_symbol
 _atom_site_label
 _atom_site_symmetry_multiplicity
 _atom_site_fract_x
 _atom_site_fract_y
 _atom_site_fract_z
 _atom_site_occupancy
  Pr  Pr0  1  0.27606564  0.46982328  0.88505507  1
  Pr  Pr1  1  0.72839557  0.50722548  0.13563523  1
  Pr  Pr2  1  0.76108111  0.06874224  0.86714363  1
  Pr  Pr3  1  0.23296561  0.91241629  0.12395736  1
  Mn  Mn4  1  0.30221203  0.39410585  0.60865193  1
  Mn  Mn5  1  0.69212497  0.49405570  0.36414444  1
  Mn  Mn6  1  0.00511440  0.94501611  0.00765084  1
  Mn  Mn7  1  0.79502302  0.97984556  0.63428710  1
  Mn  Mn8  1  0.21641081  0.02884675  0.41341553  1
  Mn  Mn9  1  0.48319366  0.49262628  0.97377388  1
  Sb  Sb10  1  0.88643475  0.89183198  0.46197262  1
  Sb  Sb11  1  0.11891803  0.96953512  0.54336111  1
  Sb  Sb12  1  0.03427276  0.51403505  0.82758170  1
  Sb  Sb13  1  0.96743144  0.45722375  0.20572748  1
  Sb  Sb14  1  0.41136895  0.57666598  0.45822326  1
  Sb  Sb15  1  0.60473947  0.52960798  0.53567965  1
  Sb  Sb16  1  0.52837187  0.94494277  0.79413626  1
  Sb  Sb17  1  0.46734970  0.99169558  0.17844208  1
  S  S18  1  0.92670147  0.01993728  0.79103683  1
  S  S19  1  0.05517860  0.99642382  0.19186139  1
  S  S20  1  0.41203230  0.99221544  0.96957050  1
  S  S21  1  0.58125590  0.04968315  0.99377576  1
  S  S22  1  0.17249912  0.94913311  0.90113644  1
  S  S23  1  0.83232189  0.02697223  0.11759848  1
  S  S24  1  0.10452367  0.47788438  0.64614994  1
  S  S25  1  0.88941199  0.44087496  0.34258755  1
  S  S26  1  0.73686128  0.96992842  0.31730631  1
  S  S27  1  0.27136651  0.94958488  0.68806748  1
  S  S28  1  0.17862785  0.51710329  0.45205262  1
  S  S29  1  0.81742576  0.54169013  0.54410914  1
  S  S30  1  0.43320564  0.45761952  0.78974581  1
  S  S31  1  0.56855816  0.48936849  0.20304084  1
  S  S32  1  0.91833973  0.48841964  0.99696396  1
  S  S33  1  0.08577111  0.43687739  0.02956950  1
  S  S34  1  0.67754136  0.55721947  0.91100734  1
  S  S35  1  0.32976636  0.41691165  0.11274090  1
  S  S36  1  0.59810443  0.01933291  0.63854053  1
  S  S37  1  0.40191649  0.01982754  0.33879157  1
  S  S38  1  0.24831849  0.53636877  0.33041237  1
  S  S39  1  0.75853708  0.51623603  0.68029497  1
  S  S40  1  0.65965016  0.92431365  0.44252308  1
  S  S41  1  0.34439028  0.92399879  0.56674851  1
