# generated using pymatgen
data_Pr2Mn3(SbS3)4
_symmetry_space_group_name_H-M   'P 1'
_cell_length_a   20.02960800
_cell_length_b   3.90410600
_cell_length_c   14.95364829
_cell_angle_alpha   90.00000000
_cell_angle_beta   126.33350609
_cell_angle_gamma   90.00000000
_symmetry_Int_Tables_number   1
_chemical_formula_structural   Pr2Mn3(SbS3)4
_chemical_formula_sum   'Pr4 Mn6 Sb8 S24'
_cell_volume   942.00006694
_cell_formula_units_Z   2
loop_
 _symmetry_equiv_pos_site_id
 _symmetry_equiv_pos_as_xyz
  1  'x, y, z'
loop_
 _atom_site_type_symbol
 _atom_site_label
 _atom_site_symmetry_multiplicity
 _atom_site_fract_x
 _atom_site_fract_y
 _atom_site_fract_z
 _atom_site_occupancy
  Pr  Pr0  1  0.27611458  0.46980937  0.88507513  1
  Pr  Pr1  1  0.72859253  0.50679514  0.13573261  1
  Pr  Pr2  1  0.76114422  0.06806704  0.86711246  1
  Pr  Pr3  1  0.23284851  0.91265660  0.12390293  1
  Mn  Mn4  1  0.30223058  0.39430218  0.60863421  1
  Mn  Mn5  1  0.69203707  0.49345144  0.36386577  1
  Mn  Mn6  1  0.00496613  0.94520795  0.00734695  1
  Mn  Mn7  1  0.79507032  0.97940792  0.63423601  1
  Mn  Mn8  1  0.21659632  0.02842308  0.41338462  1
  Mn  Mn9  1  0.48330095  0.49292261  0.97391863  1
  Sb  Sb10  1  0.88648897  0.89164811  0.46203752  1
  Sb  Sb11  1  0.11906632  0.96969993  0.54352105  1
  Sb  Sb12  1  0.03417361  0.51432525  0.82773482  1
  Sb  Sb13  1  0.96742735  0.45762580  0.20563112  1
  Sb  Sb14  1  0.41147067  0.57737684  0.45837522  1
  Sb  Sb15  1  0.60469875  0.52981124  0.53558696  1
  Sb  Sb16  1  0.52851200  0.94483613  0.79425950  1
  Sb  Sb17  1  0.46734526  0.99130471  0.17850366  1
  S  S18  1  0.92662276  0.01886116  0.79127277  1
  S  S19  1  0.05503934  0.99559695  0.19218927  1
  S  S20  1  0.41209975  0.99182501  0.96976914  1
  S  S21  1  0.58127768  0.04822327  0.99373804  1
  S  S22  1  0.17271708  0.94831196  0.90155457  1
  S  S23  1  0.83217252  0.02664216  0.11730677  1
  S  S24  1  0.10483185  0.47691560  0.64648453  1
  S  S25  1  0.88931947  0.44047385  0.34215767  1
  S  S26  1  0.73656691  0.97073118  0.31725023  1
  S  S27  1  0.27120212  0.94939427  0.68769322  1
  S  S28  1  0.17876276  0.51658799  0.45242643  1
  S  S29  1  0.81721787  0.54262289  0.54384980  1
  S  S30  1  0.43321409  0.45719601  0.78971669  1
  S  S31  1  0.56845067  0.48932243  0.20321976  1
  S  S32  1  0.91856758  0.48900117  0.99699867  1
  S  S33  1  0.08593586  0.43591430  0.03021306  1
  S  S34  1  0.67758944  0.55822117  0.91130079  1
  S  S35  1  0.32965814  0.41732932  0.11281737  1
  S  S36  1  0.59814547  0.01953771  0.63863439  1
  S  S37  1  0.40193043  0.01875051  0.33867184  1
  S  S38  1  0.24828666  0.53633578  0.33073597  1
  S  S39  1  0.75846997  0.51691265  0.67992295  1
  S  S40  1  0.65958329  0.92492949  0.44227281  1
  S  S41  1  0.34440081  0.92309083  0.56682598  1
