# generated using pymatgen
data_Pr2Mn3(SbS3)4
_symmetry_space_group_name_H-M   'P 1'
_cell_length_a   20.02960800
_cell_length_b   3.90410600
_cell_length_c   14.95364829
_cell_angle_alpha   90.00000000
_cell_angle_beta   126.33350609
_cell_angle_gamma   90.00000000
_symmetry_Int_Tables_number   1
_chemical_formula_structural   Pr2Mn3(SbS3)4
_chemical_formula_sum   'Pr4 Mn6 Sb8 S24'
_cell_volume   942.00006694
_cell_formula_units_Z   2
loop_
 _symmetry_equiv_pos_site_id
 _symmetry_equiv_pos_as_xyz
  1  'x, y, z'
loop_
 _atom_site_type_symbol
 _atom_site_label
 _atom_site_symmetry_multiplicity
 _atom_site_fract_x
 _atom_site_fract_y
 _atom_site_fract_z
 _atom_site_occupancy
  Pr  Pr0  1  0.27621032  0.47034902  0.88507325  1
  Pr  Pr1  1  0.72877929  0.50637456  0.13581533  1
  Pr  Pr2  1  0.76122322  0.06758749  0.86709299  1
  Pr  Pr3  1  0.23274444  0.91290183  0.12380002  1
  Mn  Mn4  1  0.30223852  0.39430286  0.60855469  1
  Mn  Mn5  1  0.69187819  0.49291447  0.36358076  1
  Mn  Mn6  1  0.00479749  0.94498764  0.00699402  1
  Mn  Mn7  1  0.79498178  0.97898366  0.63408066  1
  Mn  Mn8  1  0.21680081  0.02830448  0.41340410  1
  Mn  Mn9  1  0.48333001  0.49299786  0.97404342  1
  Sb  Sb10  1  0.88646347  0.89148475  0.46204528  1
  Sb  Sb11  1  0.11914975  0.96989946  0.54358814  1
  Sb  Sb12  1  0.03410536  0.51474126  0.82795153  1
  Sb  Sb13  1  0.96739825  0.45799399  0.20547277  1
  Sb  Sb14  1  0.41153763  0.57771552  0.45851497  1
  Sb  Sb15  1  0.60467148  0.53012580  0.53553205  1
  Sb  Sb16  1  0.52864842  0.94478082  0.79440181  1
  Sb  Sb17  1  0.46732746  0.99125320  0.17857014  1
  S  S18  1  0.92650830  0.01779553  0.79124532  1
  S  S19  1  0.05494288  0.99461334  0.19263267  1
  S  S20  1  0.41214434  0.99177023  0.96991617  1
  S  S21  1  0.58143633  0.04690019  0.99377491  1
  S  S22  1  0.17282987  0.94800200  0.90191018  1
  S  S23  1  0.83205827  0.02600688  0.11709310  1
  S  S24  1  0.10503840  0.47633285  0.64669724  1
  S  S25  1  0.88928353  0.43977679  0.34184320  1
  S  S26  1  0.73624430  0.97146863  0.31715791  1
  S  S27  1  0.27097292  0.94962965  0.68742370  1
  S  S28  1  0.17893974  0.51661405  0.45285331  1
  S  S29  1  0.81684943  0.54312784  0.54358484  1
  S  S30  1  0.43324749  0.45687750  0.78977524  1
  S  S31  1  0.56841431  0.48954164  0.20342654  1
  S  S32  1  0.91888932  0.48983135  0.99717824  1
  S  S33  1  0.08593368  0.43526911  0.03051052  1
  S  S34  1  0.67763463  0.55862167  0.91168464  1
  S  S35  1  0.32963745  0.41749884  0.11292885  1
  S  S36  1  0.59815220  0.01961256  0.63852775  1
  S  S37  1  0.40197026  0.01743456  0.33855757  1
  S  S38  1  0.24815779  0.53659415  0.33099618  1
  S  S39  1  0.75844076  0.51767179  0.67970928  1
  S  S40  1  0.65962477  0.92508404  0.44215791  1
  S  S41  1  0.34442066  0.92168230  0.56698823  1
