# generated using pymatgen
data_Pr2Mn3(SbS3)4
_symmetry_space_group_name_H-M   'P 1'
_cell_length_a   20.02960800
_cell_length_b   3.90410600
_cell_length_c   14.95364829
_cell_angle_alpha   90.00000000
_cell_angle_beta   126.33350609
_cell_angle_gamma   90.00000000
_symmetry_Int_Tables_number   1
_chemical_formula_structural   Pr2Mn3(SbS3)4
_chemical_formula_sum   'Pr4 Mn6 Sb8 S24'
_cell_volume   942.00006694
_cell_formula_units_Z   2
loop_
 _symmetry_equiv_pos_site_id
 _symmetry_equiv_pos_as_xyz
  1  'x, y, z'
loop_
 _atom_site_type_symbol
 _atom_site_label
 _atom_site_symmetry_multiplicity
 _atom_site_fract_x
 _atom_site_fract_y
 _atom_site_fract_z
 _atom_site_occupancy
  Pr  Pr0  1  0.27630677  0.47085499  0.88507422  1
  Pr  Pr1  1  0.72895404  0.50619261  0.13589968  1
  Pr  Pr2  1  0.76131843  0.06737741  0.86716233  1
  Pr  Pr3  1  0.23262317  0.91335065  0.12374637  1
  Mn  Mn4  1  0.30219074  0.39487516  0.60826416  1
  Mn  Mn5  1  0.69168973  0.49280570  0.36320136  1
  Mn  Mn6  1  0.00459747  0.94489018  0.00670249  1
  Mn  Mn7  1  0.79481467  0.97887964  0.63381698  1
  Mn  Mn8  1  0.21696159  0.02898590  0.41345787  1
  Mn  Mn9  1  0.48336940  0.49294320  0.97417044  1
  Sb  Sb10  1  0.88639943  0.89143263  0.46195843  1
  Sb  Sb11  1  0.11921935  0.97005225  0.54363657  1
  Sb  Sb12  1  0.03405267  0.51535426  0.82807853  1
  Sb  Sb13  1  0.96742870  0.45846808  0.20533903  1
  Sb  Sb14  1  0.41160248  0.57824221  0.45864626  1
  Sb  Sb15  1  0.60462513  0.53077174  0.53550791  1
  Sb  Sb16  1  0.52878458  0.94454724  0.79457940  1
  Sb  Sb17  1  0.46730584  0.99132607  0.17871568  1
  S  S18  1  0.92642684  0.01715648  0.79128337  1
  S  S19  1  0.05483017  0.99343239  0.19302157  1
  S  S20  1  0.41221205  0.99220994  0.97006276  1
  S  S21  1  0.58154247  0.04570503  0.99383425  1
  S  S22  1  0.17291274  0.94786195  0.90201980  1
  S  S23  1  0.83202147  0.02588611  0.11699644  1
  S  S24  1  0.10514717  0.47500199  0.64686975  1
  S  S25  1  0.88920480  0.43953861  0.34149057  1
  S  S26  1  0.73580693  0.97241754  0.31707213  1
  S  S27  1  0.27087574  0.94992008  0.68727776  1
  S  S28  1  0.17906531  0.51634261  0.45313570  1
  S  S29  1  0.81656288  0.54385844  0.54332536  1
  S  S30  1  0.43315324  0.45616652  0.78966084  1
  S  S31  1  0.56831257  0.48975774  0.20349238  1
  S  S32  1  0.91936240  0.49048951  0.99737904  1
  S  S33  1  0.08604231  0.43488027  0.03085243  1
  S  S34  1  0.67764447  0.55875535  0.91194523  1
  S  S35  1  0.32974414  0.41770044  0.11311827  1
  S  S36  1  0.59829852  0.01993352  0.63858747  1
  S  S37  1  0.40195527  0.01552332  0.33832166  1
  S  S38  1  0.24803818  0.53657895  0.33118959  1
  S  S39  1  0.75853988  0.51851794  0.67953129  1
  S  S40  1  0.65956179  0.92476326  0.44192055  1
  S  S41  1  0.34439733  0.92054714  0.56715169  1
