# generated using pymatgen
data_Pr2Mn3(SbS3)4
_symmetry_space_group_name_H-M   'P 1'
_cell_length_a   20.02960800
_cell_length_b   3.90410600
_cell_length_c   14.95364829
_cell_angle_alpha   90.00000000
_cell_angle_beta   126.33350609
_cell_angle_gamma   90.00000000
_symmetry_Int_Tables_number   1
_chemical_formula_structural   Pr2Mn3(SbS3)4
_chemical_formula_sum   'Pr4 Mn6 Sb8 S24'
_cell_volume   942.00006694
_cell_formula_units_Z   2
loop_
 _symmetry_equiv_pos_site_id
 _symmetry_equiv_pos_as_xyz
  1  'x, y, z'
loop_
 _atom_site_type_symbol
 _atom_site_label
 _atom_site_symmetry_multiplicity
 _atom_site_fract_x
 _atom_site_fract_y
 _atom_site_fract_z
 _atom_site_occupancy
  Pr  Pr0  1  0.27638212  0.47118407  0.88509308  1
  Pr  Pr1  1  0.72919015  0.50603032  0.13598566  1
  Pr  Pr2  1  0.76136206  0.06706673  0.86720541  1
  Pr  Pr3  1  0.23249815  0.91380322  0.12363684  1
  Mn  Mn4  1  0.30210435  0.39527933  0.60806410  1
  Mn  Mn5  1  0.69153938  0.49284037  0.36286743  1
  Mn  Mn6  1  0.00447470  0.94475472  0.00648726  1
  Mn  Mn7  1  0.79460518  0.97848922  0.63361055  1
  Mn  Mn8  1  0.21707742  0.02926350  0.41339708  1
  Mn  Mn9  1  0.48342852  0.49304106  0.97429479  1
  Sb  Sb10  1  0.88639032  0.89155104  0.46190360  1
  Sb  Sb11  1  0.11931131  0.97017484  0.54378507  1
  Sb  Sb12  1  0.03398557  0.51593119  0.82819892  1
  Sb  Sb13  1  0.96746533  0.45888434  0.20525824  1
  Sb  Sb14  1  0.41164323  0.57885423  0.45879478  1
  Sb  Sb15  1  0.60466891  0.53148125  0.53559707  1
  Sb  Sb16  1  0.52887624  0.94443577  0.79465989  1
  Sb  Sb17  1  0.46725499  0.99148916  0.17880390  1
  S  S18  1  0.92629546  0.01674629  0.79119671  1
  S  S19  1  0.05489362  0.99257386  0.19347801  1
  S  S20  1  0.41234976  0.99277269  0.97016656  1
  S  S21  1  0.58157677  0.04447813  0.99402383  1
  S  S22  1  0.17310882  0.94761976  0.90232951  1
  S  S23  1  0.83206302  0.02606030  0.11685213  1
  S  S24  1  0.10528229  0.47428245  0.64710519  1
  S  S25  1  0.88913828  0.43936796  0.34121440  1
  S  S26  1  0.73531626  0.97324428  0.31673152  1
  S  S27  1  0.27073067  0.95037342  0.68694704  1
  S  S28  1  0.17917197  0.51649712  0.45335695  1
  S  S29  1  0.81633466  0.54442804  0.54314102  1
  S  S30  1  0.43291387  0.45579036  0.78941776  1
  S  S31  1  0.56815991  0.48990910  0.20362909  1
  S  S32  1  0.91981470  0.49083167  0.99760397  1
  S  S33  1  0.08619484  0.43468384  0.03133069  1
  S  S34  1  0.67770099  0.55886996  0.91226360  1
  S  S35  1  0.32995914  0.41749096  0.11341475  1
  S  S36  1  0.59840255  0.02058117  0.63869739  1
  S  S37  1  0.40191834  0.01438143  0.33807188  1
  S  S38  1  0.24791195  0.53618790  0.33135520  1
  S  S39  1  0.75854578  0.51971115  0.67933550  1
  S  S40  1  0.65955052  0.92446982  0.44180437  1
  S  S41  1  0.34444585  0.91961171  0.56739036  1
