# generated using pymatgen
data_Pr2Mn3(SbS3)4
_symmetry_space_group_name_H-M   'P 1'
_cell_length_a   20.02960800
_cell_length_b   3.90410600
_cell_length_c   14.95364829
_cell_angle_alpha   90.00000000
_cell_angle_beta   126.33350609
_cell_angle_gamma   90.00000000
_symmetry_Int_Tables_number   1
_chemical_formula_structural   Pr2Mn3(SbS3)4
_chemical_formula_sum   'Pr4 Mn6 Sb8 S24'
_cell_volume   942.00006694
_cell_formula_units_Z   2
loop_
 _symmetry_equiv_pos_site_id
 _symmetry_equiv_pos_as_xyz
  1  'x, y, z'
loop_
 _atom_site_type_symbol
 _atom_site_label
 _atom_site_symmetry_multiplicity
 _atom_site_fract_x
 _atom_site_fract_y
 _atom_site_fract_z
 _atom_site_occupancy
  Pr  Pr0  1  0.27648622  0.47164275  0.88516394  1
  Pr  Pr1  1  0.72941205  0.50587895  0.13610130  1
  Pr  Pr2  1  0.76141154  0.06697785  0.86727415  1
  Pr  Pr3  1  0.23238170  0.91426578  0.12358096  1
  Mn  Mn4  1  0.30200665  0.39590122  0.60794230  1
  Mn  Mn5  1  0.69141074  0.49308073  0.36257639  1
  Mn  Mn6  1  0.00438096  0.94435429  0.00625696  1
  Mn  Mn7  1  0.79456319  0.97812003  0.63355114  1
  Mn  Mn8  1  0.21721568  0.02959863  0.41337911  1
  Mn  Mn9  1  0.48342005  0.49331072  0.97434631  1
  Sb  Sb10  1  0.88638228  0.89163173  0.46189751  1
  Sb  Sb11  1  0.11938504  0.97025742  0.54390318  1
  Sb  Sb12  1  0.03388937  0.51621037  0.82830506  1
  Sb  Sb13  1  0.96751197  0.45929104  0.20514733  1
  Sb  Sb14  1  0.41167240  0.57941509  0.45890538  1
  Sb  Sb15  1  0.60471015  0.53206737  0.53566736  1
  Sb  Sb16  1  0.52902931  0.94430943  0.79480376  1
  Sb  Sb17  1  0.46722882  0.99150383  0.17897005  1
  S  S18  1  0.92619577  0.01564371  0.79105477  1
  S  S19  1  0.05490656  0.99133448  0.19390936  1
  S  S20  1  0.41255400  0.99347889  0.97038605  1
  S  S21  1  0.58152365  0.04351323  0.99417858  1
  S  S22  1  0.17327809  0.94665319  0.90272214  1
  S  S23  1  0.83223866  0.02610815  0.11683541  1
  S  S24  1  0.10537486  0.47352869  0.64718764  1
  S  S25  1  0.88910300  0.43990766  0.34111499  1
  S  S26  1  0.73494982  0.97348828  0.31642025  1
  S  S27  1  0.27048985  0.95059479  0.68644804  1
  S  S28  1  0.17930178  0.51627760  0.45351449  1
  S  S29  1  0.81617092  0.54491867  0.54316845  1
  S  S30  1  0.43279061  0.45495856  0.78909349  1
  S  S31  1  0.56804730  0.48983659  0.20376474  1
  S  S32  1  0.92021653  0.49110717  0.99771785  1
  S  S33  1  0.08633708  0.43455502  0.03177715  1
  S  S34  1  0.67775422  0.55932028  0.91249130  1
  S  S35  1  0.33014559  0.41711794  0.11365892  1
  S  S36  1  0.59846234  0.02149011  0.63881224  1
  S  S37  1  0.40188583  0.01370461  0.33787275  1
  S  S38  1  0.24788736  0.53586273  0.33143714  1
  S  S39  1  0.75844212  0.52074489  0.67901091  1
  S  S40  1  0.65961733  0.92416283  0.44175935  1
  S  S41  1  0.34439632  0.91932417  0.56742857  1
