# generated using pymatgen
data_Pr2Mn3(SbS3)4
_symmetry_space_group_name_H-M   'P 1'
_cell_length_a   20.02960800
_cell_length_b   3.90410600
_cell_length_c   14.95364829
_cell_angle_alpha   90.00000000
_cell_angle_beta   126.33350609
_cell_angle_gamma   90.00000000
_symmetry_Int_Tables_number   1
_chemical_formula_structural   Pr2Mn3(SbS3)4
_chemical_formula_sum   'Pr4 Mn6 Sb8 S24'
_cell_volume   942.00006694
_cell_formula_units_Z   2
loop_
 _symmetry_equiv_pos_site_id
 _symmetry_equiv_pos_as_xyz
  1  'x, y, z'
loop_
 _atom_site_type_symbol
 _atom_site_label
 _atom_site_symmetry_multiplicity
 _atom_site_fract_x
 _atom_site_fract_y
 _atom_site_fract_z
 _atom_site_occupancy
  Pr  Pr0  1  0.27656636  0.47215055  0.88526507  1
  Pr  Pr1  1  0.72968534  0.50575033  0.13625244  1
  Pr  Pr2  1  0.76151324  0.06699187  0.86745457  1
  Pr  Pr3  1  0.23224856  0.91479901  0.12347205  1
  Mn  Mn4  1  0.30188736  0.39651715  0.60778215  1
  Mn  Mn5  1  0.69122555  0.49282744  0.36227035  1
  Mn  Mn6  1  0.00424056  0.94412627  0.00596358  1
  Mn  Mn7  1  0.79449040  0.97792963  0.63343201  1
  Mn  Mn8  1  0.21731674  0.03022675  0.41336855  1
  Mn  Mn9  1  0.48339947  0.49345551  0.97439281  1
  Sb  Sb10  1  0.88641055  0.89173790  0.46194723  1
  Sb  Sb11  1  0.11945752  0.97036703  0.54406150  1
  Sb  Sb12  1  0.03385070  0.51658749  0.82851261  1
  Sb  Sb13  1  0.96749682  0.45964390  0.20489391  1
  Sb  Sb14  1  0.41174724  0.58000620  0.45905101  1
  Sb  Sb15  1  0.60472683  0.53251212  0.53567952  1
  Sb  Sb16  1  0.52914406  0.94392271  0.79497257  1
  Sb  Sb17  1  0.46723126  0.99155568  0.17916774  1
  S  S18  1  0.92609223  0.01437435  0.79083132  1
  S  S19  1  0.05479786  0.99012486  0.19437305  1
  S  S20  1  0.41276884  0.99485605  0.97057418  1
  S  S21  1  0.58140324  0.04257304  0.99410208  1
  S  S22  1  0.17339156  0.94548958  0.90312442  1
  S  S23  1  0.83228901  0.02556038  0.11674398  1
  S  S24  1  0.10552906  0.47312588  0.64719315  1
  S  S25  1  0.88920866  0.44018362  0.34121539  1
  S  S26  1  0.73474090  0.97355160  0.31630927  1
  S  S27  1  0.27031522  0.95056649  0.68604970  1
  S  S28  1  0.17935637  0.51556467  0.45374163  1
  S  S29  1  0.81596327  0.54530095  0.54318693  1
  S  S30  1  0.43272680  0.45398232  0.78897712  1
  S  S31  1  0.56780324  0.48991710  0.20375590  1
  S  S32  1  0.92066972  0.49172808  0.99783510  1
  S  S33  1  0.08656275  0.43476940  0.03238123  1
  S  S34  1  0.67769475  0.55983327  0.91244208  1
  S  S35  1  0.33028112  0.41692578  0.11372106  1
  S  S36  1  0.59846966  0.02238445  0.63890557  1
  S  S37  1  0.40200660  0.01335458  0.33782001  1
  S  S38  1  0.24797832  0.53592933  0.33156225  1
  S  S39  1  0.75850470  0.52186080  0.67886064  1
  S  S40  1  0.65962149  0.92394669  0.44182148  1
  S  S41  1  0.34433321  0.91873062  0.56741896  1
