# generated using pymatgen
data_Pr2Mn3(SbS3)4
_symmetry_space_group_name_H-M   'P 1'
_cell_length_a   20.02960800
_cell_length_b   3.90410600
_cell_length_c   14.95364829
_cell_angle_alpha   90.00000000
_cell_angle_beta   126.33350609
_cell_angle_gamma   90.00000000
_symmetry_Int_Tables_number   1
_chemical_formula_structural   Pr2Mn3(SbS3)4
_chemical_formula_sum   'Pr4 Mn6 Sb8 S24'
_cell_volume   942.00006694
_cell_formula_units_Z   2
loop_
 _symmetry_equiv_pos_site_id
 _symmetry_equiv_pos_as_xyz
  1  'x, y, z'
loop_
 _atom_site_type_symbol
 _atom_site_label
 _atom_site_symmetry_multiplicity
 _atom_site_fract_x
 _atom_site_fract_y
 _atom_site_fract_z
 _atom_site_occupancy
  Pr  Pr0  1  0.27668832  0.47278753  0.88546038  1
  Pr  Pr1  1  0.72987446  0.50576674  0.13630989  1
  Pr  Pr2  1  0.76160951  0.06689535  0.86766003  1
  Pr  Pr3  1  0.23220141  0.91544436  0.12345769  1
  Mn  Mn4  1  0.30178626  0.39706477  0.60762843  1
  Mn  Mn5  1  0.69105240  0.49229326  0.36194203  1
  Mn  Mn6  1  0.00415917  0.94384344  0.00573034  1
  Mn  Mn7  1  0.79449521  0.97772849  0.63332505  1
  Mn  Mn8  1  0.21736719  0.03070098  0.41326863  1
  Mn  Mn9  1  0.48325483  0.49354399  0.97431048  1
  Sb  Sb10  1  0.88647632  0.89201755  0.46205418  1
  Sb  Sb11  1  0.11949849  0.97043383  0.54420745  1
  Sb  Sb12  1  0.03381501  0.51704802  0.82872488  1
  Sb  Sb13  1  0.96747655  0.46005619  0.20466553  1
  Sb  Sb14  1  0.41178934  0.58053770  0.45918228  1
  Sb  Sb15  1  0.60473343  0.53279586  0.53564485  1
  Sb  Sb16  1  0.52921021  0.94350492  0.79504341  1
  Sb  Sb17  1  0.46720479  0.99147621  0.17932859  1
  S  S18  1  0.92601927  0.01324635  0.79067255  1
  S  S19  1  0.05466628  0.98891555  0.19477302  1
  S  S20  1  0.41304834  0.99576455  0.97078625  1
  S  S21  1  0.58125803  0.04175305  0.99412152  1
  S  S22  1  0.17348414  0.94415897  0.90339238  1
  S  S23  1  0.83237575  0.02489285  0.11678319  1
  S  S24  1  0.10569413  0.47282561  0.64741721  1
  S  S25  1  0.88932268  0.44040791  0.34135792  1
  S  S26  1  0.73455480  0.97346035  0.31618662  1
  S  S27  1  0.27010124  0.95079880  0.68568630  1
  S  S28  1  0.17935864  0.51494200  0.45385569  1
  S  S29  1  0.81578441  0.54556797  0.54331029  1
  S  S30  1  0.43265785  0.45291451  0.78888648  1
  S  S31  1  0.56754826  0.48964995  0.20375494  1
  S  S32  1  0.92114198  0.49202546  0.99797569  1
  S  S33  1  0.08684976  0.43478023  0.03294929  1
  S  S34  1  0.67765125  0.56000361  0.91245527  1
  S  S35  1  0.33033531  0.41695687  0.11344862  1
  S  S36  1  0.59847466  0.02338913  0.63900429  1
  S  S37  1  0.40214202  0.01287612  0.33782196  1
  S  S38  1  0.24814579  0.53534381  0.33172869  1
  S  S39  1  0.75850509  0.52230561  0.67874834  1
  S  S40  1  0.65970216  0.92339363  0.44194214  1
  S  S41  1  0.34422450  0.91822416  0.56741418  1
