# generated using pymatgen
data_Pr2Mn3(SbS3)4
_symmetry_space_group_name_H-M   'P 1'
_cell_length_a   20.02960800
_cell_length_b   3.90410600
_cell_length_c   14.95364829
_cell_angle_alpha   90.00000000
_cell_angle_beta   126.33350609
_cell_angle_gamma   90.00000000
_symmetry_Int_Tables_number   1
_chemical_formula_structural   Pr2Mn3(SbS3)4
_chemical_formula_sum   'Pr4 Mn6 Sb8 S24'
_cell_volume   942.00006694
_cell_formula_units_Z   2
loop_
 _symmetry_equiv_pos_site_id
 _symmetry_equiv_pos_as_xyz
  1  'x, y, z'
loop_
 _atom_site_type_symbol
 _atom_site_label
 _atom_site_symmetry_multiplicity
 _atom_site_fract_x
 _atom_site_fract_y
 _atom_site_fract_z
 _atom_site_occupancy
  Pr  Pr0  1  0.27681723  0.47335177  0.88564093  1
  Pr  Pr1  1  0.73006080  0.50583891  0.13640303  1
  Pr  Pr2  1  0.76166916  0.06673729  0.86780510  1
  Pr  Pr3  1  0.23211144  0.91608461  0.12335605  1
  Mn  Mn4  1  0.30164581  0.39779117  0.60742568  1
  Mn  Mn5  1  0.69096898  0.49170529  0.36165391  1
  Mn  Mn6  1  0.00410477  0.94344111  0.00565572  1
  Mn  Mn7  1  0.79453212  0.97769992  0.63319130  1
  Mn  Mn8  1  0.21737890  0.03141927  0.41306078  1
  Mn  Mn9  1  0.48307446  0.49383974  0.97423122  1
  Sb  Sb10  1  0.88654596  0.89204296  0.46213026  1
  Sb  Sb11  1  0.11950526  0.97038457  0.54429362  1
  Sb  Sb12  1  0.03379134  0.51743014  0.82887168  1
  Sb  Sb13  1  0.96741340  0.46082318  0.20437992  1
  Sb  Sb14  1  0.41181841  0.58092595  0.45938507  1
  Sb  Sb15  1  0.60473746  0.53309367  0.53565331  1
  Sb  Sb16  1  0.52932128  0.94285445  0.79510529  1
  Sb  Sb17  1  0.46715385  0.99121800  0.17952240  1
  S  S18  1  0.92588971  0.01214620  0.79047420  1
  S  S19  1  0.05446778  0.98799118  0.19498780  1
  S  S20  1  0.41330901  0.99717541  0.97098833  1
  S  S21  1  0.58113001  0.04111748  0.99423285  1
  S  S22  1  0.17356170  0.94266884  0.90362825  1
  S  S23  1  0.83223675  0.02417955  0.11659654  1
  S  S24  1  0.10581365  0.47254376  0.64763663  1
  S  S25  1  0.88947703  0.44113112  0.34146832  1
  S  S26  1  0.73440407  0.97324395  0.31614080  1
  S  S27  1  0.26988504  0.95137733  0.68536272  1
  S  S28  1  0.17942984  0.51359538  0.45393270  1
  S  S29  1  0.81551051  0.54572643  0.54338365  1
  S  S30  1  0.43255032  0.45221847  0.78894043  1
  S  S31  1  0.56738300  0.48961965  0.20375540  1
  S  S32  1  0.92148921  0.49192981  0.99813921  1
  S  S33  1  0.08703422  0.43518378  0.03346305  1
  S  S34  1  0.67764198  0.56051568  0.91265553  1
  S  S35  1  0.33039837  0.41704654  0.11319258  1
  S  S36  1  0.59843590  0.02439629  0.63909229  1
  S  S37  1  0.40222313  0.01291884  0.33768419  1
  S  S38  1  0.24838255  0.53488233  0.33194981  1
  S  S39  1  0.75851348  0.52251963  0.67868217  1
  S  S40  1  0.65976958  0.92289599  0.44199796  1
  S  S41  1  0.34401668  0.91779233  0.56717489  1
