# generated using pymatgen
data_Pr2Mn3(SbS3)4
_symmetry_space_group_name_H-M   'P 1'
_cell_length_a   20.02960800
_cell_length_b   3.90410600
_cell_length_c   14.95364829
_cell_angle_alpha   90.00000000
_cell_angle_beta   126.33350609
_cell_angle_gamma   90.00000000
_symmetry_Int_Tables_number   1
_chemical_formula_structural   Pr2Mn3(SbS3)4
_chemical_formula_sum   'Pr4 Mn6 Sb8 S24'
_cell_volume   942.00006694
_cell_formula_units_Z   2
loop_
 _symmetry_equiv_pos_site_id
 _symmetry_equiv_pos_as_xyz
  1  'x, y, z'
loop_
 _atom_site_type_symbol
 _atom_site_label
 _atom_site_symmetry_multiplicity
 _atom_site_fract_x
 _atom_site_fract_y
 _atom_site_fract_z
 _atom_site_occupancy
  Pr  Pr0  1  0.26475465  0.47655804  0.86942843  1
  Pr  Pr1  1  0.73792308  0.51526242  0.13652361  1
  Pr  Pr2  1  0.76363770  0.01110312  0.86369748  1
  Pr  Pr3  1  0.23601576  0.99953238  0.13871340  1
  Mn  Mn4  1  0.29263806  0.48609441  0.60421379  1
  Mn  Mn5  1  0.69443669  0.52823369  0.37987955  1
  Mn  Mn6  1  0.00523387  0.99468056  0.00276244  1
  Mn  Mn7  1  0.80292518  0.99929602  0.61548447  1
  Mn  Mn8  1  0.19515074  0.97150538  0.37802125  1
  Mn  Mn9  1  0.50166313  0.46816166  0.99326360  1
  Sb  Sb10  1  0.89039736  0.99614647  0.45314351  1
  Sb  Sb11  1  0.11169162  0.96453507  0.55225926  1
  Sb  Sb12  1  0.04007904  0.51262674  0.81729173  1
  Sb  Sb13  1  0.96249654  0.52405309  0.18697938  1
  Sb  Sb14  1  0.39904651  0.50277882  0.45871430  1
  Sb  Sb15  1  0.60588321  0.48379596  0.54676761  1
  Sb  Sb16  1  0.53412224  0.01000650  0.81274898  1
  Sb  Sb17  1  0.46201617  0.00779549  0.18256480  1
  S  S18  1  0.93761510  0.97007238  0.80294632  1
  S  S19  1  0.06614253  0.97453662  0.18827958  1
  S  S20  1  0.40981377  0.01650792  0.97851734  1
  S  S21  1  0.59313088  0.99930159  0.02639334  1
  S  S22  1  0.17367387  0.98440224  0.89522466  1
  S  S23  1  0.82513893  0.01460637  0.09813816  1
  S  S24  1  0.08617418  0.46185585  0.64606195  1
  S  S25  1  0.91252393  0.48616401  0.35879647  1
  S  S26  1  0.74082161  0.95744007  0.29851850  1
  S  S27  1  0.25806410  0.99658123  0.70349151  1
  S  S28  1  0.16999610  0.49031228  0.44740462  1
  S  S29  1  0.82883332  0.48529582  0.55012294  1
  S  S30  1  0.43240696  0.50049504  0.79900670  1
  S  S31  1  0.56188673  0.52734620  0.18691363  1
  S  S32  1  0.91055079  0.49766395  0.99037073  1
  S  S33  1  0.08282303  0.49730455  0.01556068  1
  S  S34  1  0.66473238  0.49306412  0.88868344  1
  S  S35  1  0.32769852  0.51989514  0.09636893  1
  S  S36  1  0.59299344  0.00537363  0.65532468  1
  S  S37  1  0.40668268  0.97123964  0.34546750  1
  S  S38  1  0.24409612  0.47014750  0.30714277  1
  S  S39  1  0.76120106  0.50548490  0.69996997  1
  S  S40  1  0.67380803  0.02433550  0.45888439  1
  S  S41  1  0.32862228  0.98586178  0.54152421  1
