# generated using pymatgen
data_Pr2Mn3(SbS3)4
_symmetry_space_group_name_H-M   'P 1'
_cell_length_a   20.02960800
_cell_length_b   3.90410600
_cell_length_c   14.95364829
_cell_angle_alpha   90.00000000
_cell_angle_beta   126.33350609
_cell_angle_gamma   90.00000000
_symmetry_Int_Tables_number   1
_chemical_formula_structural   Pr2Mn3(SbS3)4
_chemical_formula_sum   'Pr4 Mn6 Sb8 S24'
_cell_volume   942.00006694
_cell_formula_units_Z   2
loop_
 _symmetry_equiv_pos_site_id
 _symmetry_equiv_pos_as_xyz
  1  'x, y, z'
loop_
 _atom_site_type_symbol
 _atom_site_label
 _atom_site_symmetry_multiplicity
 _atom_site_fract_x
 _atom_site_fract_y
 _atom_site_fract_z
 _atom_site_occupancy
  Pr  Pr0  1  0.27690222  0.47402985  0.88566791  1
  Pr  Pr1  1  0.73022476  0.50584934  0.13648603  1
  Pr  Pr2  1  0.76178156  0.06664684  0.86797166  1
  Pr  Pr3  1  0.23205974  0.91670981  0.12329501  1
  Mn  Mn4  1  0.30156637  0.39868226  0.60734906  1
  Mn  Mn5  1  0.69081256  0.49084769  0.36139433  1
  Mn  Mn6  1  0.00403681  0.94302996  0.00553190  1
  Mn  Mn7  1  0.79455554  0.97752344  0.63309296  1
  Mn  Mn8  1  0.21746549  0.03201706  0.41295274  1
  Mn  Mn9  1  0.48290962  0.49430193  0.97421622  1
  Sb  Sb10  1  0.88657525  0.89203939  0.46214880  1
  Sb  Sb11  1  0.11949877  0.97035315  0.54442117  1
  Sb  Sb12  1  0.03373905  0.51771095  0.82895786  1
  Sb  Sb13  1  0.96732434  0.46143005  0.20411642  1
  Sb  Sb14  1  0.41185292  0.58146619  0.45958032  1
  Sb  Sb15  1  0.60477326  0.53327219  0.53568515  1
  Sb  Sb16  1  0.52941524  0.94235711  0.79520615  1
  Sb  Sb17  1  0.46715021  0.99098799  0.17968010  1
  S  S18  1  0.92563578  0.01092850  0.79007672  1
  S  S19  1  0.05421839  0.98689719  0.19514717  1
  S  S20  1  0.41356326  0.99841221  0.97111408  1
  S  S21  1  0.58093849  0.04038470  0.99425824  1
  S  S22  1  0.17357615  0.94182453  0.90383026  1
  S  S23  1  0.83209765  0.02315606  0.11630887  1
  S  S24  1  0.10607125  0.47240309  0.64794787  1
  S  S25  1  0.88962316  0.44134218  0.34168532  1
  S  S26  1  0.73420257  0.97279949  0.31602679  1
  S  S27  1  0.26960588  0.95203119  0.68492471  1
  S  S28  1  0.17944788  0.51303572  0.45400440  1
  S  S29  1  0.81530547  0.54563700  0.54342988  1
  S  S30  1  0.43240297  0.45155646  0.78899749  1
  S  S31  1  0.56714968  0.48967485  0.20368453  1
  S  S32  1  0.92177115  0.49121717  0.99827761  1
  S  S33  1  0.08739749  0.43564703  0.03403095  1
  S  S34  1  0.67761886  0.56138429  0.91279599  1
  S  S35  1  0.33040664  0.41699399  0.11292708  1
  S  S36  1  0.59839058  0.02531071  0.63922387  1
  S  S37  1  0.40212733  0.01304352  0.33743796  1
  S  S38  1  0.24871247  0.53470182  0.33226700  1
  S  S39  1  0.75855516  0.52309341  0.67873396  1
  S  S40  1  0.65978740  0.92187040  0.44180730  1
  S  S41  1  0.34388471  0.91783865  0.56692034  1
