# generated using pymatgen
data_Pr2Mn3(SbS3)4
_symmetry_space_group_name_H-M   'P 1'
_cell_length_a   20.02960800
_cell_length_b   3.90410600
_cell_length_c   14.95364829
_cell_angle_alpha   90.00000000
_cell_angle_beta   126.33350609
_cell_angle_gamma   90.00000000
_symmetry_Int_Tables_number   1
_chemical_formula_structural   Pr2Mn3(SbS3)4
_chemical_formula_sum   'Pr4 Mn6 Sb8 S24'
_cell_volume   942.00006694
_cell_formula_units_Z   2
loop_
 _symmetry_equiv_pos_site_id
 _symmetry_equiv_pos_as_xyz
  1  'x, y, z'
loop_
 _atom_site_type_symbol
 _atom_site_label
 _atom_site_symmetry_multiplicity
 _atom_site_fract_x
 _atom_site_fract_y
 _atom_site_fract_z
 _atom_site_occupancy
  Pr  Pr0  1  0.27697327  0.47474792  0.88565778  1
  Pr  Pr1  1  0.73038545  0.50603613  0.13665842  1
  Pr  Pr2  1  0.76191574  0.06655734  0.86819819  1
  Pr  Pr3  1  0.23194020  0.91729916  0.12318182  1
  Mn  Mn4  1  0.30141121  0.39936465  0.60729707  1
  Mn  Mn5  1  0.69068109  0.49022186  0.36113680  1
  Mn  Mn6  1  0.00390937  0.94272747  0.00537423  1
  Mn  Mn7  1  0.79468857  0.97736981  0.63314652  1
  Mn  Mn8  1  0.21753116  0.03246385  0.41275557  1
  Mn  Mn9  1  0.48265312  0.49428275  0.97425856  1
  Sb  Sb10  1  0.88656967  0.89170120  0.46211045  1
  Sb  Sb11  1  0.11957518  0.97028368  0.54461642  1
  Sb  Sb12  1  0.03372250  0.51808955  0.82902810  1
  Sb  Sb13  1  0.96735234  0.46193040  0.20394141  1
  Sb  Sb14  1  0.41186638  0.58192030  0.45977206  1
  Sb  Sb15  1  0.60486706  0.53326373  0.53571612  1
  Sb  Sb16  1  0.52946840  0.94206452  0.79523238  1
  Sb  Sb17  1  0.46718286  0.99081994  0.17986014  1
  S  S18  1  0.92543626  0.00979769  0.78984880  1
  S  S19  1  0.05406807  0.98533665  0.19548666  1
  S  S20  1  0.41379278  0.99962028  0.97129695  1
  S  S21  1  0.58077255  0.03952769  0.99429799  1
  S  S22  1  0.17362384  0.94068098  0.90395806  1
  S  S23  1  0.83200072  0.02232199  0.11596656  1
  S  S24  1  0.10620791  0.47232420  0.64823632  1
  S  S25  1  0.88972894  0.44112970  0.34185337  1
  S  S26  1  0.73402243  0.97229098  0.31592596  1
  S  S27  1  0.26944409  0.95261942  0.68448472  1
  S  S28  1  0.17930810  0.51214994  0.45403703  1
  S  S29  1  0.81502358  0.54593597  0.54322614  1
  S  S30  1  0.43227024  0.45087145  0.78913148  1
  S  S31  1  0.56688317  0.48968639  0.20358022  1
  S  S32  1  0.92192442  0.49103463  0.99823132  1
  S  S33  1  0.08762120  0.43608941  0.03447833  1
  S  S34  1  0.67762988  0.56253356  0.91292068  1
  S  S35  1  0.33041344  0.41695062  0.11252734  1
  S  S36  1  0.59829302  0.02586298  0.63947736  1
  S  S37  1  0.40201681  0.01281258  0.33723125  1
  S  S38  1  0.24897600  0.53408260  0.33250674  1
  S  S39  1  0.75843484  0.52340055  0.67865149  1
  S  S40  1  0.65981936  0.92111747  0.44159537  1
  S  S41  1  0.34376359  0.91760607  0.56681690  1
