# generated using pymatgen
data_Pr2Mn3(SbS3)4
_symmetry_space_group_name_H-M   'P 1'
_cell_length_a   20.02960800
_cell_length_b   3.90410600
_cell_length_c   14.95364829
_cell_angle_alpha   90.00000000
_cell_angle_beta   126.33350609
_cell_angle_gamma   90.00000000
_symmetry_Int_Tables_number   1
_chemical_formula_structural   Pr2Mn3(SbS3)4
_chemical_formula_sum   'Pr4 Mn6 Sb8 S24'
_cell_volume   942.00006694
_cell_formula_units_Z   2
loop_
 _symmetry_equiv_pos_site_id
 _symmetry_equiv_pos_as_xyz
  1  'x, y, z'
loop_
 _atom_site_type_symbol
 _atom_site_label
 _atom_site_symmetry_multiplicity
 _atom_site_fract_x
 _atom_site_fract_y
 _atom_site_fract_z
 _atom_site_occupancy
  Pr  Pr0  1  0.27706243  0.47542542  0.88569406  1
  Pr  Pr1  1  0.73053120  0.50627573  0.13683725  1
  Pr  Pr2  1  0.76207972  0.06630776  0.86837521  1
  Pr  Pr3  1  0.23180849  0.91781998  0.12310747  1
  Mn  Mn4  1  0.30125331  0.39979457  0.60719152  1
  Mn  Mn5  1  0.69056908  0.48944669  0.36097230  1
  Mn  Mn6  1  0.00385045  0.94239244  0.00535708  1
  Mn  Mn7  1  0.79479287  0.97671562  0.63323131  1
  Mn  Mn8  1  0.21765693  0.03296576  0.41262885  1
  Mn  Mn9  1  0.48244016  0.49422812  0.97431452  1
  Sb  Sb10  1  0.88651358  0.89144061  0.46204411  1
  Sb  Sb11  1  0.11966477  0.97020724  0.54480456  1
  Sb  Sb12  1  0.03371773  0.51840318  0.82906744  1
  Sb  Sb13  1  0.96733464  0.46244565  0.20367292  1
  Sb  Sb14  1  0.41183850  0.58224557  0.45996960  1
  Sb  Sb15  1  0.60497655  0.53317185  0.53576475  1
  Sb  Sb16  1  0.52952583  0.94170505  0.79523500  1
  Sb  Sb17  1  0.46721960  0.99068862  0.17998542  1
  S  S18  1  0.92526421  0.00890474  0.78961841  1
  S  S19  1  0.05397002  0.98398017  0.19577088  1
  S  S20  1  0.41395602  0.00045249  0.97133679  1
  S  S21  1  0.58066989  0.03798927  0.99427158  1
  S  S22  1  0.17357668  0.93930409  0.90395244  1
  S  S23  1  0.83179216  0.02198278  0.11551809  1
  S  S24  1  0.10640154  0.47263230  0.64854156  1
  S  S25  1  0.88989556  0.44047937  0.34202909  1
  S  S26  1  0.73385190  0.97135192  0.31583462  1
  S  S27  1  0.26922259  0.95313910  0.68397173  1
  S  S28  1  0.17916594  0.51111242  0.45398024  1
  S  S29  1  0.81465021  0.54646225  0.54284225  1
  S  S30  1  0.43212757  0.45033948  0.78929209  1
  S  S31  1  0.56683894  0.48960686  0.20356127  1
  S  S32  1  0.92202447  0.49067180  0.99821390  1
  S  S33  1  0.08792257  0.43653906  0.03494353  1
  S  S34  1  0.67768778  0.56342817  0.91317769  1
  S  S35  1  0.33045304  0.41696269  0.11215038  1
  S  S36  1  0.59819780  0.02606833  0.63985487  1
  S  S37  1  0.40196636  0.01272185  0.33702673  1
  S  S38  1  0.24924403  0.53369961  0.33281239  1
  S  S39  1  0.75830151  0.52429369  0.67857731  1
  S  S40  1  0.65987603  0.92044507  0.44139951  1
  S  S41  1  0.34364291  0.91724759  0.56659510  1
