# generated using pymatgen
data_Pr2Mn3(SbS3)4
_symmetry_space_group_name_H-M   'P 1'
_cell_length_a   20.02960800
_cell_length_b   3.90410600
_cell_length_c   14.95364829
_cell_angle_alpha   90.00000000
_cell_angle_beta   126.33350609
_cell_angle_gamma   90.00000000
_symmetry_Int_Tables_number   1
_chemical_formula_structural   Pr2Mn3(SbS3)4
_chemical_formula_sum   'Pr4 Mn6 Sb8 S24'
_cell_volume   942.00006694
_cell_formula_units_Z   2
loop_
 _symmetry_equiv_pos_site_id
 _symmetry_equiv_pos_as_xyz
  1  'x, y, z'
loop_
 _atom_site_type_symbol
 _atom_site_label
 _atom_site_symmetry_multiplicity
 _atom_site_fract_x
 _atom_site_fract_y
 _atom_site_fract_z
 _atom_site_occupancy
  Pr  Pr0  1  0.27712993  0.47586431  0.88569676  1
  Pr  Pr1  1  0.73067249  0.50649789  0.13705157  1
  Pr  Pr2  1  0.76214994  0.06584350  0.86844707  1
  Pr  Pr3  1  0.23167583  0.91832210  0.12301486  1
  Mn  Mn4  1  0.30104630  0.39999984  0.60708130  1
  Mn  Mn5  1  0.69047215  0.48885507  0.36085212  1
  Mn  Mn6  1  0.00377332  0.94191733  0.00531602  1
  Mn  Mn7  1  0.79489933  0.97638041  0.63335277  1
  Mn  Mn8  1  0.21781456  0.03337171  0.41258725  1
  Mn  Mn9  1  0.48224254  0.49422078  0.97445135  1
  Sb  Sb10  1  0.88643026  0.89133844  0.46191905  1
  Sb  Sb11  1  0.11971147  0.97012992  0.54500750  1
  Sb  Sb12  1  0.03370604  0.51873227  0.82903748  1
  Sb  Sb13  1  0.96734386  0.46305688  0.20345632  1
  Sb  Sb14  1  0.41184504  0.58280852  0.46018355  1
  Sb  Sb15  1  0.60503462  0.53312758  0.53577569  1
  Sb  Sb16  1  0.52957199  0.94142075  0.79521292  1
  Sb  Sb17  1  0.46730949  0.99042213  0.18016595  1
  S  S18  1  0.92503888  0.00833851  0.78936521  1
  S  S19  1  0.05386696  0.98298718  0.19605430  1
  S  S20  1  0.41409875  0.00131176  0.97147088  1
  S  S21  1  0.58068421  0.03691946  0.99438518  1
  S  S22  1  0.17357134  0.93825600  0.90396955  1
  S  S23  1  0.83155662  0.02235447  0.11510229  1
  S  S24  1  0.10661083  0.47297562  0.64880285  1
  S  S25  1  0.88989954  0.43965721  0.34201519  1
  S  S26  1  0.73367703  0.97070053  0.31571496  1
  S  S27  1  0.26903669  0.95414785  0.68354968  1
  S  S28  1  0.17896134  0.51008522  0.45389697  1
  S  S29  1  0.81436748  0.54684010  0.54262565  1
  S  S30  1  0.43209749  0.44989031  0.78942893  1
  S  S31  1  0.56677544  0.48968719  0.20350376  1
  S  S32  1  0.92223859  0.49050938  0.99825585  1
  S  S33  1  0.08825442  0.43680954  0.03560484  1
  S  S34  1  0.67774388  0.56440748  0.91352239  1
  S  S35  1  0.33034902  0.41685707  0.11177428  1
  S  S36  1  0.59819365  0.02590621  0.64027295  1
  S  S37  1  0.40200420  0.01265529  0.33695587  1
  S  S38  1  0.24952914  0.53357264  0.33296778  1
  S  S39  1  0.75833130  0.52490305  0.67874863  1
  S  S40  1  0.65999201  0.91994914  0.44124387  1
  S  S41  1  0.34355886  0.91693675  0.56638665  1
