# generated using pymatgen
data_Pr2Mn3(SbS3)4
_symmetry_space_group_name_H-M   'P 1'
_cell_length_a   20.02960800
_cell_length_b   3.90410600
_cell_length_c   14.95364829
_cell_angle_alpha   90.00000000
_cell_angle_beta   126.33350609
_cell_angle_gamma   90.00000000
_symmetry_Int_Tables_number   1
_chemical_formula_structural   Pr2Mn3(SbS3)4
_chemical_formula_sum   'Pr4 Mn6 Sb8 S24'
_cell_volume   942.00006694
_cell_formula_units_Z   2
loop_
 _symmetry_equiv_pos_site_id
 _symmetry_equiv_pos_as_xyz
  1  'x, y, z'
loop_
 _atom_site_type_symbol
 _atom_site_label
 _atom_site_symmetry_multiplicity
 _atom_site_fract_x
 _atom_site_fract_y
 _atom_site_fract_z
 _atom_site_occupancy
  Pr  Pr0  1  0.27716386  0.47612675  0.88567495  1
  Pr  Pr1  1  0.73081272  0.50669421  0.13729542  1
  Pr  Pr2  1  0.76220789  0.06534544  0.86850986  1
  Pr  Pr3  1  0.23158537  0.91880461  0.12298658  1
  Mn  Mn4  1  0.30087435  0.40006243  0.60695616  1
  Mn  Mn5  1  0.69044295  0.48886218  0.36073108  1
  Mn  Mn6  1  0.00378632  0.94189225  0.00533761  1
  Mn  Mn7  1  0.79500143  0.97597982  0.63350941  1
  Mn  Mn8  1  0.21794146  0.03365463  0.41248362  1
  Mn  Mn9  1  0.48195165  0.49436693  0.97446380  1
  Sb  Sb10  1  0.88631528  0.89117468  0.46172956  1
  Sb  Sb11  1  0.11972679  0.97006636  0.54517044  1
  Sb  Sb12  1  0.03367931  0.51928139  0.82899496  1
  Sb  Sb13  1  0.96737106  0.46338044  0.20325921  1
  Sb  Sb14  1  0.41184000  0.58322780  0.46037757  1
  Sb  Sb15  1  0.60507305  0.53330479  0.53581728  1
  Sb  Sb16  1  0.52970387  0.94124093  0.79528809  1
  Sb  Sb17  1  0.46738590  0.98996860  0.18028346  1
  S  S18  1  0.92470873  0.00817044  0.78911731  1
  S  S19  1  0.05388357  0.98189534  0.19644388  1
  S  S20  1  0.41419831  0.00211451  0.97160627  1
  S  S21  1  0.58069083  0.03606921  0.99442223  1
  S  S22  1  0.17356062  0.93774618  0.90415734  1
  S  S23  1  0.83142181  0.02303499  0.11482101  1
  S  S24  1  0.10674260  0.47325508  0.64901225  1
  S  S25  1  0.88999691  0.43929054  0.34205921  1
  S  S26  1  0.73354174  0.96993559  0.31564380  1
  S  S27  1  0.26889374  0.95516547  0.68322602  1
  S  S28  1  0.17879840  0.50897836  0.45379313  1
  S  S29  1  0.81421224  0.54711009  0.54259924  1
  S  S30  1  0.43204557  0.44944163  0.78958778  1
  S  S31  1  0.56679377  0.48956215  0.20345660  1
  S  S32  1  0.92234753  0.49027061  0.99830483  1
  S  S33  1  0.08853904  0.43663348  0.03624661  1
  S  S34  1  0.67783862  0.56528429  0.91385703  1
  S  S35  1  0.33023813  0.41698872  0.11150339  1
  S  S36  1  0.59806441  0.02552166  0.64051513  1
  S  S37  1  0.40198044  0.01278053  0.33680210  1
  S  S38  1  0.24970668  0.53305999  0.33307849  1
  S  S39  1  0.75827381  0.52488488  0.67891151  1
  S  S40  1  0.66017779  0.91904817  0.44108301  1
  S  S41  1  0.34335208  0.91683808  0.56611821  1
