# generated using pymatgen
data_Pr2Mn3(SbS3)4
_symmetry_space_group_name_H-M   'P 1'
_cell_length_a   20.02960800
_cell_length_b   3.90410600
_cell_length_c   14.95364829
_cell_angle_alpha   90.00000000
_cell_angle_beta   126.33350609
_cell_angle_gamma   90.00000000
_symmetry_Int_Tables_number   1
_chemical_formula_structural   Pr2Mn3(SbS3)4
_chemical_formula_sum   'Pr4 Mn6 Sb8 S24'
_cell_volume   942.00006694
_cell_formula_units_Z   2
loop_
 _symmetry_equiv_pos_site_id
 _symmetry_equiv_pos_as_xyz
  1  'x, y, z'
loop_
 _atom_site_type_symbol
 _atom_site_label
 _atom_site_symmetry_multiplicity
 _atom_site_fract_x
 _atom_site_fract_y
 _atom_site_fract_z
 _atom_site_occupancy
  Pr  Pr0  1  0.27723696  0.47638842  0.88572581  1
  Pr  Pr1  1  0.73098990  0.50680705  0.13758519  1
  Pr  Pr2  1  0.76228316  0.06501806  0.86852319  1
  Pr  Pr3  1  0.23144837  0.91919762  0.12290940  1
  Mn  Mn4  1  0.30070140  0.40042831  0.60679718  1
  Mn  Mn5  1  0.69045480  0.48871175  0.36062347  1
  Mn  Mn6  1  0.00384023  0.94187005  0.00540354  1
  Mn  Mn7  1  0.79520354  0.97557976  0.63371899  1
  Mn  Mn8  1  0.21805115  0.03358080  0.41231080  1
  Mn  Mn9  1  0.48168128  0.49431018  0.97435851  1
  Sb  Sb10  1  0.88611630  0.89109145  0.46144766  1
  Sb  Sb11  1  0.11972853  0.96977797  0.54525677  1
  Sb  Sb12  1  0.03372175  0.51961648  0.82898519  1
  Sb  Sb13  1  0.96739815  0.46376252  0.20309689  1
  Sb  Sb14  1  0.41178117  0.58343544  0.46050085  1
  Sb  Sb15  1  0.60506302  0.53343886  0.53586418  1
  Sb  Sb16  1  0.52985682  0.94103803  0.79543427  1
  Sb  Sb17  1  0.46746002  0.98955189  0.18033846  1
  S  S18  1  0.92432214  0.00781166  0.78865905  1
  S  S19  1  0.05391482  0.98087473  0.19677280  1
  S  S20  1  0.41422533  0.00278121  0.97172031  1
  S  S21  1  0.58053648  0.03538508  0.99436519  1
  S  S22  1  0.17362126  0.93727772  0.90424260  1
  S  S23  1  0.83133429  0.02380941  0.11467505  1
  S  S24  1  0.10686296  0.47356851  0.64905461  1
  S  S25  1  0.89017892  0.43898511  0.34221268  1
  S  S26  1  0.73341007  0.96915083  0.31567177  1
  S  S27  1  0.26877581  0.95667679  0.68294591  1
  S  S28  1  0.17863531  0.50817430  0.45381297  1
  S  S29  1  0.81408829  0.54762285  0.54267489  1
  S  S30  1  0.43195981  0.44966023  0.78972552  1
  S  S31  1  0.56681968  0.48909074  0.20340807  1
  S  S32  1  0.92247291  0.48990776  0.99842715  1
  S  S33  1  0.08863945  0.43620134  0.03666960  1
  S  S34  1  0.67794635  0.56581555  0.91411936  1
  S  S35  1  0.33022763  0.41725194  0.11126561  1
  S  S36  1  0.59801072  0.02564849  0.64105612  1
  S  S37  1  0.40192396  0.01266141  0.33659221  1
  S  S38  1  0.24984507  0.53259561  0.33314964  1
  S  S39  1  0.75822679  0.52519623  0.67903185  1
  S  S40  1  0.66038795  0.91779528  0.44109187  1
  S  S41  1  0.34317038  0.91659363  0.56589736  1
