# generated using pymatgen
data_Pr2Mn3(SbS3)4
_symmetry_space_group_name_H-M   'P 1'
_cell_length_a   20.02960800
_cell_length_b   3.90410600
_cell_length_c   14.95364829
_cell_angle_alpha   90.00000000
_cell_angle_beta   126.33350609
_cell_angle_gamma   90.00000000
_symmetry_Int_Tables_number   1
_chemical_formula_structural   Pr2Mn3(SbS3)4
_chemical_formula_sum   'Pr4 Mn6 Sb8 S24'
_cell_volume   942.00006694
_cell_formula_units_Z   2
loop_
 _symmetry_equiv_pos_site_id
 _symmetry_equiv_pos_as_xyz
  1  'x, y, z'
loop_
 _atom_site_type_symbol
 _atom_site_label
 _atom_site_symmetry_multiplicity
 _atom_site_fract_x
 _atom_site_fract_y
 _atom_site_fract_z
 _atom_site_occupancy
  Pr  Pr0  1  0.27735104  0.47677195  0.88579017  1
  Pr  Pr1  1  0.73109604  0.50706704  0.13780488  1
  Pr  Pr2  1  0.76234512  0.06479579  0.86853527  1
  Pr  Pr3  1  0.23132687  0.91963535  0.12282433  1
  Mn  Mn4  1  0.30059494  0.40079362  0.60664190  1
  Mn  Mn5  1  0.69052819  0.48854212  0.36057532  1
  Mn  Mn6  1  0.00397429  0.94203115  0.00546954  1
  Mn  Mn7  1  0.79527317  0.97490818  0.63379790  1
  Mn  Mn8  1  0.21816426  0.03369872  0.41212659  1
  Mn  Mn9  1  0.48143200  0.49447775  0.97436485  1
  Sb  Sb10  1  0.88596280  0.89106285  0.46129018  1
  Sb  Sb11  1  0.11973283  0.96956373  0.54539719  1
  Sb  Sb12  1  0.03378542  0.51994767  0.82903748  1
  Sb  Sb13  1  0.96739191  0.46397624  0.20295375  1
  Sb  Sb14  1  0.41171880  0.58377234  0.46065866  1
  Sb  Sb15  1  0.60495594  0.53366984  0.53581235  1
  Sb  Sb16  1  0.53000711  0.94078594  0.79561762  1
  Sb  Sb17  1  0.46756696  0.98913597  0.18045700  1
  S  S18  1  0.92410439  0.00761061  0.78841808  1
  S  S19  1  0.05388300  0.98003874  0.19706650  1
  S  S20  1  0.41417738  0.00340749  0.97192290  1
  S  S21  1  0.58042137  0.03428384  0.99441079  1
  S  S22  1  0.17366820  0.93696713  0.90438052  1
  S  S23  1  0.83133497  0.02418939  0.11468905  1
  S  S24  1  0.10694494  0.47398590  0.64895221  1
  S  S25  1  0.89036916  0.43852956  0.34234893  1
  S  S26  1  0.73323333  0.96836849  0.31554564  1
  S  S27  1  0.26861677  0.95736191  0.68259595  1
  S  S28  1  0.17843816  0.50740756  0.45388448  1
  S  S29  1  0.81390933  0.54861757  0.54276028  1
  S  S30  1  0.43183092  0.44964482  0.78986962  1
  S  S31  1  0.56673093  0.48882349  0.20323471  1
  S  S32  1  0.92264261  0.48982050  0.99866936  1
  S  S33  1  0.08870309  0.43628190  0.03699370  1
  S  S34  1  0.67811159  0.56652985  0.91442435  1
  S  S35  1  0.33042267  0.41743826  0.11134398  1
  S  S36  1  0.59799115  0.02598118  0.64155458  1
  S  S37  1  0.40188546  0.01217357  0.33631402  1
  S  S38  1  0.25003495  0.53207170  0.33327242  1
  S  S39  1  0.75817621  0.52534910  0.67916481  1
  S  S40  1  0.66066788  0.91666953  0.44105943  1
  S  S41  1  0.34298985  0.91640119  0.56560406  1
