# generated using pymatgen
data_Pr2Mn3(SbS3)4
_symmetry_space_group_name_H-M   'P 1'
_cell_length_a   20.02960800
_cell_length_b   3.90410600
_cell_length_c   14.95364829
_cell_angle_alpha   90.00000000
_cell_angle_beta   126.33350609
_cell_angle_gamma   90.00000000
_symmetry_Int_Tables_number   1
_chemical_formula_structural   Pr2Mn3(SbS3)4
_chemical_formula_sum   'Pr4 Mn6 Sb8 S24'
_cell_volume   942.00006694
_cell_formula_units_Z   2
loop_
 _symmetry_equiv_pos_site_id
 _symmetry_equiv_pos_as_xyz
  1  'x, y, z'
loop_
 _atom_site_type_symbol
 _atom_site_label
 _atom_site_symmetry_multiplicity
 _atom_site_fract_x
 _atom_site_fract_y
 _atom_site_fract_z
 _atom_site_occupancy
  Pr  Pr0  1  0.27749999  0.47710030  0.88591265  1
  Pr  Pr1  1  0.73116247  0.50722851  0.13795048  1
  Pr  Pr2  1  0.76239699  0.06458621  0.86851304  1
  Pr  Pr3  1  0.23118011  0.92009215  0.12269033  1
  Mn  Mn4  1  0.30052929  0.40112059  0.60652958  1
  Mn  Mn5  1  0.69044732  0.48858163  0.36039200  1
  Mn  Mn6  1  0.00415149  0.94213424  0.00560020  1
  Mn  Mn7  1  0.79539076  0.97432822  0.63393187  1
  Mn  Mn8  1  0.21814093  0.03389279  0.41184622  1
  Mn  Mn9  1  0.48121494  0.49462950  0.97430852  1
  Sb  Sb10  1  0.88584906  0.89113419  0.46111666  1
  Sb  Sb11  1  0.11968389  0.96968098  0.54550029  1
  Sb  Sb12  1  0.03389390  0.52012047  0.82914620  1
  Sb  Sb13  1  0.96736857  0.46439199  0.20279785  1
  Sb  Sb14  1  0.41167482  0.58406059  0.46082301  1
  Sb  Sb15  1  0.60488962  0.53382306  0.53584648  1
  Sb  Sb16  1  0.53015411  0.94050178  0.79587682  1
  Sb  Sb17  1  0.46761227  0.98864548  0.18056079  1
  S  S18  1  0.92385098  0.00761440  0.78807527  1
  S  S19  1  0.05393995  0.97938555  0.19740708  1
  S  S20  1  0.41425728  0.00400188  0.97222710  1
  S  S21  1  0.58038426  0.03330037  0.99449977  1
  S  S22  1  0.17365896  0.93686565  0.90441837  1
  S  S23  1  0.83138087  0.02434633  0.11478748  1
  S  S24  1  0.10705469  0.47485546  0.64886258  1
  S  S25  1  0.89061205  0.43842900  0.34248858  1
  S  S26  1  0.73313588  0.96697848  0.31540274  1
  S  S27  1  0.26845212  0.95789492  0.68231292  1
  S  S28  1  0.17815785  0.50665585  0.45388084  1
  S  S29  1  0.81383484  0.54991593  0.54274875  1
  S  S30  1  0.43156119  0.45008796  0.78982853  1
  S  S31  1  0.56667257  0.48866434  0.20314222  1
  S  S32  1  0.92259804  0.48994991  0.99868667  1
  S  S33  1  0.08885221  0.43650780  0.03747473  1
  S  S34  1  0.67826793  0.56690431  0.91469466  1
  S  S35  1  0.33062290  0.41780924  0.11147734  1
  S  S36  1  0.59806630  0.02632424  0.64195018  1
  S  S37  1  0.40187670  0.01202902  0.33610424  1
  S  S38  1  0.25005598  0.53152275  0.33325066  1
  S  S39  1  0.75811566  0.52571430  0.67923655  1
  S  S40  1  0.66090295  0.91550223  0.44092592  1
  S  S41  1  0.34276651  0.91654950  0.56531696  1
