# generated using pymatgen
data_Pr2Mn3(SbS3)4
_symmetry_space_group_name_H-M   'P 1'
_cell_length_a   20.02960800
_cell_length_b   3.90410600
_cell_length_c   14.95364829
_cell_angle_alpha   90.00000000
_cell_angle_beta   126.33350609
_cell_angle_gamma   90.00000000
_symmetry_Int_Tables_number   1
_chemical_formula_structural   Pr2Mn3(SbS3)4
_chemical_formula_sum   'Pr4 Mn6 Sb8 S24'
_cell_volume   942.00006694
_cell_formula_units_Z   2
loop_
 _symmetry_equiv_pos_site_id
 _symmetry_equiv_pos_as_xyz
  1  'x, y, z'
loop_
 _atom_site_type_symbol
 _atom_site_label
 _atom_site_symmetry_multiplicity
 _atom_site_fract_x
 _atom_site_fract_y
 _atom_site_fract_z
 _atom_site_occupancy
  Pr  Pr0  1  0.27762440  0.47773050  0.88601185  1
  Pr  Pr1  1  0.73126024  0.50740042  0.13815624  1
  Pr  Pr2  1  0.76250581  0.06444944  0.86855339  1
  Pr  Pr3  1  0.23109621  0.92049247  0.12257871  1
  Mn  Mn4  1  0.30046899  0.40133292  0.60642917  1
  Mn  Mn5  1  0.69041667  0.48857132  0.36031758  1
  Mn  Mn6  1  0.00435005  0.94223171  0.00576433  1
  Mn  Mn7  1  0.79539532  0.97331032  0.63380525  1
  Mn  Mn8  1  0.21813627  0.03407533  0.41158718  1
  Mn  Mn9  1  0.48097748  0.49495221  0.97419427  1
  Sb  Sb10  1  0.88578175  0.89157294  0.46108325  1
  Sb  Sb11  1  0.11964799  0.96986481  0.54559323  1
  Sb  Sb12  1  0.03398638  0.52020724  0.82919801  1
  Sb  Sb13  1  0.96736628  0.46480015  0.20262224  1
  Sb  Sb14  1  0.41167865  0.58450505  0.46104732  1
  Sb  Sb15  1  0.60494117  0.53408338  0.53599256  1
  Sb  Sb16  1  0.53031775  0.94031863  0.79613989  1
  Sb  Sb17  1  0.46762439  0.98837998  0.18065614  1
  S  S18  1  0.92362463  0.00794835  0.78781413  1
  S  S19  1  0.05398902  0.97939499  0.19773743  1
  S  S20  1  0.41440396  0.00451195  0.97249005  1
  S  S21  1  0.58036161  0.03245865  0.99468609  1
  S  S22  1  0.17363928  0.93695020  0.90434902  1
  S  S23  1  0.83141695  0.02399576  0.11509353  1
  S  S24  1  0.10728321  0.47574085  0.64886654  1
  S  S25  1  0.89089818  0.43880553  0.34270528  1
  S  S26  1  0.73299401  0.96583404  0.31519737  1
  S  S27  1  0.26822225  0.95764544  0.68186173  1
  S  S28  1  0.17789950  0.50628491  0.45383676  1
  S  S29  1  0.81370585  0.55128427  0.54269125  1
  S  S30  1  0.43148047  0.45019380  0.78997986  1
  S  S31  1  0.56656744  0.48859418  0.20292473  1
  S  S32  1  0.92246745  0.48982594  0.99857926  1
  S  S33  1  0.08896574  0.43670510  0.03793986  1
  S  S34  1  0.67830180  0.56720593  0.91476115  1
  S  S35  1  0.33080379  0.41797156  0.11155296  1
  S  S36  1  0.59817516  0.02619258  0.64228741  1
  S  S37  1  0.40184524  0.01262328  0.33603301  1
  S  S38  1  0.25010570  0.53093660  0.33321777  1
  S  S39  1  0.75805469  0.52618058  0.67938289  1
  S  S40  1  0.66123646  0.91477000  0.44097163  1
  S  S41  1  0.34254708  0.91681249  0.56501978  1
