# generated using pymatgen
data_Pr2Mn3(SbS3)4
_symmetry_space_group_name_H-M   'P 1'
_cell_length_a   20.02960800
_cell_length_b   3.90410600
_cell_length_c   14.95364829
_cell_angle_alpha   90.00000000
_cell_angle_beta   126.33350609
_cell_angle_gamma   90.00000000
_symmetry_Int_Tables_number   1
_chemical_formula_structural   Pr2Mn3(SbS3)4
_chemical_formula_sum   'Pr4 Mn6 Sb8 S24'
_cell_volume   942.00006694
_cell_formula_units_Z   2
loop_
 _symmetry_equiv_pos_site_id
 _symmetry_equiv_pos_as_xyz
  1  'x, y, z'
loop_
 _atom_site_type_symbol
 _atom_site_label
 _atom_site_symmetry_multiplicity
 _atom_site_fract_x
 _atom_site_fract_y
 _atom_site_fract_z
 _atom_site_occupancy
  Pr  Pr0  1  0.27773060  0.47816482  0.88606456  1
  Pr  Pr1  1  0.73133039  0.50771313  0.13830514  1
  Pr  Pr2  1  0.76265186  0.06464237  0.86866146  1
  Pr  Pr3  1  0.23107340  0.92060250  0.12253050  1
  Mn  Mn4  1  0.30049711  0.40158399  0.60642764  1
  Mn  Mn5  1  0.69048980  0.48870333  0.36037033  1
  Mn  Mn6  1  0.00463374  0.94234549  0.00601813  1
  Mn  Mn7  1  0.79546792  0.97245022  0.63372013  1
  Mn  Mn8  1  0.21811931  0.03428414  0.41146393  1
  Mn  Mn9  1  0.48075247  0.49442281  0.97407842  1
  Sb  Sb10  1  0.88569634  0.89207695  0.46102056  1
  Sb  Sb11  1  0.11962725  0.97003247  0.54567542  1
  Sb  Sb12  1  0.03407179  0.52057221  0.82921016  1
  Sb  Sb13  1  0.96743492  0.46518836  0.20256285  1
  Sb  Sb14  1  0.41163714  0.58514064  0.46121899  1
  Sb  Sb15  1  0.60499296  0.53428612  0.53611357  1
  Sb  Sb16  1  0.53052925  0.94009989  0.79642093  1
  Sb  Sb17  1  0.46767384  0.98794699  0.18074306  1
  S  S18  1  0.92357646  0.00825566  0.78790388  1
  S  S19  1  0.05409977  0.97954389  0.19794993  1
  S  S20  1  0.41450491  0.00520806  0.97288543  1
  S  S21  1  0.58026185  0.03181810  0.99474436  1
  S  S22  1  0.17353188  0.93717166  0.90411059  1
  S  S23  1  0.83155504  0.02408746  0.11529691  1
  S  S24  1  0.10750939  0.47681626  0.64884267  1
  S  S25  1  0.89127846  0.43874998  0.34292623  1
  S  S26  1  0.73304710  0.96551337  0.31511905  1
  S  S27  1  0.26799247  0.95760995  0.68130872  1
  S  S28  1  0.17754115  0.50547116  0.45373003  1
  S  S29  1  0.81365677  0.55143334  0.54278536  1
  S  S30  1  0.43128838  0.45000980  0.78999901  1
  S  S31  1  0.56631346  0.48842973  0.20245779  1
  S  S32  1  0.92228649  0.48959628  0.99858903  1
  S  S33  1  0.08902862  0.43645391  0.03848095  1
  S  S34  1  0.67836024  0.56733335  0.91487471  1
  S  S35  1  0.33098459  0.41833946  0.11167143  1
  S  S36  1  0.59826409  0.02594932  0.64269449  1
  S  S37  1  0.40172154  0.01328438  0.33586703  1
  S  S38  1  0.25016258  0.53075431  0.33318107  1
  S  S39  1  0.75785703  0.52633132  0.67933281  1
  S  S40  1  0.66159025  0.91437239  0.44109033  1
  S  S41  1  0.34232601  0.91709023  0.56464811  1
