# generated using pymatgen
data_Pr2Mn3(SbS3)4
_symmetry_space_group_name_H-M   'P 1'
_cell_length_a   20.02960800
_cell_length_b   3.90410600
_cell_length_c   14.95364829
_cell_angle_alpha   90.00000000
_cell_angle_beta   126.33350609
_cell_angle_gamma   90.00000000
_symmetry_Int_Tables_number   1
_chemical_formula_structural   Pr2Mn3(SbS3)4
_chemical_formula_sum   'Pr4 Mn6 Sb8 S24'
_cell_volume   942.00006694
_cell_formula_units_Z   2
loop_
 _symmetry_equiv_pos_site_id
 _symmetry_equiv_pos_as_xyz
  1  'x, y, z'
loop_
 _atom_site_type_symbol
 _atom_site_label
 _atom_site_symmetry_multiplicity
 _atom_site_fract_x
 _atom_site_fract_y
 _atom_site_fract_z
 _atom_site_occupancy
  Pr  Pr0  1  0.26473685  0.47595608  0.86937869  1
  Pr  Pr1  1  0.73794707  0.51536173  0.13663976  1
  Pr  Pr2  1  0.76374634  0.01192505  0.86379738  1
  Pr  Pr3  1  0.23607251  0.00023915  0.13866871  1
  Mn  Mn4  1  0.29241581  0.48618092  0.60388761  1
  Mn  Mn5  1  0.69429906  0.52828373  0.37981659  1
  Mn  Mn6  1  0.00539731  0.99464678  0.00314663  1
  Mn  Mn7  1  0.80285749  0.00030591  0.61547966  1
  Mn  Mn8  1  0.19497829  0.97184274  0.37783358  1
  Mn  Mn9  1  0.50147976  0.46765468  0.99302454  1
  Sb  Sb10  1  0.89027887  0.99575538  0.45295597  1
  Sb  Sb11  1  0.11166382  0.96420563  0.55217448  1
  Sb  Sb12  1  0.04003480  0.51286279  0.81744621  1
  Sb  Sb13  1  0.96252755  0.52261970  0.18692887  1
  Sb  Sb14  1  0.39891885  0.50294853  0.45859160  1
  Sb  Sb15  1  0.60595352  0.48364327  0.54674214  1
  Sb  Sb16  1  0.53409154  0.01054110  0.81264371  1
  Sb  Sb17  1  0.46201338  0.00764505  0.18255727  1
  S  S18  1  0.93770919  0.97110985  0.80349519  1
  S  S19  1  0.06608175  0.97507191  0.18794563  1
  S  S20  1  0.41008816  0.01618299  0.97859902  1
  S  S21  1  0.59309894  0.99935231  0.02645135  1
  S  S22  1  0.17368157  0.98453176  0.89508081  1
  S  S23  1  0.82501793  0.01508760  0.09780920  1
  S  S24  1  0.08610670  0.46251043  0.64595919  1
  S  S25  1  0.91237192  0.48499376  0.35848867  1
  S  S26  1  0.74093525  0.95804707  0.29853563  1
  S  S27  1  0.25833334  0.99600198  0.70386946  1
  S  S28  1  0.17020223  0.49081528  0.44718716  1
  S  S29  1  0.82870432  0.48596891  0.54997939  1
  S  S30  1  0.43248217  0.49973553  0.79888224  1
  S  S31  1  0.56173446  0.52606616  0.18655165  1
  S  S32  1  0.91099318  0.49864005  0.99114504  1
  S  S33  1  0.08276995  0.49740925  0.01536625  1
  S  S34  1  0.66474012  0.49143581  0.88842189  1
  S  S35  1  0.32753071  0.51913937  0.09584543  1
  S  S36  1  0.59314269  0.00527653  0.65569523  1
  S  S37  1  0.40649734  0.97212091  0.34504501  1
  S  S38  1  0.24416308  0.46956226  0.30750558  1
  S  S39  1  0.76137771  0.50533811  0.70006538  1
  S  S40  1  0.67392513  0.02491031  0.45896621  1
  S  S41  1  0.32837379  0.98451781  0.54170458  1
