# generated using pymatgen
data_Pr2Mn3(SbS3)4
_symmetry_space_group_name_H-M   'P 1'
_cell_length_a   20.02960800
_cell_length_b   3.90410600
_cell_length_c   14.95364829
_cell_angle_alpha   90.00000000
_cell_angle_beta   126.33350609
_cell_angle_gamma   90.00000000
_symmetry_Int_Tables_number   1
_chemical_formula_structural   Pr2Mn3(SbS3)4
_chemical_formula_sum   'Pr4 Mn6 Sb8 S24'
_cell_volume   942.00006694
_cell_formula_units_Z   2
loop_
 _symmetry_equiv_pos_site_id
 _symmetry_equiv_pos_as_xyz
  1  'x, y, z'
loop_
 _atom_site_type_symbol
 _atom_site_label
 _atom_site_symmetry_multiplicity
 _atom_site_fract_x
 _atom_site_fract_y
 _atom_site_fract_z
 _atom_site_occupancy
  Pr  Pr0  1  0.27777959  0.47887136  0.88606416  1
  Pr  Pr1  1  0.73142207  0.50785221  0.13846745  1
  Pr  Pr2  1  0.76279608  0.06496242  0.86882652  1
  Pr  Pr3  1  0.23109545  0.92051508  0.12247727  1
  Mn  Mn4  1  0.30052582  0.40156237  0.60643866  1
  Mn  Mn5  1  0.69055935  0.48879800  0.36037064  1
  Mn  Mn6  1  0.00489121  0.94268649  0.00626537  1
  Mn  Mn7  1  0.79552132  0.97185060  0.63361390  1
  Mn  Mn8  1  0.21803992  0.03423028  0.41139944  1
  Mn  Mn9  1  0.48051786  0.49344822  0.97393977  1
  Sb  Sb10  1  0.88568071  0.89235969  0.46102968  1
  Sb  Sb11  1  0.11957860  0.97032442  0.54569659  1
  Sb  Sb12  1  0.03412075  0.52116853  0.82918192  1
  Sb  Sb13  1  0.96753391  0.46519141  0.20258602  1
  Sb  Sb14  1  0.41153874  0.58573695  0.46131815  1
  Sb  Sb15  1  0.60506721  0.53451565  0.53629824  1
  Sb  Sb16  1  0.53070378  0.93989526  0.79670226  1
  Sb  Sb17  1  0.46770635  0.98738721  0.18077789  1
  S  S18  1  0.92347617  0.00847722  0.78796474  1
  S  S19  1  0.05424946  0.97949281  0.19804084  1
  S  S20  1  0.41459480  0.00604392  0.97326629  1
  S  S21  1  0.58023756  0.03141386  0.99488749  1
  S  S22  1  0.17346981  0.93710821  0.90394100  1
  S  S23  1  0.83170618  0.02384324  0.11542745  1
  S  S24  1  0.10766132  0.47755263  0.64883210  1
  S  S25  1  0.89169215  0.43849584  0.34342306  1
  S  S26  1  0.73312320  0.96540282  0.31519366  1
  S  S27  1  0.26779025  0.95731698  0.68075053  1
  S  S28  1  0.17724932  0.50449981  0.45361502  1
  S  S29  1  0.81362592  0.55134346  0.54292186  1
  S  S30  1  0.43092601  0.44992604  0.78977459  1
  S  S31  1  0.56599117  0.48845926  0.20182475  1
  S  S32  1  0.92227458  0.48950765  0.99874553  1
  S  S33  1  0.08905955  0.43691741  0.03901020  1
  S  S34  1  0.67843245  0.56705572  0.91487318  1
  S  S35  1  0.33111140  0.41837364  0.11188098  1
  S  S36  1  0.59842584  0.02552405  0.64314696  1
  S  S37  1  0.40161569  0.01363737  0.33562346  1
  S  S38  1  0.25022910  0.53039381  0.33317180  1
  S  S39  1  0.75762757  0.52645427  0.67931502  1
  S  S40  1  0.66192381  0.91388751  0.44127801  1
  S  S41  1  0.34213154  0.91743880  0.56431236  1
