# generated using pymatgen
data_Pr2Mn3(SbS3)4
_symmetry_space_group_name_H-M   'P 1'
_cell_length_a   20.02960800
_cell_length_b   3.90410600
_cell_length_c   14.95364829
_cell_angle_alpha   90.00000000
_cell_angle_beta   126.33350609
_cell_angle_gamma   90.00000000
_symmetry_Int_Tables_number   1
_chemical_formula_structural   Pr2Mn3(SbS3)4
_chemical_formula_sum   'Pr4 Mn6 Sb8 S24'
_cell_volume   942.00006694
_cell_formula_units_Z   2
loop_
 _symmetry_equiv_pos_site_id
 _symmetry_equiv_pos_as_xyz
  1  'x, y, z'
loop_
 _atom_site_type_symbol
 _atom_site_label
 _atom_site_symmetry_multiplicity
 _atom_site_fract_x
 _atom_site_fract_y
 _atom_site_fract_z
 _atom_site_occupancy
  Pr  Pr0  1  0.27784599  0.47940348  0.88604046  1
  Pr  Pr1  1  0.73151083  0.50791057  0.13862067  1
  Pr  Pr2  1  0.76293383  0.06511415  0.86900532  1
  Pr  Pr3  1  0.23112923  0.92022395  0.12241311  1
  Mn  Mn4  1  0.30055660  0.40191984  0.60645342  1
  Mn  Mn5  1  0.69057835  0.48896826  0.36040177  1
  Mn  Mn6  1  0.00513241  0.94317761  0.00661642  1
  Mn  Mn7  1  0.79556899  0.97119363  0.63346752  1
  Mn  Mn8  1  0.21793381  0.03391808  0.41119446  1
  Mn  Mn9  1  0.48031906  0.49235548  0.97385430  1
  Sb  Sb10  1  0.88565490  0.89265596  0.46104142  1
  Sb  Sb11  1  0.11955069  0.97043079  0.54572166  1
  Sb  Sb12  1  0.03422980  0.52175083  0.82918107  1
  Sb  Sb13  1  0.96756274  0.46543972  0.20254743  1
  Sb  Sb14  1  0.41145383  0.58608910  0.46143336  1
  Sb  Sb15  1  0.60514154  0.53450857  0.53650961  1
  Sb  Sb16  1  0.53087804  0.93994345  0.79703092  1
  Sb  Sb17  1  0.46768237  0.98678260  0.18073070  1
  S  S18  1  0.92345147  0.00892073  0.78796830  1
  S  S19  1  0.05433478  0.97997931  0.19801027  1
  S  S20  1  0.41476611  0.00651010  0.97365380  1
  S  S21  1  0.58029319  0.03095509  0.99505594  1
  S  S22  1  0.17341375  0.93700929  0.90368820  1
  S  S23  1  0.83202588  0.02334985  0.11581601  1
  S  S24  1  0.10789258  0.47779343  0.64883993  1
  S  S25  1  0.89192066  0.43821666  0.34365574  1
  S  S26  1  0.73332865  0.96525287  0.31544979  1
  S  S27  1  0.26763276  0.95661806  0.68034021  1
  S  S28  1  0.17693751  0.50402662  0.45338932  1
  S  S29  1  0.81354502  0.55073881  0.54294761  1
  S  S30  1  0.43066397  0.44973623  0.78964559  1
  S  S31  1  0.56574241  0.48870358  0.20126637  1
  S  S32  1  0.92215535  0.48903984  0.99868699  1
  S  S33  1  0.08914337  0.43746253  0.03951992  1
  S  S34  1  0.67862142  0.56660736  0.91488265  1
  S  S35  1  0.33123857  0.41785091  0.11200657  1
  S  S36  1  0.59859841  0.02455025  0.64355369  1
  S  S37  1  0.40154705  0.01442248  0.33529831  1
  S  S38  1  0.25028543  0.53024955  0.33305085  1
  S  S39  1  0.75749507  0.52640257  0.67945003  1
  S  S40  1  0.66222202  0.91328114  0.44149880  1
  S  S41  1  0.34195044  0.91805866  0.56409110  1
