# generated using pymatgen
data_Pr2Mn3(SbS3)4
_symmetry_space_group_name_H-M   'P 1'
_cell_length_a   20.02960800
_cell_length_b   3.90410600
_cell_length_c   14.95364829
_cell_angle_alpha   90.00000000
_cell_angle_beta   126.33350609
_cell_angle_gamma   90.00000000
_symmetry_Int_Tables_number   1
_chemical_formula_structural   Pr2Mn3(SbS3)4
_chemical_formula_sum   'Pr4 Mn6 Sb8 S24'
_cell_volume   942.00006694
_cell_formula_units_Z   2
loop_
 _symmetry_equiv_pos_site_id
 _symmetry_equiv_pos_as_xyz
  1  'x, y, z'
loop_
 _atom_site_type_symbol
 _atom_site_label
 _atom_site_symmetry_multiplicity
 _atom_site_fract_x
 _atom_site_fract_y
 _atom_site_fract_z
 _atom_site_occupancy
  Pr  Pr0  1  0.27787591  0.47995358  0.88600462  1
  Pr  Pr1  1  0.73158665  0.50783509  0.13882038  1
  Pr  Pr2  1  0.76304700  0.06503318  0.86917569  1
  Pr  Pr3  1  0.23118551  0.92003840  0.12234620  1
  Mn  Mn4  1  0.30066774  0.40239593  0.60667843  1
  Mn  Mn5  1  0.69058573  0.48923734  0.36046721  1
  Mn  Mn6  1  0.00541603  0.94338112  0.00708817  1
  Mn  Mn7  1  0.79557685  0.97072652  0.63321751  1
  Mn  Mn8  1  0.21776397  0.03347892  0.41098866  1
  Mn  Mn9  1  0.48014954  0.49128654  0.97378062  1
  Sb  Sb10  1  0.88562563  0.89302866  0.46110665  1
  Sb  Sb11  1  0.11952047  0.97075598  0.54577130  1
  Sb  Sb12  1  0.03429157  0.52214838  0.82918165  1
  Sb  Sb13  1  0.96753394  0.46552722  0.20252484  1
  Sb  Sb14  1  0.41140497  0.58615788  0.46145256  1
  Sb  Sb15  1  0.60512682  0.53461642  0.53663397  1
  Sb  Sb16  1  0.53102934  0.94027719  0.79728215  1
  Sb  Sb17  1  0.46764390  0.98619583  0.18065762  1
  S  S18  1  0.92347444  0.00949165  0.78813257  1
  S  S19  1  0.05438207  0.98077155  0.19786683  1
  S  S20  1  0.41490656  0.00645956  0.97400624  1
  S  S21  1  0.58022654  0.02996706  0.99506515  1
  S  S22  1  0.17337499  0.93697885  0.90341399  1
  S  S23  1  0.83239987  0.02337113  0.11616675  1
  S  S24  1  0.10824004  0.47764526  0.64905405  1
  S  S25  1  0.89207552  0.43755639  0.34382871  1
  S  S26  1  0.73356259  0.96502941  0.31579208  1
  S  S27  1  0.26753899  0.95555262  0.68004701  1
  S  S28  1  0.17663812  0.50343200  0.45324100  1
  S  S29  1  0.81338084  0.55024230  0.54277082  1
  S  S30  1  0.43041953  0.44936025  0.78946926  1
  S  S31  1  0.56557650  0.48912648  0.20088611  1
  S  S32  1  0.92189956  0.48829211  0.99845113  1
  S  S33  1  0.08918670  0.43817403  0.04010783  1
  S  S34  1  0.67884570  0.56623973  0.91495734  1
  S  S35  1  0.33137186  0.41776495  0.11207091  1
  S  S36  1  0.59869475  0.02383024  0.64387694  1
  S  S37  1  0.40144659  0.01506596  0.33482602  1
  S  S38  1  0.25030371  0.53022519  0.33288626  1
  S  S39  1  0.75731609  0.52622810  0.67952178  1
  S  S40  1  0.66240851  0.91251181  0.44160942  1
  S  S41  1  0.34175582  0.91864033  0.56392117  1
