# generated using pymatgen
data_Pr2Mn3(SbS3)4
_symmetry_space_group_name_H-M   'P 1'
_cell_length_a   20.02960800
_cell_length_b   3.90410600
_cell_length_c   14.95364829
_cell_angle_alpha   90.00000000
_cell_angle_beta   126.33350609
_cell_angle_gamma   90.00000000
_symmetry_Int_Tables_number   1
_chemical_formula_structural   Pr2Mn3(SbS3)4
_chemical_formula_sum   'Pr4 Mn6 Sb8 S24'
_cell_volume   942.00006694
_cell_formula_units_Z   2
loop_
 _symmetry_equiv_pos_site_id
 _symmetry_equiv_pos_as_xyz
  1  'x, y, z'
loop_
 _atom_site_type_symbol
 _atom_site_label
 _atom_site_symmetry_multiplicity
 _atom_site_fract_x
 _atom_site_fract_y
 _atom_site_fract_z
 _atom_site_occupancy
  Pr  Pr0  1  0.27792273  0.48052462  0.88599782  1
  Pr  Pr1  1  0.73170368  0.50787959  0.13900741  1
  Pr  Pr2  1  0.76313479  0.06487834  0.86932394  1
  Pr  Pr3  1  0.23122386  0.91976172  0.12231209  1
  Mn  Mn4  1  0.30079224  0.40271614  0.60686163  1
  Mn  Mn5  1  0.69059472  0.48982128  0.36048748  1
  Mn  Mn6  1  0.00569416  0.94346119  0.00746971  1
  Mn  Mn7  1  0.79566474  0.97034486  0.63306044  1
  Mn  Mn8  1  0.21762111  0.03307997  0.41069619  1
  Mn  Mn9  1  0.47993995  0.49037920  0.97369528  1
  Sb  Sb10  1  0.88560226  0.89324283  0.46123561  1
  Sb  Sb11  1  0.11952922  0.97077831  0.54573119  1
  Sb  Sb12  1  0.03428251  0.52271180  0.82910029  1
  Sb  Sb13  1  0.96747507  0.46562740  0.20248047  1
  Sb  Sb14  1  0.41134416  0.58628031  0.46146352  1
  Sb  Sb15  1  0.60505885  0.53507986  0.53671503  1
  Sb  Sb16  1  0.53114219  0.94055137  0.79747893  1
  Sb  Sb17  1  0.46760941  0.98593993  0.18059177  1
  S  S18  1  0.92351432  0.00948554  0.78831463  1
  S  S19  1  0.05445958  0.98092950  0.19772169  1
  S  S20  1  0.41499911  0.00655984  0.97428726  1
  S  S21  1  0.58025461  0.02844686  0.99517687  1
  S  S22  1  0.17333817  0.93633107  0.90307105  1
  S  S23  1  0.83266213  0.02346002  0.11627186  1
  S  S24  1  0.10859371  0.47776516  0.64925295  1
  S  S25  1  0.89217930  0.43717802  0.34394987  1
  S  S26  1  0.73384546  0.96499255  0.31606028  1
  S  S27  1  0.26746155  0.95425168  0.67981250  1
  S  S28  1  0.17643508  0.50320545  0.45315512  1
  S  S29  1  0.81330946  0.54959488  0.54265824  1
  S  S30  1  0.43010330  0.44905809  0.78926066  1
  S  S31  1  0.56536592  0.48927487  0.20049478  1
  S  S32  1  0.92165700  0.48794243  0.99815524  1
  S  S33  1  0.08914176  0.43903648  0.04054549  1
  S  S34  1  0.67914276  0.56586863  0.91508629  1
  S  S35  1  0.33150185  0.41773988  0.11214564  1
  S  S36  1  0.59874094  0.02305060  0.64417669  1
  S  S37  1  0.40135777  0.01514151  0.33446618  1
  S  S38  1  0.25023578  0.53025732  0.33272621  1
  S  S39  1  0.75716739  0.52603955  0.67959110  1
  S  S40  1  0.66265518  0.91237301  0.44185454  1
  S  S41  1  0.34165776  0.91878919  0.56377185  1
