# generated using pymatgen
data_Pr2Mn3(SbS3)4
_symmetry_space_group_name_H-M   'P 1'
_cell_length_a   20.02960800
_cell_length_b   3.90410600
_cell_length_c   14.95364829
_cell_angle_alpha   90.00000000
_cell_angle_beta   126.33350609
_cell_angle_gamma   90.00000000
_symmetry_Int_Tables_number   1
_chemical_formula_structural   Pr2Mn3(SbS3)4
_chemical_formula_sum   'Pr4 Mn6 Sb8 S24'
_cell_volume   942.00006694
_cell_formula_units_Z   2
loop_
 _symmetry_equiv_pos_site_id
 _symmetry_equiv_pos_as_xyz
  1  'x, y, z'
loop_
 _atom_site_type_symbol
 _atom_site_label
 _atom_site_symmetry_multiplicity
 _atom_site_fract_x
 _atom_site_fract_y
 _atom_site_fract_z
 _atom_site_occupancy
  Pr  Pr0  1  0.27796346  0.48101201  0.88597330  1
  Pr  Pr1  1  0.73180662  0.50807865  0.13918753  1
  Pr  Pr2  1  0.76315047  0.06480635  0.86937240  1
  Pr  Pr3  1  0.23125688  0.91947005  0.12228573  1
  Mn  Mn4  1  0.30089810  0.40344995  0.60719219  1
  Mn  Mn5  1  0.69064713  0.49065147  0.36052843  1
  Mn  Mn6  1  0.00580251  0.94348703  0.00774652  1
  Mn  Mn7  1  0.79574292  0.97042593  0.63291076  1
  Mn  Mn8  1  0.21749041  0.03295977  0.41038756  1
  Mn  Mn9  1  0.47978857  0.49004572  0.97355560  1
  Sb  Sb10  1  0.88568431  0.89356903  0.46140198  1
  Sb  Sb11  1  0.11952686  0.97096388  0.54562231  1
  Sb  Sb12  1  0.03433703  0.52289284  0.82912094  1
  Sb  Sb13  1  0.96739754  0.46568079  0.20254153  1
  Sb  Sb14  1  0.41131393  0.58643287  0.46158728  1
  Sb  Sb15  1  0.60497684  0.53557528  0.53683469  1
  Sb  Sb16  1  0.53127393  0.94065499  0.79762981  1
  Sb  Sb17  1  0.46762167  0.98581468  0.18055891  1
  S  S18  1  0.92364137  0.00887158  0.78849297  1
  S  S19  1  0.05465202  0.98131707  0.19761755  1
  S  S20  1  0.41502903  0.00682305  0.97451945  1
  S  S21  1  0.58033587  0.02744896  0.99530914  1
  S  S22  1  0.17342389  0.93578953  0.90275593  1
  S  S23  1  0.83292502  0.02364527  0.11638962  1
  S  S24  1  0.10891787  0.47812047  0.64939254  1
  S  S25  1  0.89221755  0.43728454  0.34408278  1
  S  S26  1  0.73413078  0.96478524  0.31635758  1
  S  S27  1  0.26729065  0.95307504  0.67949689  1
  S  S28  1  0.17629045  0.50326403  0.45314876  1
  S  S29  1  0.81309538  0.54895569  0.54250472  1
  S  S30  1  0.42990547  0.44851448  0.78896038  1
  S  S31  1  0.56508823  0.48924489  0.20015528  1
  S  S32  1  0.92139367  0.48760149  0.99799581  1
  S  S33  1  0.08922052  0.43948175  0.04118226  1
  S  S34  1  0.67932748  0.56565999  0.91506198  1
  S  S35  1  0.33164027  0.41745992  0.11234017  1
  S  S36  1  0.59862062  0.02233696  0.64422356  1
  S  S37  1  0.40118483  0.01552545  0.33425395  1
  S  S38  1  0.25015345  0.53007397  0.33264470  1
  S  S39  1  0.75704849  0.52584435  0.67967408  1
  S  S40  1  0.66296017  0.91278581  0.44215532  1
  S  S41  1  0.34166480  0.91963467  0.56375114  1
