# generated using pymatgen
data_Pr2Mn3(SbS3)4
_symmetry_space_group_name_H-M   'P 1'
_cell_length_a   20.02960800
_cell_length_b   3.90410600
_cell_length_c   14.95364829
_cell_angle_alpha   90.00000000
_cell_angle_beta   126.33350609
_cell_angle_gamma   90.00000000
_symmetry_Int_Tables_number   1
_chemical_formula_structural   Pr2Mn3(SbS3)4
_chemical_formula_sum   'Pr4 Mn6 Sb8 S24'
_cell_volume   942.00006694
_cell_formula_units_Z   2
loop_
 _symmetry_equiv_pos_site_id
 _symmetry_equiv_pos_as_xyz
  1  'x, y, z'
loop_
 _atom_site_type_symbol
 _atom_site_label
 _atom_site_symmetry_multiplicity
 _atom_site_fract_x
 _atom_site_fract_y
 _atom_site_fract_z
 _atom_site_occupancy
  Pr  Pr0  1  0.27795984  0.48144692  0.88597413  1
  Pr  Pr1  1  0.73192483  0.50835165  0.13937681  1
  Pr  Pr2  1  0.76318525  0.06481919  0.86942309  1
  Pr  Pr3  1  0.23126438  0.91923975  0.12217924  1
  Mn  Mn4  1  0.30095208  0.40407670  0.60749882  1
  Mn  Mn5  1  0.69068317  0.49138445  0.36052717  1
  Mn  Mn6  1  0.00585345  0.94367759  0.00785947  1
  Mn  Mn7  1  0.79588171  0.97038523  0.63280161  1
  Mn  Mn8  1  0.21740860  0.03301325  0.41007041  1
  Mn  Mn9  1  0.47956798  0.48979121  0.97340308  1
  Sb  Sb10  1  0.88584979  0.89358946  0.46158112  1
  Sb  Sb11  1  0.11949236  0.97104696  0.54548650  1
  Sb  Sb12  1  0.03443470  0.52307962  0.82920295  1
  Sb  Sb13  1  0.96737054  0.46572743  0.20258043  1
  Sb  Sb14  1  0.41129685  0.58675859  0.46172915  1
  Sb  Sb15  1  0.60491186  0.53611196  0.53694875  1
  Sb  Sb16  1  0.53134004  0.94091294  0.79776624  1
  Sb  Sb17  1  0.46764868  0.98570525  0.18051103  1
  S  S18  1  0.92380714  0.00823181  0.78866863  1
  S  S19  1  0.05480338  0.98184015  0.19758218  1
  S  S20  1  0.41510475  0.00709373  0.97467668  1
  S  S21  1  0.58046991  0.02639720  0.99570948  1
  S  S22  1  0.17341508  0.93525471  0.90232753  1
  S  S23  1  0.83311184  0.02384982  0.11644697  1
  S  S24  1  0.10920436  0.47838601  0.64952171  1
  S  S25  1  0.89233565  0.43723208  0.34427413  1
  S  S26  1  0.73432178  0.96460335  0.31650995  1
  S  S27  1  0.26713195  0.95241437  0.67917582  1
  S  S28  1  0.17620373  0.50300782  0.45318903  1
  S  S29  1  0.81279476  0.54831377  0.54224477  1
  S  S30  1  0.42976103  0.44753630  0.78871334  1
  S  S31  1  0.56487293  0.48919509  0.19991303  1
  S  S32  1  0.92106804  0.48717965  0.99786966  1
  S  S33  1  0.08920847  0.43950730  0.04183311  1
  S  S34  1  0.67948581  0.56580268  0.91499549  1
  S  S35  1  0.33161943  0.41718606  0.11244794  1
  S  S36  1  0.59844185  0.02118114  0.64426905  1
  S  S37  1  0.40108536  0.01575975  0.33420040  1
  S  S38  1  0.25003443  0.52975180  0.33249479  1
  S  S39  1  0.75696725  0.52574177  0.67979972  1
  S  S40  1  0.66321227  0.91360171  0.44256511  1
  S  S41  1  0.34167894  0.92016910  0.56383551  1
