# generated using pymatgen
data_Pr2Mn3(SbS3)4
_symmetry_space_group_name_H-M   'P 1'
_cell_length_a   20.02960800
_cell_length_b   3.90410600
_cell_length_c   14.95364829
_cell_angle_alpha   90.00000000
_cell_angle_beta   126.33350609
_cell_angle_gamma   90.00000000
_symmetry_Int_Tables_number   1
_chemical_formula_structural   Pr2Mn3(SbS3)4
_chemical_formula_sum   'Pr4 Mn6 Sb8 S24'
_cell_volume   942.00006694
_cell_formula_units_Z   2
loop_
 _symmetry_equiv_pos_site_id
 _symmetry_equiv_pos_as_xyz
  1  'x, y, z'
loop_
 _atom_site_type_symbol
 _atom_site_label
 _atom_site_symmetry_multiplicity
 _atom_site_fract_x
 _atom_site_fract_y
 _atom_site_fract_z
 _atom_site_occupancy
  Pr  Pr0  1  0.27797094  0.48178019  0.88590079  1
  Pr  Pr1  1  0.73203689  0.50847279  0.13956144  1
  Pr  Pr2  1  0.76322259  0.06483616  0.86945180  1
  Pr  Pr3  1  0.23127101  0.91927250  0.12211239  1
  Mn  Mn4  1  0.30093635  0.40496286  0.60767939  1
  Mn  Mn5  1  0.69081132  0.49225788  0.36062650  1
  Mn  Mn6  1  0.00593125  0.94372424  0.00796989  1
  Mn  Mn7  1  0.79600235  0.96995541  0.63274925  1
  Mn  Mn8  1  0.21729277  0.03297825  0.40980119  1
  Mn  Mn9  1  0.47926841  0.48936109  0.97315964  1
  Sb  Sb10  1  0.88601747  0.89364088  0.46173325  1
  Sb  Sb11  1  0.11944543  0.97126634  0.54531905  1
  Sb  Sb12  1  0.03449644  0.52303550  0.82924055  1
  Sb  Sb13  1  0.96727424  0.46594992  0.20258140  1
  Sb  Sb14  1  0.41126567  0.58715114  0.46187803  1
  Sb  Sb15  1  0.60483809  0.53665732  0.53701270  1
  Sb  Sb16  1  0.53140096  0.94112502  0.79787486  1
  Sb  Sb17  1  0.46768928  0.98536627  0.18050347  1
  S  S18  1  0.92399830  0.00777145  0.78902834  1
  S  S19  1  0.05482159  0.98246496  0.19731015  1
  S  S20  1  0.41516134  0.00752185  0.97484018  1
  S  S21  1  0.58068346  0.02535134  0.99610818  1
  S  S22  1  0.17336462  0.93406537  0.90196012  1
  S  S23  1  0.83339769  0.02437334  0.11672255  1
  S  S24  1  0.10944572  0.47865903  0.64970043  1
  S  S25  1  0.89239043  0.43684382  0.34433983  1
  S  S26  1  0.73456672  0.96426826  0.31655097  1
  S  S27  1  0.26709307  0.95179896  0.67904213  1
  S  S28  1  0.17603311  0.50282442  0.45310695  1
  S  S29  1  0.81252497  0.54729401  0.54211110  1
  S  S30  1  0.42957058  0.44653452  0.78845211  1
  S  S31  1  0.56458789  0.48970191  0.19946592  1
  S  S32  1  0.92080916  0.48718200  0.99778827  1
  S  S33  1  0.08924318  0.43974719  0.04239831  1
  S  S34  1  0.67958123  0.56630583  0.91480485  1
  S  S35  1  0.33149418  0.41690492  0.11263416  1
  S  S36  1  0.59813377  0.02047687  0.64422822  1
  S  S37  1  0.40102346  0.01614889  0.33414162  1
  S  S38  1  0.24991498  0.52957948  0.33225541  1
  S  S39  1  0.75697030  0.52596251  0.68008741  1
  S  S40  1  0.66344662  0.91460596  0.44300755  1
  S  S41  1  0.34166736  0.92102931  0.56383462  1
