# generated using pymatgen
data_Pr2Mn3(SbS3)4
_symmetry_space_group_name_H-M   'P 1'
_cell_length_a   20.02960800
_cell_length_b   3.90410600
_cell_length_c   14.95364829
_cell_angle_alpha   90.00000000
_cell_angle_beta   126.33350609
_cell_angle_gamma   90.00000000
_symmetry_Int_Tables_number   1
_chemical_formula_structural   Pr2Mn3(SbS3)4
_chemical_formula_sum   'Pr4 Mn6 Sb8 S24'
_cell_volume   942.00006694
_cell_formula_units_Z   2
loop_
 _symmetry_equiv_pos_site_id
 _symmetry_equiv_pos_as_xyz
  1  'x, y, z'
loop_
 _atom_site_type_symbol
 _atom_site_label
 _atom_site_symmetry_multiplicity
 _atom_site_fract_x
 _atom_site_fract_y
 _atom_site_fract_z
 _atom_site_occupancy
  Pr  Pr0  1  0.27796467  0.48209453  0.88574910  1
  Pr  Pr1  1  0.73214954  0.50858612  0.13968725  1
  Pr  Pr2  1  0.76326533  0.06487879  0.86952564  1
  Pr  Pr3  1  0.23134426  0.91919444  0.12217785  1
  Mn  Mn4  1  0.30089678  0.40520375  0.60783760  1
  Mn  Mn5  1  0.69103483  0.49344612  0.36089958  1
  Mn  Mn6  1  0.00601040  0.94392908  0.00819403  1
  Mn  Mn7  1  0.79614749  0.96940924  0.63279424  1
  Mn  Mn8  1  0.21714248  0.03300008  0.40954700  1
  Mn  Mn9  1  0.47899081  0.48912774  0.97295442  1
  Sb  Sb10  1  0.88617879  0.89371310  0.46184725  1
  Sb  Sb11  1  0.11939695  0.97156676  0.54521684  1
  Sb  Sb12  1  0.03457860  0.52315665  0.82929487  1
  Sb  Sb13  1  0.96717996  0.46603762  0.20253048  1
  Sb  Sb14  1  0.41125748  0.58741821  0.46197829  1
  Sb  Sb15  1  0.60474973  0.53739237  0.53705343  1
  Sb  Sb16  1  0.53140926  0.94149533  0.79787875  1
  Sb  Sb17  1  0.46770116  0.98496696  0.18046230  1
  S  S18  1  0.92419100  0.00752387  0.78934260  1
  S  S19  1  0.05480529  0.98328944  0.19703313  1
  S  S20  1  0.41510480  0.00758281  0.97467088  1
  S  S21  1  0.58077993  0.02429573  0.99640363  1
  S  S22  1  0.17319873  0.93298661  0.90144441  1
  S  S23  1  0.83370570  0.02499331  0.11707999  1
  S  S24  1  0.10973326  0.47920126  0.64995960  1
  S  S25  1  0.89249143  0.43651144  0.34442508  1
  S  S26  1  0.73466422  0.96418449  0.31650720  1
  S  S27  1  0.26711269  0.95161819  0.67888934  1
  S  S28  1  0.17588591  0.50209207  0.45294141  1
  S  S29  1  0.81233161  0.54598958  0.54204818  1
  S  S30  1  0.42937586  0.44621198  0.78820345  1
  S  S31  1  0.56433815  0.49026059  0.19911451  1
  S  S32  1  0.92050495  0.48713969  0.99761312  1
  S  S33  1  0.08929986  0.43997234  0.04289857  1
  S  S34  1  0.67962622  0.56706763  0.91452340  1
  S  S35  1  0.33145327  0.41648742  0.11282401  1
  S  S36  1  0.59789604  0.01974568  0.64420385  1
  S  S37  1  0.40103018  0.01636546  0.33418980  1
  S  S38  1  0.24985729  0.52917635  0.33219301  1
  S  S39  1  0.75702994  0.52637311  0.68040691  1
  S  S40  1  0.66367411  0.91572135  0.44353342  1
  S  S41  1  0.34156446  0.92153347  0.56377057  1
