# generated using pymatgen
data_Pr2Mn3(SbS3)4
_symmetry_space_group_name_H-M   'P 1'
_cell_length_a   20.02960800
_cell_length_b   3.90410600
_cell_length_c   14.95364829
_cell_angle_alpha   90.00000000
_cell_angle_beta   126.33350609
_cell_angle_gamma   90.00000000
_symmetry_Int_Tables_number   1
_chemical_formula_structural   Pr2Mn3(SbS3)4
_chemical_formula_sum   'Pr4 Mn6 Sb8 S24'
_cell_volume   942.00006694
_cell_formula_units_Z   2
loop_
 _symmetry_equiv_pos_site_id
 _symmetry_equiv_pos_as_xyz
  1  'x, y, z'
loop_
 _atom_site_type_symbol
 _atom_site_label
 _atom_site_symmetry_multiplicity
 _atom_site_fract_x
 _atom_site_fract_y
 _atom_site_fract_z
 _atom_site_occupancy
  Pr  Pr0  1  0.27792407  0.48245655  0.88558944  1
  Pr  Pr1  1  0.73226753  0.50862631  0.13986075  1
  Pr  Pr2  1  0.76333943  0.06501567  0.86964603  1
  Pr  Pr3  1  0.23142795  0.91928110  0.12220337  1
  Mn  Mn4  1  0.30066300  0.40554263  0.60788937  1
  Mn  Mn5  1  0.69121049  0.49462313  0.36117743  1
  Mn  Mn6  1  0.00609184  0.94420788  0.00851993  1
  Mn  Mn7  1  0.79619953  0.96890108  0.63281380  1
  Mn  Mn8  1  0.21697051  0.03284867  0.40937756  1
  Mn  Mn9  1  0.47873888  0.48876280  0.97272219  1
  Sb  Sb10  1  0.88635197  0.89370750  0.46191439  1
  Sb  Sb11  1  0.11936422  0.97172732  0.54512084  1
  Sb  Sb12  1  0.03467147  0.52326148  0.82934436  1
  Sb  Sb13  1  0.96717816  0.46608029  0.20263072  1
  Sb  Sb14  1  0.41121178  0.58735253  0.46210192  1
  Sb  Sb15  1  0.60462643  0.53801834  0.53702431  1
  Sb  Sb16  1  0.53150396  0.94191593  0.79790678  1
  Sb  Sb17  1  0.46774497  0.98438378  0.18045460  1
  S  S18  1  0.92448641  0.00737925  0.78968065  1
  S  S19  1  0.05481315  0.98432652  0.19668710  1
  S  S20  1  0.41499393  0.00799215  0.97467315  1
  S  S21  1  0.58072637  0.02324222  0.99664527  1
  S  S22  1  0.17306225  0.93222372  0.90092531  1
  S  S23  1  0.83393907  0.02540726  0.11733089  1
  S  S24  1  0.11005277  0.47998644  0.65014046  1
  S  S25  1  0.89261387  0.43653928  0.34465120  1
  S  S26  1  0.73473855  0.96368156  0.31646262  1
  S  S27  1  0.26712363  0.95169836  0.67873014  1
  S  S28  1  0.17583941  0.50088929  0.45297532  1
  S  S29  1  0.81213537  0.54557015  0.54188894  1
  S  S30  1  0.42927204  0.44561644  0.78812939  1
  S  S31  1  0.56424755  0.49082507  0.19890759  1
  S  S32  1  0.92023571  0.48724532  0.99746015  1
  S  S33  1  0.08924374  0.44060403  0.04332836  1
  S  S34  1  0.67953081  0.56762001  0.91416565  1
  S  S35  1  0.33146139  0.41599540  0.11288148  1
  S  S36  1  0.59774289  0.01930385  0.64433900  1
  S  S37  1  0.40106920  0.01703362  0.33457748  1
  S  S38  1  0.24967826  0.52878112  0.33208172  1
  S  S39  1  0.75713776  0.52690272  0.68082268  1
  S  S40  1  0.66391985  0.91690952  0.44397292  1
  S  S41  1  0.34142287  0.92232820  0.56363072  1
