# generated using pymatgen
data_Pr2Mn3(SbS3)4
_symmetry_space_group_name_H-M   'P 1'
_cell_length_a   20.02960800
_cell_length_b   3.90410600
_cell_length_c   14.95364829
_cell_angle_alpha   90.00000000
_cell_angle_beta   126.33350609
_cell_angle_gamma   90.00000000
_symmetry_Int_Tables_number   1
_chemical_formula_structural   Pr2Mn3(SbS3)4
_chemical_formula_sum   'Pr4 Mn6 Sb8 S24'
_cell_volume   942.00006694
_cell_formula_units_Z   2
loop_
 _symmetry_equiv_pos_site_id
 _symmetry_equiv_pos_as_xyz
  1  'x, y, z'
loop_
 _atom_site_type_symbol
 _atom_site_label
 _atom_site_symmetry_multiplicity
 _atom_site_fract_x
 _atom_site_fract_y
 _atom_site_fract_z
 _atom_site_occupancy
  Pr  Pr0  1  0.27790016  0.48275701  0.88544196  1
  Pr  Pr1  1  0.73240185  0.50854716  0.14001197  1
  Pr  Pr2  1  0.76335877  0.06516663  0.86972506  1
  Pr  Pr3  1  0.23148452  0.91928668  0.12223637  1
  Mn  Mn4  1  0.30037178  0.40562865  0.60780510  1
  Mn  Mn5  1  0.69126357  0.49587783  0.36136205  1
  Mn  Mn6  1  0.00616460  0.94462135  0.00884294  1
  Mn  Mn7  1  0.79617840  0.96818996  0.63273636  1
  Mn  Mn8  1  0.21679986  0.03268788  0.40914324  1
  Mn  Mn9  1  0.47840938  0.48834276  0.97240794  1
  Sb  Sb10  1  0.88653138  0.89360188  0.46202511  1
  Sb  Sb11  1  0.11932818  0.97196117  0.54504170  1
  Sb  Sb12  1  0.03469004  0.52343684  0.82936931  1
  Sb  Sb13  1  0.96712230  0.46608156  0.20269976  1
  Sb  Sb14  1  0.41116905  0.58712068  0.46232821  1
  Sb  Sb15  1  0.60450360  0.53863384  0.53698405  1
  Sb  Sb16  1  0.53149252  0.94204313  0.79787819  1
  Sb  Sb17  1  0.46776771  0.98377590  0.18044899  1
  S  S18  1  0.92469140  0.00692589  0.79000108  1
  S  S19  1  0.05479449  0.98615034  0.19636487  1
  S  S20  1  0.41494560  0.00840714  0.97465629  1
  S  S21  1  0.58065482  0.02233892  0.99677538  1
  S  S22  1  0.17292448  0.93116206  0.90044920  1
  S  S23  1  0.83418309  0.02604373  0.11746145  1
  S  S24  1  0.11031225  0.47995896  0.65029340  1
  S  S25  1  0.89279024  0.43613302  0.34496614  1
  S  S26  1  0.73473944  0.96319216  0.31617000  1
  S  S27  1  0.26715680  0.95187653  0.67855388  1
  S  S28  1  0.17561918  0.49950424  0.45298031  1
  S  S29  1  0.81185476  0.54505484  0.54165359  1
  S  S30  1  0.42928057  0.44504732  0.78808351  1
  S  S31  1  0.56417698  0.49124749  0.19876546  1
  S  S32  1  0.91994216  0.48792763  0.99738112  1
  S  S33  1  0.08911240  0.44117161  0.04360865  1
  S  S34  1  0.67944443  0.56818562  0.91383190  1
  S  S35  1  0.33145087  0.41569989  0.11285377  1
  S  S36  1  0.59762695  0.01927830  0.64443863  1
  S  S37  1  0.40112152  0.01759299  0.33512553  1
  S  S38  1  0.24957575  0.52817027  0.33216690  1
  S  S39  1  0.75723740  0.52736589  0.68120720  1
  S  S40  1  0.66409888  0.91797118  0.44432992  1
  S  S41  1  0.34125026  0.92302917  0.56354557  1
