# generated using pymatgen
data_Pr2Mn3(SbS3)4
_symmetry_space_group_name_H-M   'P 1'
_cell_length_a   20.02960800
_cell_length_b   3.90410600
_cell_length_c   14.95364829
_cell_angle_alpha   90.00000000
_cell_angle_beta   126.33350609
_cell_angle_gamma   90.00000000
_symmetry_Int_Tables_number   1
_chemical_formula_structural   Pr2Mn3(SbS3)4
_chemical_formula_sum   'Pr4 Mn6 Sb8 S24'
_cell_volume   942.00006694
_cell_formula_units_Z   2
loop_
 _symmetry_equiv_pos_site_id
 _symmetry_equiv_pos_as_xyz
  1  'x, y, z'
loop_
 _atom_site_type_symbol
 _atom_site_label
 _atom_site_symmetry_multiplicity
 _atom_site_fract_x
 _atom_site_fract_y
 _atom_site_fract_z
 _atom_site_occupancy
  Pr  Pr0  1  0.26472017  0.47545088  0.86933759  1
  Pr  Pr1  1  0.73796925  0.51548553  0.13670334  1
  Pr  Pr2  1  0.76383167  0.01262712  0.86395430  1
  Pr  Pr3  1  0.23613922  0.00119442  0.13867567  1
  Mn  Mn4  1  0.29234472  0.48615239  0.60353728  1
  Mn  Mn5  1  0.69419334  0.52818022  0.37982269  1
  Mn  Mn6  1  0.00551592  0.99443065  0.00348950  1
  Mn  Mn7  1  0.80278683  0.00082576  0.61547798  1
  Mn  Mn8  1  0.19481214  0.97179974  0.37766137  1
  Mn  Mn9  1  0.50138154  0.46706283  0.99276013  1
  Sb  Sb10  1  0.89012834  0.99557859  0.45273013  1
  Sb  Sb11  1  0.11167795  0.96390584  0.55219112  1
  Sb  Sb12  1  0.03997383  0.51306616  0.81758444  1
  Sb  Sb13  1  0.96257276  0.52119754  0.18683473  1
  Sb  Sb14  1  0.39870541  0.50316115  0.45837788  1
  Sb  Sb15  1  0.60607020  0.48376918  0.54680456  1
  Sb  Sb16  1  0.53404325  0.01093384  0.81246524  1
  Sb  Sb17  1  0.46198540  0.00768390  0.18258681  1
  S  S18  1  0.93773074  0.97286348  0.80396389  1
  S  S19  1  0.06592201  0.97536092  0.18752609  1
  S  S20  1  0.41032855  0.01599995  0.97885044  1
  S  S21  1  0.59296443  0.99948813  0.02644568  1
  S  S22  1  0.17363935  0.98478564  0.89501027  1
  S  S23  1  0.82494730  0.01564180  0.09739812  1
  S  S24  1  0.08613549  0.46305706  0.64582816  1
  S  S25  1  0.91225704  0.48382682  0.35835116  1
  S  S26  1  0.74084956  0.95835992  0.29848303  1
  S  S27  1  0.25852691  0.99552001  0.70426355  1
  S  S28  1  0.17041941  0.49092746  0.44705131  1
  S  S29  1  0.82870075  0.48697365  0.54994049  1
  S  S30  1  0.43243223  0.49900191  0.79852811  1
  S  S31  1  0.56170896  0.52451795  0.18635063  1
  S  S32  1  0.91146778  0.49970265  0.99190610  1
  S  S33  1  0.08267563  0.49744389  0.01508562  1
  S  S34  1  0.66488692  0.48963592  0.88819400  1
  S  S35  1  0.32748538  0.51793711  0.09542590  1
  S  S36  1  0.59321955  0.00499337  0.65610315  1
  S  S37  1  0.40645394  0.97265432  0.34480988  1
  S  S38  1  0.24420873  0.46828735  0.30778241  1
  S  S39  1  0.76156308  0.50563758  0.70024703  1
  S  S40  1  0.67408980  0.02522847  0.45904099  1
  S  S41  1  0.32815806  0.98380982  0.54199868  1
