# generated using pymatgen
data_Pr2Mn3(SbS3)4
_symmetry_space_group_name_H-M   'P 1'
_cell_length_a   20.02960800
_cell_length_b   3.90410600
_cell_length_c   14.95364829
_cell_angle_alpha   90.00000000
_cell_angle_beta   126.33350609
_cell_angle_gamma   90.00000000
_symmetry_Int_Tables_number   1
_chemical_formula_structural   Pr2Mn3(SbS3)4
_chemical_formula_sum   'Pr4 Mn6 Sb8 S24'
_cell_volume   942.00006694
_cell_formula_units_Z   2
loop_
 _symmetry_equiv_pos_site_id
 _symmetry_equiv_pos_as_xyz
  1  'x, y, z'
loop_
 _atom_site_type_symbol
 _atom_site_label
 _atom_site_symmetry_multiplicity
 _atom_site_fract_x
 _atom_site_fract_y
 _atom_site_fract_z
 _atom_site_occupancy
  Pr  Pr0  1  0.27791145  0.48321038  0.88527669  1
  Pr  Pr1  1  0.73254086  0.50848120  0.14018513  1
  Pr  Pr2  1  0.76335802  0.06519762  0.86976296  1
  Pr  Pr3  1  0.23155777  0.91926123  0.12222882  1
  Mn  Mn4  1  0.30004459  0.40602782  0.60764737  1
  Mn  Mn5  1  0.69139557  0.49662180  0.36159737  1
  Mn  Mn6  1  0.00620751  0.94514317  0.00917610  1
  Mn  Mn7  1  0.79626148  0.96738954  0.63282996  1
  Mn  Mn8  1  0.21663046  0.03266034  0.40882041  1
  Mn  Mn9  1  0.47810365  0.48818763  0.97208406  1
  Sb  Sb10  1  0.88669314  0.89362678  0.46209135  1
  Sb  Sb11  1  0.11926400  0.97237114  0.54495411  1
  Sb  Sb12  1  0.03471276  0.52385112  0.82936571  1
  Sb  Sb13  1  0.96712247  0.46627016  0.20281805  1
  Sb  Sb14  1  0.41117132  0.58721069  0.46260811  1
  Sb  Sb15  1  0.60438152  0.53926232  0.53699583  1
  Sb  Sb16  1  0.53145569  0.94185734  0.79782005  1
  Sb  Sb17  1  0.46772735  0.98311217  0.18033411  1
  S  S18  1  0.92484604  0.00700183  0.79032259  1
  S  S19  1  0.05485936  0.98780351  0.19605893  1
  S  S20  1  0.41473952  0.00888346  0.97449617  1
  S  S21  1  0.58062522  0.02177890  0.99695548  1
  S  S22  1  0.17281838  0.92989360  0.90006283  1
  S  S23  1  0.83433549  0.02676959  0.11736630  1
  S  S24  1  0.11058438  0.48007276  0.65049966  1
  S  S25  1  0.89294549  0.43583396  0.34525201  1
  S  S26  1  0.73465146  0.96318790  0.31578417  1
  S  S27  1  0.26722820  0.95218892  0.67844423  1
  S  S28  1  0.17535461  0.49861629  0.45289313  1
  S  S29  1  0.81147724  0.54477156  0.54123137  1
  S  S30  1  0.42932335  0.44433259  0.78817388  1
  S  S31  1  0.56414159  0.49166508  0.19873683  1
  S  S32  1  0.91968161  0.48824307  0.99729073  1
  S  S33  1  0.08905173  0.44151471  0.04379030  1
  S  S34  1  0.67940374  0.56849119  0.91355320  1
  S  S35  1  0.33138742  0.41563853  0.11277255  1
  S  S36  1  0.59765331  0.01975885  0.64470576  1
  S  S37  1  0.40115504  0.01788144  0.33562275  1
  S  S38  1  0.24945700  0.52742008  0.33228510  1
  S  S39  1  0.75736526  0.52757327  0.68169226  1
  S  S40  1  0.66429558  0.91893219  0.44463157  1
  S  S41  1  0.34107602  0.92377546  0.56351139  1
