# generated using pymatgen
data_Pr2Mn3(SbS3)4
_symmetry_space_group_name_H-M   'P 1'
_cell_length_a   20.02960800
_cell_length_b   3.90410600
_cell_length_c   14.95364829
_cell_angle_alpha   90.00000000
_cell_angle_beta   126.33350609
_cell_angle_gamma   90.00000000
_symmetry_Int_Tables_number   1
_chemical_formula_structural   Pr2Mn3(SbS3)4
_chemical_formula_sum   'Pr4 Mn6 Sb8 S24'
_cell_volume   942.00006694
_cell_formula_units_Z   2
loop_
 _symmetry_equiv_pos_site_id
 _symmetry_equiv_pos_as_xyz
  1  'x, y, z'
loop_
 _atom_site_type_symbol
 _atom_site_label
 _atom_site_symmetry_multiplicity
 _atom_site_fract_x
 _atom_site_fract_y
 _atom_site_fract_z
 _atom_site_occupancy
  Pr  Pr0  1  0.27794160  0.48372496  0.88513785  1
  Pr  Pr1  1  0.73263497  0.50862996  0.14036146  1
  Pr  Pr2  1  0.76329683  0.06502346  0.86975256  1
  Pr  Pr3  1  0.23169472  0.91923953  0.12226723  1
  Mn  Mn4  1  0.29977803  0.40611590  0.60755714  1
  Mn  Mn5  1  0.69151775  0.49762456  0.36171177  1
  Mn  Mn6  1  0.00626480  0.94542359  0.00959851  1
  Mn  Mn7  1  0.79632263  0.96687684  0.63292255  1
  Mn  Mn8  1  0.21642525  0.03243750  0.40843750  1
  Mn  Mn9  1  0.47785644  0.48838061  0.97185871  1
  Sb  Sb10  1  0.88684314  0.89362549  0.46215917  1
  Sb  Sb11  1  0.11924096  0.97267380  0.54483281  1
  Sb  Sb12  1  0.03483588  0.52385382  0.82948784  1
  Sb  Sb13  1  0.96712787  0.46638916  0.20286300  1
  Sb  Sb14  1  0.41110991  0.58704588  0.46282554  1
  Sb  Sb15  1  0.60433697  0.53974632  0.53705214  1
  Sb  Sb16  1  0.53144202  0.94156378  0.79787875  1
  Sb  Sb17  1  0.46776486  0.98262393  0.18033875  1
  S  S18  1  0.92500414  0.00678060  0.79047162  1
  S  S19  1  0.05502594  0.98915915  0.19593438  1
  S  S20  1  0.41464426  0.00897017  0.97436488  1
  S  S21  1  0.58047586  0.02166532  0.99705239  1
  S  S22  1  0.17268296  0.92891636  0.89972799  1
  S  S23  1  0.83446205  0.02754495  0.11717984  1
  S  S24  1  0.11088388  0.48047484  0.65074336  1
  S  S25  1  0.89315084  0.43615976  0.34554393  1
  S  S26  1  0.73453343  0.96313230  0.31542990  1
  S  S27  1  0.26727165  0.95223807  0.67824267  1
  S  S28  1  0.17514203  0.49809372  0.45301773  1
  S  S29  1  0.81112445  0.54402794  0.54092218  1
  S  S30  1  0.42938778  0.44376473  0.78832492  1
  S  S31  1  0.56415890  0.49205468  0.19871340  1
  S  S32  1  0.91944943  0.48848525  0.99713031  1
  S  S33  1  0.08883223  0.44192694  0.04375973  1
  S  S34  1  0.67943732  0.56872991  0.91338255  1
  S  S35  1  0.33135432  0.41558448  0.11280661  1
  S  S36  1  0.59767156  0.02046947  0.64503651  1
  S  S37  1  0.40115136  0.01834602  0.33608914  1
  S  S38  1  0.24928843  0.52705662  0.33227779  1
  S  S39  1  0.75754295  0.52835916  0.68217077  1
  S  S40  1  0.66443854  0.91961407  0.44487612  1
  S  S41  1  0.34097502  0.92443733  0.56346972  1
