# generated using pymatgen
data_Pr2Mn3(SbS3)4
_symmetry_space_group_name_H-M   'P 1'
_cell_length_a   20.02960800
_cell_length_b   3.90410600
_cell_length_c   14.95364829
_cell_angle_alpha   90.00000000
_cell_angle_beta   126.33350609
_cell_angle_gamma   90.00000000
_symmetry_Int_Tables_number   1
_chemical_formula_structural   Pr2Mn3(SbS3)4
_chemical_formula_sum   'Pr4 Mn6 Sb8 S24'
_cell_volume   942.00006694
_cell_formula_units_Z   2
loop_
 _symmetry_equiv_pos_site_id
 _symmetry_equiv_pos_as_xyz
  1  'x, y, z'
loop_
 _atom_site_type_symbol
 _atom_site_label
 _atom_site_symmetry_multiplicity
 _atom_site_fract_x
 _atom_site_fract_y
 _atom_site_fract_z
 _atom_site_occupancy
  Pr  Pr0  1  0.27796620  0.48424696  0.88503302  1
  Pr  Pr1  1  0.73276037  0.50869323  0.14057372  1
  Pr  Pr2  1  0.76323907  0.06484119  0.86987326  1
  Pr  Pr3  1  0.23177119  0.91925212  0.12229744  1
  Mn  Mn4  1  0.29958443  0.40654732  0.60746324  1
  Mn  Mn5  1  0.69161762  0.49864234  0.36179634  1
  Mn  Mn6  1  0.00634390  0.94543972  0.00999930  1
  Mn  Mn7  1  0.79635723  0.96655572  0.63297261  1
  Mn  Mn8  1  0.21623002  0.03226742  0.40803551  1
  Mn  Mn9  1  0.47760563  0.48827879  0.97160481  1
  Sb  Sb10  1  0.88697875  0.89343974  0.46219774  1
  Sb  Sb11  1  0.11922470  0.97272359  0.54468018  1
  Sb  Sb12  1  0.03503981  0.52367650  0.82972093  1
  Sb  Sb13  1  0.96709151  0.46634926  0.20284038  1
  Sb  Sb14  1  0.41109772  0.58695084  0.46308800  1
  Sb  Sb15  1  0.60430499  0.53988642  0.53710925  1
  Sb  Sb16  1  0.53152858  0.94163794  0.79801245  1
  Sb  Sb17  1  0.46781002  0.98196311  0.18035421  1
  S  S18  1  0.92512995  0.00682935  0.79069797  1
  S  S19  1  0.05518110  0.99064483  0.19576536  1
  S  S20  1  0.41450052  0.00905265  0.97426861  1
  S  S21  1  0.58035373  0.02146527  0.99698515  1
  S  S22  1  0.17276075  0.92767763  0.89960427  1
  S  S23  1  0.83457534  0.02853922  0.11693221  1
  S  S24  1  0.11124348  0.48122215  0.65105642  1
  S  S25  1  0.89334182  0.43607884  0.34587737  1
  S  S26  1  0.73438581  0.96344717  0.31512562  1
  S  S27  1  0.26723610  0.95197934  0.67797932  1
  S  S28  1  0.17478990  0.49742337  0.45284285  1
  S  S29  1  0.81099151  0.54282260  0.54077507  1
  S  S30  1  0.42949521  0.44308449  0.78847295  1
  S  S31  1  0.56424370  0.49172668  0.19887590  1
  S  S32  1  0.91922748  0.48813843  0.99711513  1
  S  S33  1  0.08859295  0.44240529  0.04369338  1
  S  S34  1  0.67953926  0.56929551  0.91336107  1
  S  S35  1  0.33123143  0.41515282  0.11278574  1
  S  S36  1  0.59762271  0.02136088  0.64538042  1
  S  S37  1  0.40111498  0.01849230  0.33646568  1
  S  S38  1  0.24914887  0.52639875  0.33231814  1
  S  S39  1  0.75773051  0.52932082  0.68275550  1
  S  S40  1  0.66468877  0.91979593  0.44513978  1
  S  S41  1  0.34081526  0.92514690  0.56330671  1
