# generated using pymatgen
data_Pr2Mn3(SbS3)4
_symmetry_space_group_name_H-M   'P 1'
_cell_length_a   20.02960800
_cell_length_b   3.90410600
_cell_length_c   14.95364829
_cell_angle_alpha   90.00000000
_cell_angle_beta   126.33350609
_cell_angle_gamma   90.00000000
_symmetry_Int_Tables_number   1
_chemical_formula_structural   Pr2Mn3(SbS3)4
_chemical_formula_sum   'Pr4 Mn6 Sb8 S24'
_cell_volume   942.00006694
_cell_formula_units_Z   2
loop_
 _symmetry_equiv_pos_site_id
 _symmetry_equiv_pos_as_xyz
  1  'x, y, z'
loop_
 _atom_site_type_symbol
 _atom_site_label
 _atom_site_symmetry_multiplicity
 _atom_site_fract_x
 _atom_site_fract_y
 _atom_site_fract_z
 _atom_site_occupancy
  Pr  Pr0  1  0.27796699  0.48479496  0.88495308  1
  Pr  Pr1  1  0.73289094  0.50851625  0.14077321  1
  Pr  Pr2  1  0.76326068  0.06452652  0.86998096  1
  Pr  Pr3  1  0.23184268  0.91933818  0.12234014  1
  Mn  Mn4  1  0.29947161  0.40719212  0.60751171  1
  Mn  Mn5  1  0.69177507  0.49928153  0.36187001  1
  Mn  Mn6  1  0.00644665  0.94557690  0.01033195  1
  Mn  Mn7  1  0.79637683  0.96625200  0.63302621  1
  Mn  Mn8  1  0.21614166  0.03203782  0.40771658  1
  Mn  Mn9  1  0.47742823  0.48810698  0.97137659  1
  Sb  Sb10  1  0.88704835  0.89359006  0.46218177  1
  Sb  Sb11  1  0.11917561  0.97286320  0.54447801  1
  Sb  Sb12  1  0.03524420  0.52363483  0.82997368  1
  Sb  Sb13  1  0.96708844  0.46631398  0.20293244  1
  Sb  Sb14  1  0.41107841  0.58704715  0.46335112  1
  Sb  Sb15  1  0.60426368  0.54030900  0.53719501  1
  Sb  Sb16  1  0.53159704  0.94189684  0.79824383  1
  Sb  Sb17  1  0.46778525  0.98118917  0.18026384  1
  S  S18  1  0.92518504  0.00662965  0.79084833  1
  S  S19  1  0.05527760  0.99206294  0.19547500  1
  S  S20  1  0.41434678  0.00939583  0.97413060  1
  S  S21  1  0.58017418  0.02118157  0.99688470  1
  S  S22  1  0.17285307  0.92584836  0.89954483  1
  S  S23  1  0.83455092  0.02952225  0.11670987  1
  S  S24  1  0.11151641  0.48200552  0.65120641  1
  S  S25  1  0.89350375  0.43640194  0.34619851  1
  S  S26  1  0.73429687  0.96374199  0.31492771  1
  S  S27  1  0.26710993  0.95171500  0.67763135  1
  S  S28  1  0.17442217  0.49658868  0.45259523  1
  S  S29  1  0.81093672  0.54165567  0.54063804  1
  S  S30  1  0.42956731  0.44300979  0.78841736  1
  S  S31  1  0.56441020  0.49087562  0.19923097  1
  S  S32  1  0.91912534  0.48836191  0.99719310  1
  S  S33  1  0.08843587  0.44264648  0.04363947  1
  S  S34  1  0.67952019  0.56988847  0.91329563  1
  S  S35  1  0.33111316  0.41490459  0.11267743  1
  S  S36  1  0.59758814  0.02226206  0.64589276  1
  S  S37  1  0.40102124  0.01834266  0.33669995  1
  S  S38  1  0.24905321  0.52625954  0.33239161  1
  S  S39  1  0.75785867  0.52997463  0.68338778  1
  S  S40  1  0.66494606  0.92026942  0.44529581  1
  S  S41  1  0.34067650  0.92553059  0.56326597  1
