# generated using pymatgen
data_Pr2Mn3(SbS3)4
_symmetry_space_group_name_H-M   'P 1'
_cell_length_a   20.02960800
_cell_length_b   3.90410600
_cell_length_c   14.95364829
_cell_angle_alpha   90.00000000
_cell_angle_beta   126.33350609
_cell_angle_gamma   90.00000000
_symmetry_Int_Tables_number   1
_chemical_formula_structural   Pr2Mn3(SbS3)4
_chemical_formula_sum   'Pr4 Mn6 Sb8 S24'
_cell_volume   942.00006694
_cell_formula_units_Z   2
loop_
 _symmetry_equiv_pos_site_id
 _symmetry_equiv_pos_as_xyz
  1  'x, y, z'
loop_
 _atom_site_type_symbol
 _atom_site_label
 _atom_site_symmetry_multiplicity
 _atom_site_fract_x
 _atom_site_fract_y
 _atom_site_fract_z
 _atom_site_occupancy
  Pr  Pr0  1  0.27796084  0.48524060  0.88481876  1
  Pr  Pr1  1  0.73300584  0.50841310  0.14100780  1
  Pr  Pr2  1  0.76321019  0.06411413  0.87006752  1
  Pr  Pr3  1  0.23196914  0.91926479  0.12238783  1
  Mn  Mn4  1  0.29941132  0.40785758  0.60755013  1
  Mn  Mn5  1  0.69198545  0.49976888  0.36195468  1
  Mn  Mn6  1  0.00663441  0.94549742  0.01072877  1
  Mn  Mn7  1  0.79644911  0.96640440  0.63304782  1
  Mn  Mn8  1  0.21602910  0.03174217  0.40741460  1
  Mn  Mn9  1  0.47728242  0.48797980  0.97110768  1
  Sb  Sb10  1  0.88716320  0.89385554  0.46220470  1
  Sb  Sb11  1  0.11912858  0.97281989  0.54428031  1
  Sb  Sb12  1  0.03535237  0.52335973  0.83013811  1
  Sb  Sb13  1  0.96705228  0.46613000  0.20297534  1
  Sb  Sb14  1  0.41100790  0.58721768  0.46357872  1
  Sb  Sb15  1  0.60421522  0.54085644  0.53727435  1
  Sb  Sb16  1  0.53161413  0.94213360  0.79847348  1
  Sb  Sb17  1  0.46772786  0.98036833  0.18011159  1
  S  S18  1  0.92515506  0.00623717  0.79099854  1
  S  S19  1  0.05529899  0.99313071  0.19502363  1
  S  S20  1  0.41423074  0.00986349  0.97395357  1
  S  S21  1  0.58002375  0.02099788  0.99693181  1
  S  S22  1  0.17299961  0.92453172  0.89964548  1
  S  S23  1  0.83451766  0.03046220  0.11653495  1
  S  S24  1  0.11174871  0.48337532  0.65143850  1
  S  S25  1  0.89378914  0.43682616  0.34665465  1
  S  S26  1  0.73431807  0.96397474  0.31473721  1
  S  S27  1  0.26701450  0.95099582  0.67732781  1
  S  S28  1  0.17399639  0.49564858  0.45234306  1
  S  S29  1  0.81100662  0.54053774  0.54077267  1
  S  S30  1  0.42960099  0.44266769  0.78831189  1
  S  S31  1  0.56463909  0.49035814  0.19966691  1
  S  S32  1  0.91904381  0.48805797  0.99716283  1
  S  S33  1  0.08821092  0.44285999  0.04350387  1
  S  S34  1  0.67949328  0.57043162  0.91326316  1
  S  S35  1  0.33100795  0.41493812  0.11254855  1
  S  S36  1  0.59750451  0.02290206  0.64639309  1
  S  S37  1  0.40101477  0.01774872  0.33689665  1
  S  S38  1  0.24902892  0.52605670  0.33258451  1
  S  S39  1  0.75789758  0.53050578  0.68399230  1
  S  S40  1  0.66526178  0.92060692  0.44563983  1
  S  S41  1  0.34056843  0.92543714  0.56334140  1
