# generated using pymatgen
data_Pr2Mn3(SbS3)4
_symmetry_space_group_name_H-M   'P 1'
_cell_length_a   20.02960800
_cell_length_b   3.90410600
_cell_length_c   14.95364829
_cell_angle_alpha   90.00000000
_cell_angle_beta   126.33350609
_cell_angle_gamma   90.00000000
_symmetry_Int_Tables_number   1
_chemical_formula_structural   Pr2Mn3(SbS3)4
_chemical_formula_sum   'Pr4 Mn6 Sb8 S24'
_cell_volume   942.00006694
_cell_formula_units_Z   2
loop_
 _symmetry_equiv_pos_site_id
 _symmetry_equiv_pos_as_xyz
  1  'x, y, z'
loop_
 _atom_site_type_symbol
 _atom_site_label
 _atom_site_symmetry_multiplicity
 _atom_site_fract_x
 _atom_site_fract_y
 _atom_site_fract_z
 _atom_site_occupancy
  Pr  Pr0  1  0.27800585  0.48559812  0.88477649  1
  Pr  Pr1  1  0.73307878  0.50826086  0.14120625  1
  Pr  Pr2  1  0.76312217  0.06388795  0.87017923  1
  Pr  Pr3  1  0.23214592  0.91914097  0.12249364  1
  Mn  Mn4  1  0.29940830  0.40879129  0.60750444  1
  Mn  Mn5  1  0.69213420  0.50024467  0.36193228  1
  Mn  Mn6  1  0.00691318  0.94572170  0.01106244  1
  Mn  Mn7  1  0.79649304  0.96641983  0.63306041  1
  Mn  Mn8  1  0.21581557  0.03154249  0.40698090  1
  Mn  Mn9  1  0.47716467  0.48799378  0.97078146  1
  Sb  Sb10  1  0.88731593  0.89407721  0.46215217  1
  Sb  Sb11  1  0.11909011  0.97267466  0.54413350  1
  Sb  Sb12  1  0.03543632  0.52338445  0.83032538  1
  Sb  Sb13  1  0.96698128  0.46598524  0.20296920  1
  Sb  Sb14  1  0.41094659  0.58736166  0.46373957  1
  Sb  Sb15  1  0.60417461  0.54134798  0.53739651  1
  Sb  Sb16  1  0.53156590  0.94219322  0.79864638  1
  Sb  Sb17  1  0.46771348  0.97950390  0.17990427  1
  S  S18  1  0.92511151  0.00599991  0.79113316  1
  S  S19  1  0.05526734  0.99423478  0.19447494  1
  S  S20  1  0.41400650  0.01046508  0.97366300  1
  S  S21  1  0.57975044  0.02082077  0.99676200  1
  S  S22  1  0.17302292  0.92374285  0.89959549  1
  S  S23  1  0.83445334  0.03115521  0.11610909  1
  S  S24  1  0.11185713  0.48471172  0.65153525  1
  S  S25  1  0.89409434  0.43720142  0.34709412  1
  S  S26  1  0.73424061  0.96424750  0.31448996  1
  S  S27  1  0.26697320  0.95053018  0.67699206  1
  S  S28  1  0.17358919  0.49489501  0.45194080  1
  S  S29  1  0.81088884  0.53898976  0.54085969  1
  S  S30  1  0.42964505  0.44264399  0.78817875  1
  S  S31  1  0.56488324  0.48979873  0.19999791  1
  S  S32  1  0.91905791  0.48748255  0.99711687  1
  S  S33  1  0.08795003  0.44299543  0.04324299  1
  S  S34  1  0.67938826  0.57075272  0.91322319  1
  S  S35  1  0.33094518  0.41497070  0.11253521  1
  S  S36  1  0.59742438  0.02320306  0.64669561  1
  S  S37  1  0.40099801  0.01653521  0.33707970  1
  S  S38  1  0.24894743  0.52536462  0.33283746  1
  S  S39  1  0.75790218  0.53160752  0.68466190  1
  S  S40  1  0.66552916  0.92151390  0.44591950  1
  S  S41  1  0.34044807  0.92540611  0.56342751  1
