# generated using pymatgen
data_Pr2Mn3(SbS3)4
_symmetry_space_group_name_H-M   'P 1'
_cell_length_a   20.02960800
_cell_length_b   3.90410600
_cell_length_c   14.95364829
_cell_angle_alpha   90.00000000
_cell_angle_beta   126.33350609
_cell_angle_gamma   90.00000000
_symmetry_Int_Tables_number   1
_chemical_formula_structural   Pr2Mn3(SbS3)4
_chemical_formula_sum   'Pr4 Mn6 Sb8 S24'
_cell_volume   942.00006694
_cell_formula_units_Z   2
loop_
 _symmetry_equiv_pos_site_id
 _symmetry_equiv_pos_as_xyz
  1  'x, y, z'
loop_
 _atom_site_type_symbol
 _atom_site_label
 _atom_site_symmetry_multiplicity
 _atom_site_fract_x
 _atom_site_fract_y
 _atom_site_fract_z
 _atom_site_occupancy
  Pr  Pr0  1  0.27803898  0.48600533  0.88474100  1
  Pr  Pr1  1  0.73309746  0.50828275  0.14138785  1
  Pr  Pr2  1  0.76302350  0.06365297  0.87031851  1
  Pr  Pr3  1  0.23230683  0.91880358  0.12263810  1
  Mn  Mn4  1  0.29935582  0.40962490  0.60738921  1
  Mn  Mn5  1  0.69224247  0.50063247  0.36189074  1
  Mn  Mn6  1  0.00711144  0.94636310  0.01143024  1
  Mn  Mn7  1  0.79644515  0.96664670  0.63300844  1
  Mn  Mn8  1  0.21562592  0.03116345  0.40655518  1
  Mn  Mn9  1  0.47701689  0.48825384  0.97042166  1
  Sb  Sb10  1  0.88744197  0.89425505  0.46209579  1
  Sb  Sb11  1  0.11901832  0.97255991  0.54397254  1
  Sb  Sb12  1  0.03553184  0.52330695  0.83046852  1
  Sb  Sb13  1  0.96690056  0.46595667  0.20296335  1
  Sb  Sb14  1  0.41084180  0.58715549  0.46385675  1
  Sb  Sb15  1  0.60420030  0.54171700  0.53762097  1
  Sb  Sb16  1  0.53150870  0.94210827  0.79880082  1
  Sb  Sb17  1  0.46768708  0.97869417  0.17975099  1
  S  S18  1  0.92508437  0.00584943  0.79131201  1
  S  S19  1  0.05525318  0.99520207  0.19392646  1
  S  S20  1  0.41382283  0.01034048  0.97344429  1
  S  S21  1  0.57948295  0.02058464  0.99650098  1
  S  S22  1  0.17303285  0.92352589  0.89932599  1
  S  S23  1  0.83444269  0.03148453  0.11561829  1
  S  S24  1  0.11189720  0.48575509  0.65160087  1
  S  S25  1  0.89437742  0.43730476  0.34759137  1
  S  S26  1  0.73404094  0.96429414  0.31415098  1
  S  S27  1  0.26689270  0.94998798  0.67661725  1
  S  S28  1  0.17320748  0.49393951  0.45152725  1
  S  S29  1  0.81096063  0.53777173  0.54107715  1
  S  S30  1  0.42975164  0.44295118  0.78821063  1
  S  S31  1  0.56497238  0.48952154  0.20024103  1
  S  S32  1  0.91906587  0.48709195  0.99708012  1
  S  S33  1  0.08777495  0.44294720  0.04290118  1
  S  S34  1  0.67924753  0.57071803  0.91331467  1
  S  S35  1  0.33089918  0.41441495  0.11252374  1
  S  S36  1  0.59735318  0.02329396  0.64692224  1
  S  S37  1  0.40089559  0.01533180  0.33730223  1
  S  S38  1  0.24877988  0.52485213  0.33302827  1
  S  S39  1  0.75803139  0.53267179  0.68537384  1
  S  S40  1  0.66575954  0.92208935  0.44627662  1
  S  S41  1  0.34040758  0.92542304  0.56352023  1
