# generated using pymatgen
data_Pr2Mn3(SbS3)4
_symmetry_space_group_name_H-M   'P 1'
_cell_length_a   20.02960800
_cell_length_b   3.90410600
_cell_length_c   14.95364829
_cell_angle_alpha   90.00000000
_cell_angle_beta   126.33350609
_cell_angle_gamma   90.00000000
_symmetry_Int_Tables_number   1
_chemical_formula_structural   Pr2Mn3(SbS3)4
_chemical_formula_sum   'Pr4 Mn6 Sb8 S24'
_cell_volume   942.00006694
_cell_formula_units_Z   2
loop_
 _symmetry_equiv_pos_site_id
 _symmetry_equiv_pos_as_xyz
  1  'x, y, z'
loop_
 _atom_site_type_symbol
 _atom_site_label
 _atom_site_symmetry_multiplicity
 _atom_site_fract_x
 _atom_site_fract_y
 _atom_site_fract_z
 _atom_site_occupancy
  Pr  Pr0  1  0.27804667  0.48634073  0.88468665  1
  Pr  Pr1  1  0.73306696  0.50818320  0.14156456  1
  Pr  Pr2  1  0.76297206  0.06320190  0.87049978  1
  Pr  Pr3  1  0.23245332  0.91884193  0.12275762  1
  Mn  Mn4  1  0.29930756  0.41016362  0.60739810  1
  Mn  Mn5  1  0.69234862  0.50093541  0.36187841  1
  Mn  Mn6  1  0.00709813  0.94680904  0.01169075  1
  Mn  Mn7  1  0.79641134  0.96637677  0.63296226  1
  Mn  Mn8  1  0.21553810  0.03093479  0.40619312  1
  Mn  Mn9  1  0.47686004  0.48887035  0.97006032  1
  Sb  Sb10  1  0.88758051  0.89421747  0.46206395  1
  Sb  Sb11  1  0.11893664  0.97215418  0.54380502  1
  Sb  Sb12  1  0.03562708  0.52323801  0.83064951  1
  Sb  Sb13  1  0.96680125  0.46585477  0.20299193  1
  Sb  Sb14  1  0.41062548  0.58677971  0.46391625  1
  Sb  Sb15  1  0.60420920  0.54203844  0.53778643  1
  Sb  Sb16  1  0.53148075  0.94196092  0.79893583  1
  Sb  Sb17  1  0.46764107  0.97773688  0.17958998  1
  S  S18  1  0.92520843  0.00623479  0.79170569  1
  S  S19  1  0.05529835  0.99599982  0.19353644  1
  S  S20  1  0.41369025  0.01020969  0.97335772  1
  S  S21  1  0.57922690  0.02012164  0.99633080  1
  S  S22  1  0.17301608  0.92344354  0.89914674  1
  S  S23  1  0.83443030  0.03184484  0.11508362  1
  S  S24  1  0.11190175  0.48716720  0.65154502  1
  S  S25  1  0.89457704  0.43724103  0.34802686  1
  S  S26  1  0.73381981  0.96393841  0.31382067  1
  S  S27  1  0.26678559  0.94943722  0.67636584  1
  S  S28  1  0.17288616  0.49334521  0.45130355  1
  S  S29  1  0.81100269  0.53650359  0.54124850  1
  S  S30  1  0.42989503  0.44308527  0.78822775  1
  S  S31  1  0.56509667  0.48938464  0.20058161  1
  S  S32  1  0.91902764  0.48727315  0.99710718  1
  S  S33  1  0.08756110  0.44284032  0.04251228  1
  S  S34  1  0.67908733  0.57031752  0.91338730  1
  S  S35  1  0.33082771  0.41367880  0.11241069  1
  S  S36  1  0.59734082  0.02324467  0.64723679  1
  S  S37  1  0.40081823  0.01415512  0.33750464  1
  S  S38  1  0.24859576  0.52455515  0.33314161  1
  S  S39  1  0.75813434  0.53357804  0.68599891  1
  S  S40  1  0.66589598  0.92241308  0.44646201  1
  S  S41  1  0.34053546  0.92568935  0.56354997  1
