# generated using pymatgen
data_Pr2Mn3(SbS3)4
_symmetry_space_group_name_H-M   'P 1'
_cell_length_a   20.02960800
_cell_length_b   3.90410600
_cell_length_c   14.95364829
_cell_angle_alpha   90.00000000
_cell_angle_beta   126.33350609
_cell_angle_gamma   90.00000000
_symmetry_Int_Tables_number   1
_chemical_formula_structural   Pr2Mn3(SbS3)4
_chemical_formula_sum   'Pr4 Mn6 Sb8 S24'
_cell_volume   942.00006694
_cell_formula_units_Z   2
loop_
 _symmetry_equiv_pos_site_id
 _symmetry_equiv_pos_as_xyz
  1  'x, y, z'
loop_
 _atom_site_type_symbol
 _atom_site_label
 _atom_site_symmetry_multiplicity
 _atom_site_fract_x
 _atom_site_fract_y
 _atom_site_fract_z
 _atom_site_occupancy
  Pr  Pr0  1  0.27807229  0.48692097  0.88467602  1
  Pr  Pr1  1  0.73309761  0.50816994  0.14175470  1
  Pr  Pr2  1  0.76301609  0.06280162  0.87074556  1
  Pr  Pr3  1  0.23255137  0.91899300  0.12286521  1
  Mn  Mn4  1  0.29931934  0.41034417  0.60744662  1
  Mn  Mn5  1  0.69245021  0.50137874  0.36185434  1
  Mn  Mn6  1  0.00707181  0.94730726  0.01189956  1
  Mn  Mn7  1  0.79649324  0.96609227  0.63294057  1
  Mn  Mn8  1  0.21543106  0.03132679  0.40589845  1
  Mn  Mn9  1  0.47677705  0.48967181  0.96983257  1
  Sb  Sb10  1  0.88773422  0.89395751  0.46206262  1
  Sb  Sb11  1  0.11889390  0.97191623  0.54364401  1
  Sb  Sb12  1  0.03576705  0.52311109  0.83083365  1
  Sb  Sb13  1  0.96669428  0.46571408  0.20300576  1
  Sb  Sb14  1  0.41037741  0.58648728  0.46389291  1
  Sb  Sb15  1  0.60423324  0.54252678  0.53793146  1
  Sb  Sb16  1  0.53142500  0.94166765  0.79900902  1
  Sb  Sb17  1  0.46754441  0.97713947  0.17943545  1
  S  S18  1  0.92535180  0.00651965  0.79198838  1
  S  S19  1  0.05524029  0.99612438  0.19315474  1
  S  S20  1  0.41353191  0.01015689  0.97333875  1
  S  S21  1  0.57902464  0.01976527  0.99627225  1
  S  S22  1  0.17304130  0.92354722  0.89901384  1
  S  S23  1  0.83419666  0.03288387  0.11446088  1
  S  S24  1  0.11198650  0.48823725  0.65158081  1
  S  S25  1  0.89482105  0.43676278  0.34859469  1
  S  S26  1  0.73359487  0.96329601  0.31347478  1
  S  S27  1  0.26670323  0.94903936  0.67621702  1
  S  S28  1  0.17258726  0.49286738  0.45099092  1
  S  S29  1  0.81079401  0.53563669  0.54109861  1
  S  S30  1  0.42996707  0.44314740  0.78821228  1
  S  S31  1  0.56515433  0.48951450  0.20078286  1
  S  S32  1  0.91901078  0.48752713  0.99717618  1
  S  S33  1  0.08734337  0.44275602  0.04205822  1
  S  S34  1  0.67872492  0.57016298  0.91325128  1
  S  S35  1  0.33073202  0.41246077  0.11231522  1
  S  S36  1  0.59725331  0.02316178  0.64735859  1
  S  S37  1  0.40078021  0.01320014  0.33780398  1
  S  S38  1  0.24845256  0.52469307  0.33324498  1
  S  S39  1  0.75831757  0.53449807  0.68662239  1
  S  S40  1  0.66606372  0.92346168  0.44677841  1
  S  S41  1  0.34062132  0.92533767  0.56341040  1
