# generated using pymatgen
data_Pr2Mn3(SbS3)4
_symmetry_space_group_name_H-M   'P 1'
_cell_length_a   20.02960800
_cell_length_b   3.90410600
_cell_length_c   14.95364829
_cell_angle_alpha   90.00000000
_cell_angle_beta   126.33350609
_cell_angle_gamma   90.00000000
_symmetry_Int_Tables_number   1
_chemical_formula_structural   Pr2Mn3(SbS3)4
_chemical_formula_sum   'Pr4 Mn6 Sb8 S24'
_cell_volume   942.00006694
_cell_formula_units_Z   2
loop_
 _symmetry_equiv_pos_site_id
 _symmetry_equiv_pos_as_xyz
  1  'x, y, z'
loop_
 _atom_site_type_symbol
 _atom_site_label
 _atom_site_symmetry_multiplicity
 _atom_site_fract_x
 _atom_site_fract_y
 _atom_site_fract_z
 _atom_site_occupancy
  Pr  Pr0  1  0.27800585  0.48759977  0.88460570  1
  Pr  Pr1  1  0.73322726  0.50815101  0.14201290  1
  Pr  Pr2  1  0.76299433  0.06248156  0.87092206  1
  Pr  Pr3  1  0.23266341  0.91912004  0.12301954  1
  Mn  Mn4  1  0.29946729  0.40971033  0.60755456  1
  Mn  Mn5  1  0.69261414  0.50169963  0.36186532  1
  Mn  Mn6  1  0.00700255  0.94751702  0.01214467  1
  Mn  Mn7  1  0.79654358  0.96576017  0.63297146  1
  Mn  Mn8  1  0.21532474  0.03168818  0.40563006  1
  Mn  Mn9  1  0.47670730  0.49029845  0.96965954  1
  Sb  Sb10  1  0.88794987  0.89376901  0.46210901  1
  Sb  Sb11  1  0.11886272  0.97167163  0.54349224  1
  Sb  Sb12  1  0.03593296  0.52280128  0.83098278  1
  Sb  Sb13  1  0.96667259  0.46573757  0.20308373  1
  Sb  Sb14  1  0.41018152  0.58630409  0.46383595  1
  Sb  Sb15  1  0.60421545  0.54287113  0.53809107  1
  Sb  Sb16  1  0.53136800  0.94136989  0.79911515  1
  Sb  Sb17  1  0.46747080  0.97652920  0.17933217  1
  S  S18  1  0.92553415  0.00675052  0.79229196  1
  S  S19  1  0.05524388  0.99580701  0.19282784  1
  S  S20  1  0.41333841  0.00953666  0.97336000  1
  S  S21  1  0.57886385  0.01915424  0.99606054  1
  S  S22  1  0.17284486  0.92415719  0.89870065  1
  S  S23  1  0.83396010  0.03395087  0.11390939  1
  S  S24  1  0.11208528  0.48963112  0.65159325  1
  S  S25  1  0.89503976  0.43626745  0.34903036  1
  S  S26  1  0.73347400  0.96254766  0.31320059  1
  S  S27  1  0.26667494  0.94853505  0.67607707  1
  S  S28  1  0.17230615  0.49292744  0.45081069  1
  S  S29  1  0.81071128  0.53500142  0.54100224  1
  S  S30  1  0.43005252  0.44324697  0.78822555  1
  S  S31  1  0.56527657  0.48941994  0.20112183  1
  S  S32  1  0.91898251  0.48746829  0.99719839  1
  S  S33  1  0.08710862  0.44258744  0.04164455  1
  S  S34  1  0.67851422  0.57039730  0.91326789  1
  S  S35  1  0.33077931  0.41176309  0.11241967  1
  S  S36  1  0.59731238  0.02353096  0.64748467  1
  S  S37  1  0.40075044  0.01279166  0.33802416  1
  S  S38  1  0.24845116  0.52526980  0.33358637  1
  S  S39  1  0.75844138  0.53555629  0.68719177  1
  S  S40  1  0.66624189  0.92451106  0.44698935  1
  S  S41  1  0.34068871  0.92491682  0.56328648  1
