# generated using pymatgen
data_Pr2Mn3(SbS3)4
_symmetry_space_group_name_H-M   'P 1'
_cell_length_a   20.02960800
_cell_length_b   3.90410600
_cell_length_c   14.95364829
_cell_angle_alpha   90.00000000
_cell_angle_beta   126.33350609
_cell_angle_gamma   90.00000000
_symmetry_Int_Tables_number   1
_chemical_formula_structural   Pr2Mn3(SbS3)4
_chemical_formula_sum   'Pr4 Mn6 Sb8 S24'
_cell_volume   942.00006694
_cell_formula_units_Z   2
loop_
 _symmetry_equiv_pos_site_id
 _symmetry_equiv_pos_as_xyz
  1  'x, y, z'
loop_
 _atom_site_type_symbol
 _atom_site_label
 _atom_site_symmetry_multiplicity
 _atom_site_fract_x
 _atom_site_fract_y
 _atom_site_fract_z
 _atom_site_occupancy
  Pr  Pr0  1  0.26469775  0.47500926  0.86932770  1
  Pr  Pr1  1  0.73792662  0.51599604  0.13674858  1
  Pr  Pr2  1  0.76390233  0.01316793  0.86410149  1
  Pr  Pr3  1  0.23616205  0.00209217  0.13859880  1
  Mn  Mn4  1  0.29231270  0.48623638  0.60322025  1
  Mn  Mn5  1  0.69410690  0.52770431  0.37987521  1
  Mn  Mn6  1  0.00565268  0.99403317  0.00383725  1
  Mn  Mn7  1  0.80261465  0.00125218  0.61539381  1
  Mn  Mn8  1  0.19466300  0.97143366  0.37755920  1
  Mn  Mn9  1  0.50124380  0.46654690  0.99243800  1
  Sb  Sb10  1  0.89006448  0.99520957  0.45258600  1
  Sb  Sb11  1  0.11170285  0.96371437  0.55210301  1
  Sb  Sb12  1  0.03995499  0.51335116  0.81774516  1
  Sb  Sb13  1  0.96257368  0.51993577  0.18669260  1
  Sb  Sb14  1  0.39844253  0.50334593  0.45810980  1
  Sb  Sb15  1  0.60615243  0.48403155  0.54682979  1
  Sb  Sb16  1  0.53402186  0.01125338  0.81231639  1
  Sb  Sb17  1  0.46190336  0.00804051  0.18257612  1
  S  S18  1  0.93754988  0.97501822  0.80432470  1
  S  S19  1  0.06581528  0.97589626  0.18709642  1
  S  S20  1  0.41050132  0.01547957  0.97899561  1
  S  S21  1  0.59276873  0.99921082  0.02628398  1
  S  S22  1  0.17356157  0.98499533  0.89485350  1
  S  S23  1  0.82492619  0.01558077  0.09701558  1
  S  S24  1  0.08616985  0.46370022  0.64573646  1
  S  S25  1  0.91209497  0.48245443  0.35812654  1
  S  S26  1  0.74083126  0.95822080  0.29840178  1
  S  S27  1  0.25846055  0.99531374  0.70437840  1
  S  S28  1  0.17056360  0.49058180  0.44682337  1
  S  S29  1  0.82863476  0.48803968  0.54994080  1
  S  S30  1  0.43243161  0.49874886  0.79824898  1
  S  S31  1  0.56168826  0.52296811  0.18606320  1
  S  S32  1  0.91191860  0.50063314  0.99261953  1
  S  S33  1  0.08256253  0.49764979  0.01484484  1
  S  S34  1  0.66502315  0.48820615  0.88798360  1
  S  S35  1  0.32744691  0.51640474  0.09482779  1
  S  S36  1  0.59327654  0.00447954  0.65643390  1
  S  S37  1  0.40642696  0.97269522  0.34467478  1
  S  S38  1  0.24435055  0.46712269  0.30824778  1
  S  S39  1  0.76175285  0.50557081  0.70025707  1
  S  S40  1  0.67425072  0.02484112  0.45917021  1
  S  S41  1  0.32790740  0.98371566  0.54229996  1
