# generated using pymatgen
data_Pr2Mn3(SbS3)4
_symmetry_space_group_name_H-M   'P 1'
_cell_length_a   20.02960800
_cell_length_b   3.90410600
_cell_length_c   14.95364829
_cell_angle_alpha   90.00000000
_cell_angle_beta   126.33350609
_cell_angle_gamma   90.00000000
_symmetry_Int_Tables_number   1
_chemical_formula_structural   Pr2Mn3(SbS3)4
_chemical_formula_sum   'Pr4 Mn6 Sb8 S24'
_cell_volume   942.00006694
_cell_formula_units_Z   2
loop_
 _symmetry_equiv_pos_site_id
 _symmetry_equiv_pos_as_xyz
  1  'x, y, z'
loop_
 _atom_site_type_symbol
 _atom_site_label
 _atom_site_symmetry_multiplicity
 _atom_site_fract_x
 _atom_site_fract_y
 _atom_site_fract_z
 _atom_site_occupancy
  Pr  Pr0  1  0.27798485  0.48827419  0.88457112  1
  Pr  Pr1  1  0.73339502  0.50805787  0.14229507  1
  Pr  Pr2  1  0.76300474  0.06223896  0.87109990  1
  Pr  Pr3  1  0.23271719  0.91933082  0.12314768  1
  Mn  Mn4  1  0.29963919  0.40890672  0.60753797  1
  Mn  Mn5  1  0.69270861  0.50189057  0.36188383  1
  Mn  Mn6  1  0.00713323  0.94750784  0.01257105  1
  Mn  Mn7  1  0.79654091  0.96574979  0.63285371  1
  Mn  Mn8  1  0.21525855  0.03218397  0.40545345  1
  Mn  Mn9  1  0.47654019  0.49103483  0.96930282  1
  Sb  Sb10  1  0.88813295  0.89364422  0.46209397  1
  Sb  Sb11  1  0.11884871  0.97144996  0.54336179  1
  Sb  Sb12  1  0.03607804  0.52286478  0.83116591  1
  Sb  Sb13  1  0.96661514  0.46557985  0.20314710  1
  Sb  Sb14  1  0.41001374  0.58603761  0.46379622  1
  Sb  Sb15  1  0.60416067  0.54323856  0.53818280  1
  Sb  Sb16  1  0.53124833  0.94115956  0.79909337  1
  Sb  Sb17  1  0.46745250  0.97612290  0.17926576  1
  S  S18  1  0.92570133  0.00682822  0.79251932  1
  S  S19  1  0.05519654  0.99614544  0.19248128  1
  S  S20  1  0.41317697  0.00911932  0.97336618  1
  S  S21  1  0.57877631  0.01839125  0.99590536  1
  S  S22  1  0.17270581  0.92464625  0.89832844  1
  S  S23  1  0.83370285  0.03522093  0.11331198  1
  S  S24  1  0.11225219  0.49074180  0.65157200  1
  S  S25  1  0.89523530  0.43626289  0.34941538  1
  S  S26  1  0.73350255  0.96250057  0.31313063  1
  S  S27  1  0.26665614  0.94819580  0.67591799  1
  S  S28  1  0.17198865  0.49300032  0.45058946  1
  S  S29  1  0.81066676  0.53432082  0.54093961  1
  S  S30  1  0.43007386  0.44341954  0.78811884  1
  S  S31  1  0.56533351  0.48942713  0.20151267  1
  S  S32  1  0.91890070  0.48800161  0.99707606  1
  S  S33  1  0.08680395  0.44201916  0.04124682  1
  S  S34  1  0.67830066  0.57085480  0.91326641  1
  S  S35  1  0.33077283  0.41079692  0.11243151  1
  S  S36  1  0.59726515  0.02357068  0.64747148  1
  S  S37  1  0.40078478  0.01231531  0.33814363  1
  S  S38  1  0.24854683  0.52620476  0.33393951  1
  S  S39  1  0.75857298  0.53611790  0.68783341  1
  S  S40  1  0.66640215  0.92536452  0.44723841  1
  S  S41  1  0.34063278  0.92407821  0.56310648  1
