# generated using pymatgen
data_Pr2Mn3(SbS3)4
_symmetry_space_group_name_H-M   'P 1'
_cell_length_a   20.02960800
_cell_length_b   3.90410600
_cell_length_c   14.95364829
_cell_angle_alpha   90.00000000
_cell_angle_beta   126.33350609
_cell_angle_gamma   90.00000000
_symmetry_Int_Tables_number   1
_chemical_formula_structural   Pr2Mn3(SbS3)4
_chemical_formula_sum   'Pr4 Mn6 Sb8 S24'
_cell_volume   942.00006694
_cell_formula_units_Z   2
loop_
 _symmetry_equiv_pos_site_id
 _symmetry_equiv_pos_as_xyz
  1  'x, y, z'
loop_
 _atom_site_type_symbol
 _atom_site_label
 _atom_site_symmetry_multiplicity
 _atom_site_fract_x
 _atom_site_fract_y
 _atom_site_fract_z
 _atom_site_occupancy
  Pr  Pr0  1  0.27799578  0.48883072  0.88459598  1
  Pr  Pr1  1  0.73355209  0.50793815  0.14251740  1
  Pr  Pr2  1  0.76300353  0.06194291  0.87121844  1
  Pr  Pr3  1  0.23283150  0.91937024  0.12331138  1
  Mn  Mn4  1  0.29969757  0.40801938  0.60740648  1
  Mn  Mn5  1  0.69283165  0.50245805  0.36188221  1
  Mn  Mn6  1  0.00717252  0.94736904  0.01296279  1
  Mn  Mn7  1  0.79650839  0.96589339  0.63271342  1
  Mn  Mn8  1  0.21523377  0.03271856  0.40525728  1
  Mn  Mn9  1  0.47637558  0.49150943  0.96898617  1
  Sb  Sb10  1  0.88830356  0.89350305  0.46207586  1
  Sb  Sb11  1  0.11887584  0.97108386  0.54329989  1
  Sb  Sb12  1  0.03619939  0.52252213  0.83136521  1
  Sb  Sb13  1  0.96656073  0.46543541  0.20322517  1
  Sb  Sb14  1  0.40982896  0.58577844  0.46376654  1
  Sb  Sb15  1  0.60413990  0.54373655  0.53829328  1
  Sb  Sb16  1  0.53123453  0.94125270  0.79916066  1
  Sb  Sb17  1  0.46745242  0.97594292  0.17926683  1
  S  S18  1  0.92600034  0.00675074  0.79285640  1
  S  S19  1  0.05523229  0.99647689  0.19222536  1
  S  S20  1  0.41299454  0.00847382  0.97335488  1
  S  S21  1  0.57869960  0.01744209  0.99564809  1
  S  S22  1  0.17263178  0.92482702  0.89801337  1
  S  S23  1  0.83342733  0.03595649  0.11279662  1
  S  S24  1  0.11235826  0.49231284  0.65162447  1
  S  S25  1  0.89539916  0.43607783  0.34973908  1
  S  S26  1  0.73366561  0.96213587  0.31319661  1
  S  S27  1  0.26655453  0.94843358  0.67580031  1
  S  S28  1  0.17181777  0.49311148  0.45047302  1
  S  S29  1  0.81072186  0.53400093  0.54100718  1
  S  S30  1  0.43010965  0.44338943  0.78805515  1
  S  S31  1  0.56527558  0.48958084  0.20191959  1
  S  S32  1  0.91885250  0.48894309  0.99689741  1
  S  S33  1  0.08655688  0.44172840  0.04086599  1
  S  S34  1  0.67808883  0.57066026  0.91315516  1
  S  S35  1  0.33077316  0.41032670  0.11245631  1
  S  S36  1  0.59720542  0.02352237  0.64741972  1
  S  S37  1  0.40097685  0.01190869  0.33831672  1
  S  S38  1  0.24877869  0.52668829  0.33438226  1
  S  S39  1  0.75872578  0.53625659  0.68848122  1
  S  S40  1  0.66656948  0.92629747  0.44748818  1
  S  S41  1  0.34042256  0.92267520  0.56280020  1
