# generated using pymatgen
data_Pr2Mn3(SbS3)4
_symmetry_space_group_name_H-M   'P 1'
_cell_length_a   20.02960800
_cell_length_b   3.90410600
_cell_length_c   14.95364829
_cell_angle_alpha   90.00000000
_cell_angle_beta   126.33350609
_cell_angle_gamma   90.00000000
_symmetry_Int_Tables_number   1
_chemical_formula_structural   Pr2Mn3(SbS3)4
_chemical_formula_sum   'Pr4 Mn6 Sb8 S24'
_cell_volume   942.00006694
_cell_formula_units_Z   2
loop_
 _symmetry_equiv_pos_site_id
 _symmetry_equiv_pos_as_xyz
  1  'x, y, z'
loop_
 _atom_site_type_symbol
 _atom_site_label
 _atom_site_symmetry_multiplicity
 _atom_site_fract_x
 _atom_site_fract_y
 _atom_site_fract_z
 _atom_site_occupancy
  Pr  Pr0  1  0.27803125  0.48938431  0.88459867  1
  Pr  Pr1  1  0.73372244  0.50781831  0.14271890  1
  Pr  Pr2  1  0.76304124  0.06166728  0.87135577  1
  Pr  Pr3  1  0.23294397  0.91924373  0.12341156  1
  Mn  Mn4  1  0.29978038  0.40737347  0.60721002  1
  Mn  Mn5  1  0.69295102  0.50296584  0.36193861  1
  Mn  Mn6  1  0.00720066  0.94725686  0.01329217  1
  Mn  Mn7  1  0.79650926  0.96562411  0.63250357  1
  Mn  Mn8  1  0.21515186  0.03331880  0.40512432  1
  Mn  Mn9  1  0.47627492  0.49211510  0.96863786  1
  Sb  Sb10  1  0.88850665  0.89338804  0.46207096  1
  Sb  Sb11  1  0.11898165  0.97064432  0.54328069  1
  Sb  Sb12  1  0.03628333  0.52219021  0.83151545  1
  Sb  Sb13  1  0.96654029  0.46522382  0.20335252  1
  Sb  Sb14  1  0.40975925  0.58537369  0.46374493  1
  Sb  Sb15  1  0.60413682  0.54433977  0.53840685  1
  Sb  Sb16  1  0.53131397  0.94119820  0.79923891  1
  Sb  Sb17  1  0.46748842  0.97605716  0.17929729  1
  S  S18  1  0.92623114  0.00696447  0.79312024  1
  S  S19  1  0.05516446  0.99690112  0.19193981  1
  S  S20  1  0.41299744  0.00771787  0.97351641  1
  S  S21  1  0.57862298  0.01634227  0.99533164  1
  S  S22  1  0.17243664  0.92466566  0.89745084  1
  S  S23  1  0.83326780  0.03648386  0.11241859  1
  S  S24  1  0.11254963  0.49399658  0.65182087  1
  S  S25  1  0.89550077  0.43527146  0.34999042  1
  S  S26  1  0.73379089  0.96164232  0.31323226  1
  S  S27  1  0.26634143  0.94835806  0.67556781  1
  S  S28  1  0.17172067  0.49387011  0.45038446  1
  S  S29  1  0.81060323  0.53352243  0.54098904  1
  S  S30  1  0.43009584  0.44345219  0.78802623  1
  S  S31  1  0.56527395  0.48946737  0.20229664  1
  S  S32  1  0.91879091  0.48895881  0.99681176  1
  S  S33  1  0.08619667  0.44173677  0.04044906  1
  S  S34  1  0.67782584  0.57072550  0.91298417  1
  S  S35  1  0.33091573  0.41008198  0.11263153  1
  S  S36  1  0.59717223  0.02366916  0.64738280  1
  S  S37  1  0.40112121  0.01107692  0.33849948  1
  S  S38  1  0.24899729  0.52698954  0.33463238  1
  S  S39  1  0.75876502  0.53646674  0.68898044  1
  S  S40  1  0.66678438  0.92668499  0.44768993  1
  S  S41  1  0.34016237  0.92091855  0.56248718  1
