# generated using pymatgen
data_Pr2Mn3(SbS3)4
_symmetry_space_group_name_H-M   'P 1'
_cell_length_a   20.02960800
_cell_length_b   3.90410600
_cell_length_c   14.95364829
_cell_angle_alpha   90.00000000
_cell_angle_beta   126.33350609
_cell_angle_gamma   90.00000000
_symmetry_Int_Tables_number   1
_chemical_formula_structural   Pr2Mn3(SbS3)4
_chemical_formula_sum   'Pr4 Mn6 Sb8 S24'
_cell_volume   942.00006694
_cell_formula_units_Z   2
loop_
 _symmetry_equiv_pos_site_id
 _symmetry_equiv_pos_as_xyz
  1  'x, y, z'
loop_
 _atom_site_type_symbol
 _atom_site_label
 _atom_site_symmetry_multiplicity
 _atom_site_fract_x
 _atom_site_fract_y
 _atom_site_fract_z
 _atom_site_occupancy
  Pr  Pr0  1  0.27806794  0.48967975  0.88460597  1
  Pr  Pr1  1  0.73390566  0.50760286  0.14294468  1
  Pr  Pr2  1  0.76306782  0.06146987  0.87150751  1
  Pr  Pr3  1  0.23308176  0.91897528  0.12351683  1
  Mn  Mn4  1  0.29988989  0.40666062  0.60714261  1
  Mn  Mn5  1  0.69301213  0.50335242  0.36191756  1
  Mn  Mn6  1  0.00725159  0.94743280  0.01357283  1
  Mn  Mn7  1  0.79650950  0.96518976  0.63221693  1
  Mn  Mn8  1  0.21512167  0.03355357  0.40501619  1
  Mn  Mn9  1  0.47619228  0.49263107  0.96833780  1
  Sb  Sb10  1  0.88872741  0.89336717  0.46209077  1
  Sb  Sb11  1  0.11908710  0.97004998  0.54330755  1
  Sb  Sb12  1  0.03635276  0.52176070  0.83162097  1
  Sb  Sb13  1  0.96643654  0.46481143  0.20336639  1
  Sb  Sb14  1  0.40969893  0.58473777  0.46371785  1
  Sb  Sb15  1  0.60407778  0.54519055  0.53848466  1
  Sb  Sb16  1  0.53132704  0.94096346  0.79927694  1
  Sb  Sb17  1  0.46750210  0.97608824  0.17930852  1
  S  S18  1  0.92636185  0.00721141  0.79336416  1
  S  S19  1  0.05498743  0.99759395  0.19153133  1
  S  S20  1  0.41314911  0.00675951  0.97380900  1
  S  S21  1  0.57849873  0.01556155  0.99506240  1
  S  S22  1  0.17229741  0.92443224  0.89718899  1
  S  S23  1  0.83318230  0.03648002  0.11208013  1
  S  S24  1  0.11267674  0.49558814  0.65201940  1
  S  S25  1  0.89558515  0.43428344  0.35032522  1
  S  S26  1  0.73405851  0.96107578  0.31330870  1
  S  S27  1  0.26618523  0.94823291  0.67538014  1
  S  S28  1  0.17174672  0.49482238  0.45047457  1
  S  S29  1  0.81052007  0.53294615  0.54088339  1
  S  S30  1  0.43009242  0.44413848  0.78815625  1
  S  S31  1  0.56525920  0.48892810  0.20259577  1
  S  S32  1  0.91865417  0.48904314  0.99672832  1
  S  S33  1  0.08572185  0.44192907  0.03977184  1
  S  S34  1  0.67767837  0.57046597  0.91301422  1
  S  S35  1  0.33103186  0.40972095  0.11271975  1
  S  S36  1  0.59711363  0.02429196  0.64738093  1
  S  S37  1  0.40121728  0.01067656  0.33861730  1
  S  S38  1  0.24909817  0.52775594  0.33481127  1
  S  S39  1  0.75878762  0.53573470  0.68942250  1
  S  S40  1  0.66695992  0.92714673  0.44786423  1
  S  S41  1  0.33990139  0.91911592  0.56212279  1
