# generated using pymatgen
data_Pr2Mn3(SbS3)4
_symmetry_space_group_name_H-M   'P 1'
_cell_length_a   20.02960800
_cell_length_b   3.90410600
_cell_length_c   14.95364829
_cell_angle_alpha   90.00000000
_cell_angle_beta   126.33350609
_cell_angle_gamma   90.00000000
_symmetry_Int_Tables_number   1
_chemical_formula_structural   Pr2Mn3(SbS3)4
_chemical_formula_sum   'Pr4 Mn6 Sb8 S24'
_cell_volume   942.00006694
_cell_formula_units_Z   2
loop_
 _symmetry_equiv_pos_site_id
 _symmetry_equiv_pos_as_xyz
  1  'x, y, z'
loop_
 _atom_site_type_symbol
 _atom_site_label
 _atom_site_symmetry_multiplicity
 _atom_site_fract_x
 _atom_site_fract_y
 _atom_site_fract_z
 _atom_site_occupancy
  Pr  Pr0  1  0.27809603  0.48988217  0.88454479  1
  Pr  Pr1  1  0.73408938  0.50770647  0.14309883  1
  Pr  Pr2  1  0.76314557  0.06146014  0.87171185  1
  Pr  Pr3  1  0.23314648  0.91880687  0.12354145  1
  Mn  Mn4  1  0.29999704  0.40656329  0.60712747  1
  Mn  Mn5  1  0.69301325  0.50409798  0.36183561  1
  Mn  Mn6  1  0.00738627  0.94758564  0.01391012  1
  Mn  Mn7  1  0.79646284  0.96489545  0.63201061  1
  Mn  Mn8  1  0.21506068  0.03362570  0.40486422  1
  Mn  Mn9  1  0.47616084  0.49268291  0.96801596  1
  Sb  Sb10  1  0.88891193  0.89324522  0.46202078  1
  Sb  Sb11  1  0.11916096  0.96944177  0.54332419  1
  Sb  Sb12  1  0.03646403  0.52132757  0.83173463  1
  Sb  Sb13  1  0.96633408  0.46427782  0.20334213  1
  Sb  Sb14  1  0.40965614  0.58399004  0.46370606  1
  Sb  Sb15  1  0.60400809  0.54617537  0.53853022  1
  Sb  Sb16  1  0.53135618  0.94125281  0.79938454  1
  Sb  Sb17  1  0.46747936  0.97582182  0.17919300  1
  S  S18  1  0.92662437  0.00777824  0.79374435  1
  S  S19  1  0.05480048  0.99814958  0.19123688  1
  S  S20  1  0.41321057  0.00617491  0.97416344  1
  S  S21  1  0.57839025  0.01481457  0.99489381  1
  S  S22  1  0.17213181  0.92471688  0.89694719  1
  S  S23  1  0.83308584  0.03644606  0.11152326  1
  S  S24  1  0.11250331  0.49694660  0.65182475  1
  S  S25  1  0.89583207  0.43398673  0.35073598  1
  S  S26  1  0.73429072  0.96117404  0.31349412  1
  S  S27  1  0.26608455  0.94809554  0.67522824  1
  S  S28  1  0.17176096  0.49522363  0.45061721  1
  S  S29  1  0.81041035  0.53224290  0.54065728  1
  S  S30  1  0.43015888  0.44508725  0.78852852  1
  S  S31  1  0.56530525  0.48815450  0.20289920  1
  S  S32  1  0.91831172  0.48926000  0.99656955  1
  S  S33  1  0.08523647  0.44200564  0.03904261  1
  S  S34  1  0.67754761  0.57016986  0.91287511  1
  S  S35  1  0.33108219  0.40901163  0.11267475  1
  S  S36  1  0.59706130  0.02550078  0.64737123  1
  S  S37  1  0.40131240  0.01027161  0.33870392  1
  S  S38  1  0.24914885  0.52852155  0.33489124  1
  S  S39  1  0.75880523  0.53545237  0.68972466  1
  S  S40  1  0.66723733  0.92735850  0.44811927  1
  S  S41  1  0.33971311  0.91675126  0.56187994  1
