# generated using pymatgen
data_Pr2Mn3(SbS3)4
_symmetry_space_group_name_H-M   'P 1'
_cell_length_a   20.02960800
_cell_length_b   3.90410600
_cell_length_c   14.95364829
_cell_angle_alpha   90.00000000
_cell_angle_beta   126.33350609
_cell_angle_gamma   90.00000000
_symmetry_Int_Tables_number   1
_chemical_formula_structural   Pr2Mn3(SbS3)4
_chemical_formula_sum   'Pr4 Mn6 Sb8 S24'
_cell_volume   942.00006694
_cell_formula_units_Z   2
loop_
 _symmetry_equiv_pos_site_id
 _symmetry_equiv_pos_as_xyz
  1  'x, y, z'
loop_
 _atom_site_type_symbol
 _atom_site_label
 _atom_site_symmetry_multiplicity
 _atom_site_fract_x
 _atom_site_fract_y
 _atom_site_fract_z
 _atom_site_occupancy
  Pr  Pr0  1  0.27809782  0.49023677  0.88449004  1
  Pr  Pr1  1  0.73424714  0.50803170  0.14321473  1
  Pr  Pr2  1  0.76320629  0.06148510  0.87185614  1
  Pr  Pr3  1  0.23324005  0.91848828  0.12359290  1
  Mn  Mn4  1  0.30013195  0.40615436  0.60711870  1
  Mn  Mn5  1  0.69302621  0.50492043  0.36191953  1
  Mn  Mn6  1  0.00752861  0.94786902  0.01435726  1
  Mn  Mn7  1  0.79639240  0.96449506  0.63165852  1
  Mn  Mn8  1  0.21497691  0.03393129  0.40463892  1
  Mn  Mn9  1  0.47614380  0.49231475  0.96788284  1
  Sb  Sb10  1  0.88917118  0.89293009  0.46195679  1
  Sb  Sb11  1  0.11920709  0.96888534  0.54326110  1
  Sb  Sb12  1  0.03652345  0.52078631  0.83176998  1
  Sb  Sb13  1  0.96628639  0.46372443  0.20328060  1
  Sb  Sb14  1  0.40961584  0.58347877  0.46371268  1
  Sb  Sb15  1  0.60393956  0.54697546  0.53856416  1
  Sb  Sb16  1  0.53141619  0.94137494  0.79948979  1
  Sb  Sb17  1  0.46742220  0.97541174  0.17907955  1
  S  S18  1  0.92701037  0.00819915  0.79408488  1
  S  S19  1  0.05455456  0.99858665  0.19093844  1
  S  S20  1  0.41327777  0.00577773  0.97448995  1
  S  S21  1  0.57826383  0.01437233  0.99483272  1
  S  S22  1  0.17204311  0.92465783  0.89681364  1
  S  S23  1  0.83314050  0.03666760  0.11110210  1
  S  S24  1  0.11236859  0.49839412  0.65169516  1
  S  S25  1  0.89605965  0.43355777  0.35121409  1
  S  S26  1  0.73453791  0.96106608  0.31361848  1
  S  S27  1  0.26591106  0.94793469  0.67502839  1
  S  S28  1  0.17173877  0.49553885  0.45070624  1
  S  S29  1  0.81044550  0.53196451  0.54042148  1
  S  S30  1  0.43024964  0.44638816  0.78888017  1
  S  S31  1  0.56524536  0.48733055  0.20316437  1
  S  S32  1  0.91793523  0.48899780  0.99630731  1
  S  S33  1  0.08474820  0.44230646  0.03833462  1
  S  S34  1  0.67742200  0.57025892  0.91264904  1
  S  S35  1  0.33113894  0.40881365  0.11265222  1
  S  S36  1  0.59695578  0.02606506  0.64723885  1
  S  S37  1  0.40140871  0.01006486  0.33879223  1
  S  S38  1  0.24927114  0.52932123  0.33502675  1
  S  S39  1  0.75875682  0.53482901  0.69001838  1
  S  S40  1  0.66754823  0.92757935  0.44832141  1
  S  S41  1  0.33957107  0.91431898  0.56182009  1
