# generated using pymatgen
data_Pr2Mn3(SbS3)4
_symmetry_space_group_name_H-M   'P 1'
_cell_length_a   20.02960800
_cell_length_b   3.90410600
_cell_length_c   14.95364829
_cell_angle_alpha   90.00000000
_cell_angle_beta   126.33350609
_cell_angle_gamma   90.00000000
_symmetry_Int_Tables_number   1
_chemical_formula_structural   Pr2Mn3(SbS3)4
_chemical_formula_sum   'Pr4 Mn6 Sb8 S24'
_cell_volume   942.00006694
_cell_formula_units_Z   2
loop_
 _symmetry_equiv_pos_site_id
 _symmetry_equiv_pos_as_xyz
  1  'x, y, z'
loop_
 _atom_site_type_symbol
 _atom_site_label
 _atom_site_symmetry_multiplicity
 _atom_site_fract_x
 _atom_site_fract_y
 _atom_site_fract_z
 _atom_site_occupancy
  Pr  Pr0  1  0.27806993  0.49078566  0.88445760  1
  Pr  Pr1  1  0.73440628  0.50827441  0.14329970  1
  Pr  Pr2  1  0.76319841  0.06147646  0.87194422  1
  Pr  Pr3  1  0.23332611  0.91795385  0.12361269  1
  Mn  Mn4  1  0.30036433  0.40579315  0.60724306  1
  Mn  Mn5  1  0.69302957  0.50580182  0.36199180  1
  Mn  Mn6  1  0.00764076  0.94774436  0.01464075  1
  Mn  Mn7  1  0.79630473  0.96406449  0.63141851  1
  Mn  Mn8  1  0.21507318  0.03439668  0.40451073  1
  Mn  Mn9  1  0.47612686  0.49201229  0.96781202  1
  Sb  Sb10  1  0.88936188  0.89263117  0.46192635  1
  Sb  Sb11  1  0.11923766  0.96860688  0.54318191  1
  Sb  Sb12  1  0.03666145  0.52035804  0.83180860  1
  Sb  Sb13  1  0.96624564  0.46323207  0.20325343  1
  Sb  Sb14  1  0.40957189  0.58275720  0.46374176  1
  Sb  Sb15  1  0.60390656  0.54784236  0.53858616  1
  Sb  Sb16  1  0.53136253  0.94155327  0.79952203  1
  Sb  Sb17  1  0.46737105  0.97497783  0.17899537  1
  S  S18  1  0.92751038  0.00945138  0.79456313  1
  S  S19  1  0.05424733  0.99903103  0.19052276  1
  S  S20  1  0.41327254  0.00539762  0.97480570  1
  S  S21  1  0.57815093  0.01366986  0.99492523  1
  S  S22  1  0.17197714  0.92503424  0.89671547  1
  S  S23  1  0.83314495  0.03677894  0.11075173  1
  S  S24  1  0.11220447  0.49943411  0.65141730  1
  S  S25  1  0.89637460  0.43288682  0.35170536  1
  S  S26  1  0.73473172  0.96105934  0.31368246  1
  S  S27  1  0.26585878  0.94772094  0.67500995  1
  S  S28  1  0.17164599  0.49605346  0.45061900  1
  S  S29  1  0.81041512  0.53179230  0.54003100  1
  S  S30  1  0.43040596  0.44801983  0.78941411  1
  S  S31  1  0.56518736  0.48668770  0.20350094  1
  S  S32  1  0.91766775  0.48849659  0.99605441  1
  S  S33  1  0.08440027  0.44263124  0.03766490  1
  S  S34  1  0.67738703  0.57020212  0.91255083  1
  S  S35  1  0.33117316  0.40888090  0.11282537  1
  S  S36  1  0.59689277  0.02656324  0.64726985  1
  S  S37  1  0.40128435  0.00986008  0.33878769  1
  S  S38  1  0.24926646  0.52999173  0.33499946  1
  S  S39  1  0.75874607  0.53406823  0.69022293  1
  S  S40  1  0.66773320  0.92821194  0.44839442  1
  S  S41  1  0.33942637  0.91204944  0.56180745  1
