# generated using pymatgen
data_Pr2Mn3(SbS3)4
_symmetry_space_group_name_H-M   'P 1'
_cell_length_a   20.02960800
_cell_length_b   3.90410600
_cell_length_c   14.95364829
_cell_angle_alpha   90.00000000
_cell_angle_beta   126.33350609
_cell_angle_gamma   90.00000000
_symmetry_Int_Tables_number   1
_chemical_formula_structural   Pr2Mn3(SbS3)4
_chemical_formula_sum   'Pr4 Mn6 Sb8 S24'
_cell_volume   942.00006694
_cell_formula_units_Z   2
loop_
 _symmetry_equiv_pos_site_id
 _symmetry_equiv_pos_as_xyz
  1  'x, y, z'
loop_
 _atom_site_type_symbol
 _atom_site_label
 _atom_site_symmetry_multiplicity
 _atom_site_fract_x
 _atom_site_fract_y
 _atom_site_fract_z
 _atom_site_occupancy
  Pr  Pr0  1  0.27805310  0.49114321  0.88439860  1
  Pr  Pr1  1  0.73453750  0.50848036  0.14340877  1
  Pr  Pr2  1  0.76327561  0.06158537  0.87212616  1
  Pr  Pr3  1  0.23340590  0.91746201  0.12368584  1
  Mn  Mn4  1  0.30061326  0.40568760  0.60727396  1
  Mn  Mn5  1  0.69308434  0.50647731  0.36207270  1
  Mn  Mn6  1  0.00767558  0.94744558  0.01485954  1
  Mn  Mn7  1  0.79621622  0.96347111  0.63117869  1
  Mn  Mn8  1  0.21514069  0.03487624  0.40427732  1
  Mn  Mn9  1  0.47611117  0.49152614  0.96772714  1
  Sb  Sb10  1  0.88956899  0.89216834  0.46186424  1
  Sb  Sb11  1  0.11927123  0.96811570  0.54317203  1
  Sb  Sb12  1  0.03675359  0.51967983  0.83182843  1
  Sb  Sb13  1  0.96618879  0.46261622  0.20327914  1
  Sb  Sb14  1  0.40950935  0.58217296  0.46374002  1
  Sb  Sb15  1  0.60385723  0.54885670  0.53859637  1
  Sb  Sb16  1  0.53131529  0.94157042  0.79957907  1
  Sb  Sb17  1  0.46736379  0.97477033  0.17898797  1
  S  S18  1  0.92800244  0.01055200  0.79497968  1
  S  S19  1  0.05387510  0.99970204  0.19010725  1
  S  S20  1  0.41326984  0.00462210  0.97502673  1
  S  S21  1  0.57801871  0.01308309  0.99504273  1
  S  S22  1  0.17196135  0.92491720  0.89652136  1
  S  S23  1  0.83303332  0.03648279  0.11043687  1
  S  S24  1  0.11207887  0.49989799  0.65126844  1
  S  S25  1  0.89656816  0.43243114  0.35206511  1
  S  S26  1  0.73490436  0.96082436  0.31361531  1
  S  S27  1  0.26577615  0.94798653  0.67503176  1
  S  S28  1  0.17147700  0.49681464  0.45051258  1
  S  S29  1  0.81044090  0.53152196  0.53970107  1
  S  S30  1  0.43046587  0.44930628  0.78992056  1
  S  S31  1  0.56522988  0.48621958  0.20385290  1
  S  S32  1  0.91740794  0.48782455  0.99581657  1
  S  S33  1  0.08416687  0.44314948  0.03702109  1
  S  S34  1  0.67732466  0.57052679  0.91237257  1
  S  S35  1  0.33131371  0.40910849  0.11304156  1
  S  S36  1  0.59682304  0.02675133  0.64733655  1
  S  S37  1  0.40121115  0.00983529  0.33890584  1
  S  S38  1  0.24918118  0.53067242  0.33491369  1
  S  S39  1  0.75868251  0.53365769  0.69040172  1
  S  S40  1  0.66792387  0.92878876  0.44840816  1
  S  S41  1  0.33931468  0.90977080  0.56187887  1
