# generated using pymatgen
data_Pr2Mn3(SbS3)4
_symmetry_space_group_name_H-M   'P 1'
_cell_length_a   20.02960800
_cell_length_b   3.90410600
_cell_length_c   14.95364829
_cell_angle_alpha   90.00000000
_cell_angle_beta   126.33350609
_cell_angle_gamma   90.00000000
_symmetry_Int_Tables_number   1
_chemical_formula_structural   Pr2Mn3(SbS3)4
_chemical_formula_sum   'Pr4 Mn6 Sb8 S24'
_cell_volume   942.00006694
_cell_formula_units_Z   2
loop_
 _symmetry_equiv_pos_site_id
 _symmetry_equiv_pos_as_xyz
  1  'x, y, z'
loop_
 _atom_site_type_symbol
 _atom_site_label
 _atom_site_symmetry_multiplicity
 _atom_site_fract_x
 _atom_site_fract_y
 _atom_site_fract_z
 _atom_site_occupancy
  Pr  Pr0  1  0.27799981  0.49151324  0.88430639  1
  Pr  Pr1  1  0.73468627  0.50833648  0.14353997  1
  Pr  Pr2  1  0.76332667  0.06178048  0.87232027  1
  Pr  Pr3  1  0.23347254  0.91703518  0.12375429  1
  Mn  Mn4  1  0.30085033  0.40587462  0.60719750  1
  Mn  Mn5  1  0.69318650  0.50681346  0.36216080  1
  Mn  Mn6  1  0.00774708  0.94699054  0.01507104  1
  Mn  Mn7  1  0.79604151  0.96283819  0.63079412  1
  Mn  Mn8  1  0.21517167  0.03477599  0.40400636  1
  Mn  Mn9  1  0.47616060  0.49149234  0.96770238  1
  Sb  Sb10  1  0.88973552  0.89190432  0.46176905  1
  Sb  Sb11  1  0.11932200  0.96795206  0.54316660  1
  Sb  Sb12  1  0.03683466  0.51885858  0.83185701  1
  Sb  Sb13  1  0.96619007  0.46226671  0.20327871  1
  Sb  Sb14  1  0.40943778  0.58149072  0.46368902  1
  Sb  Sb15  1  0.60383192  0.54967517  0.53868789  1
  Sb  Sb16  1  0.53127547  0.94181388  0.79963452  1
  Sb  Sb17  1  0.46733698  0.97445881  0.17893851  1
  S  S18  1  0.92858265  0.01186394  0.79547091  1
  S  S19  1  0.05349014  0.00003824  0.18971550  1
  S  S20  1  0.41333696  0.00357293  0.97531758  1
  S  S21  1  0.57791345  0.01264707  0.99523100  1
  S  S22  1  0.17207545  0.92479894  0.89648793  1
  S  S23  1  0.83293840  0.03627008  0.11005130  1
  S  S24  1  0.11194513  0.50006163  0.65122701  1
  S  S25  1  0.89675744  0.43195187  0.35233136  1
  S  S26  1  0.73522873  0.96058713  0.31386783  1
  S  S27  1  0.26563735  0.94825421  0.67515722  1
  S  S28  1  0.17145937  0.49720779  0.45048549  1
  S  S29  1  0.81043342  0.53165675  0.53935049  1
  S  S30  1  0.43058456  0.45045867  0.79035844  1
  S  S31  1  0.56529132  0.48578531  0.20415238  1
  S  S32  1  0.91736090  0.48706676  0.99563300  1
  S  S33  1  0.08398529  0.44345903  0.03642478  1
  S  S34  1  0.67729222  0.57102433  0.91221339  1
  S  S35  1  0.33141441  0.40889938  0.11331904  1
  S  S36  1  0.59685454  0.02729408  0.64750716  1
  S  S37  1  0.40109690  0.01006599  0.33914084  1
  S  S38  1  0.24913110  0.53153975  0.33484432  1
  S  S39  1  0.75860788  0.53347521  0.69046643  1
  S  S40  1  0.66815679  0.92918230  0.44840483  1
  S  S41  1  0.33932772  0.90757904  0.56217591  1
