# generated using pymatgen
data_Pr2Mn3(SbS3)4
_symmetry_space_group_name_H-M   'P 1'
_cell_length_a   20.02960800
_cell_length_b   3.90410600
_cell_length_c   14.95364829
_cell_angle_alpha   90.00000000
_cell_angle_beta   126.33350609
_cell_angle_gamma   90.00000000
_symmetry_Int_Tables_number   1
_chemical_formula_structural   Pr2Mn3(SbS3)4
_chemical_formula_sum   'Pr4 Mn6 Sb8 S24'
_cell_volume   942.00006694
_cell_formula_units_Z   2
loop_
 _symmetry_equiv_pos_site_id
 _symmetry_equiv_pos_as_xyz
  1  'x, y, z'
loop_
 _atom_site_type_symbol
 _atom_site_label
 _atom_site_symmetry_multiplicity
 _atom_site_fract_x
 _atom_site_fract_y
 _atom_site_fract_z
 _atom_site_occupancy
  Pr  Pr0  1  0.27800787  0.49184268  0.88428311  1
  Pr  Pr1  1  0.73480510  0.50823297  0.14365216  1
  Pr  Pr2  1  0.76344792  0.06201857  0.87245130  1
  Pr  Pr3  1  0.23354041  0.91656307  0.12378485  1
  Mn  Mn4  1  0.30106249  0.40621885  0.60712113  1
  Mn  Mn5  1  0.69327589  0.50692243  0.36222730  1
  Mn  Mn6  1  0.00788535  0.94695997  0.01525927  1
  Mn  Mn7  1  0.79587140  0.96180830  0.63047586  1
  Mn  Mn8  1  0.21516618  0.03493093  0.40369694  1
  Mn  Mn9  1  0.47621372  0.49162183  0.96767366  1
  Sb  Sb10  1  0.88989454  0.89187481  0.46162906  1
  Sb  Sb11  1  0.11932780  0.96784151  0.54314434  1
  Sb  Sb12  1  0.03684047  0.51813056  0.83182857  1
  Sb  Sb13  1  0.96618695  0.46211562  0.20323855  1
  Sb  Sb14  1  0.40936254  0.58109725  0.46367925  1
  Sb  Sb15  1  0.60382689  0.55019684  0.53876751  1
  Sb  Sb16  1  0.53132486  0.94188149  0.79975454  1
  Sb  Sb17  1  0.46728895  0.97414878  0.17893931  1
  S  S18  1  0.92908053  0.01301243  0.79586557  1
  S  S19  1  0.05320467  0.00060439  0.18958295  1
  S  S20  1  0.41338430  0.00225935  0.97565423  1
  S  S21  1  0.57780513  0.01236054  0.99534924  1
  S  S22  1  0.17236499  0.92472019  0.89649911  1
  S  S23  1  0.83276490  0.03620442  0.10967831  1
  S  S24  1  0.11181046  0.50014300  0.65126495  1
  S  S25  1  0.89693892  0.43159141  0.35259250  1
  S  S26  1  0.73547113  0.96039610  0.31401965  1
  S  S27  1  0.26551740  0.94840090  0.67523304  1
  S  S28  1  0.17148108  0.49771092  0.45052314  1
  S  S29  1  0.81039860  0.53143152  0.53904757  1
  S  S30  1  0.43092155  0.45113791  0.79104313  1
  S  S31  1  0.56543349  0.48533979  0.20445839  1
  S  S32  1  0.91726139  0.48697859  0.99544154  1
  S  S33  1  0.08372561  0.44363056  0.03580721  1
  S  S34  1  0.67721459  0.57154513  0.91203416  1
  S  S35  1  0.33148971  0.40880808  0.11348809  1
  S  S36  1  0.59683563  0.02723148  0.64754174  1
  S  S37  1  0.40099948  0.01047747  0.33937975  1
  S  S38  1  0.24904706  0.53200683  0.33488001  1
  S  S39  1  0.75853463  0.53325672  0.69050160  1
  S  S40  1  0.66826884  0.92929319  0.44819750  1
  S  S41  1  0.33925854  0.90545908  0.56234771  1
