# generated using pymatgen
data_Pr2Mn3(SbS3)4
_symmetry_space_group_name_H-M   'P 1'
_cell_length_a   20.02960800
_cell_length_b   3.90410600
_cell_length_c   14.95364829
_cell_angle_alpha   90.00000000
_cell_angle_beta   126.33350609
_cell_angle_gamma   90.00000000
_symmetry_Int_Tables_number   1
_chemical_formula_structural   Pr2Mn3(SbS3)4
_chemical_formula_sum   'Pr4 Mn6 Sb8 S24'
_cell_volume   942.00006694
_cell_formula_units_Z   2
loop_
 _symmetry_equiv_pos_site_id
 _symmetry_equiv_pos_as_xyz
  1  'x, y, z'
loop_
 _atom_site_type_symbol
 _atom_site_label
 _atom_site_symmetry_multiplicity
 _atom_site_fract_x
 _atom_site_fract_y
 _atom_site_fract_z
 _atom_site_occupancy
  Pr  Pr0  1  0.26466570  0.47455567  0.86930624  1
  Pr  Pr1  1  0.73786955  0.51640545  0.13680823  1
  Pr  Pr2  1  0.76393775  0.01369528  0.86426505  1
  Pr  Pr3  1  0.23619638  0.00296264  0.13855866  1
  Mn  Mn4  1  0.29230561  0.48629165  0.60307042  1
  Mn  Mn5  1  0.69397435  0.52715136  0.37992473  1
  Mn  Mn6  1  0.00580499  0.99398436  0.00419758  1
  Mn  Mn7  1  0.80248031  0.00118298  0.61518006  1
  Mn  Mn8  1  0.19459852  0.97113379  0.37740680  1
  Mn  Mn9  1  0.50113117  0.46616918  0.99221621  1
  Sb  Sb10  1  0.88998009  0.99514962  0.45252249  1
  Sb  Sb11  1  0.11169960  0.96348573  0.55200644  1
  Sb  Sb12  1  0.03997132  0.51358945  0.81791106  1
  Sb  Sb13  1  0.96258261  0.51865111  0.18649293  1
  Sb  Sb14  1  0.39819841  0.50331441  0.45785604  1
  Sb  Sb15  1  0.60623473  0.48423225  0.54686485  1
  Sb  Sb16  1  0.53400349  0.01135590  0.81221174  1
  Sb  Sb17  1  0.46179507  0.00831084  0.18252426  1
  S  S18  1  0.93741758  0.97712297  0.80477194  1
  S  S19  1  0.06565968  0.97626649  0.18669879  1
  S  S20  1  0.41068633  0.01491940  0.97914992  1
  S  S21  1  0.59260215  0.99893871  0.02616196  1
  S  S22  1  0.17346018  0.98561455  0.89466036  1
  S  S23  1  0.82500320  0.01613752  0.09667799  1
  S  S24  1  0.08619834  0.46460192  0.64561050  1
  S  S25  1  0.91190572  0.48059964  0.35789810  1
  S  S26  1  0.74065127  0.95798256  0.29813778  1
  S  S27  1  0.25846452  0.99505996  0.70453159  1
  S  S28  1  0.17082683  0.49019671  0.44672127  1
  S  S29  1  0.82857905  0.48923458  0.54983267  1
  S  S30  1  0.43247119  0.49812067  0.79800079  1
  S  S31  1  0.56171108  0.52160140  0.18584375  1
  S  S32  1  0.91244879  0.50140646  0.99328545  1
  S  S33  1  0.08246805  0.49796067  0.01466868  1
  S  S34  1  0.66515064  0.48737468  0.88776988  1
  S  S35  1  0.32735562  0.51481249  0.09419889  1
  S  S36  1  0.59330698  0.00405183  0.65661448  1
  S  S37  1  0.40646808  0.97281249  0.34479936  1
  S  S38  1  0.24440813  0.46509188  0.30862575  1
  S  S39  1  0.76183126  0.50542218  0.70029532  1
  S  S40  1  0.67451788  0.02380739  0.45940144  1
  S  S41  1  0.32769634  0.98319922  0.54247958  1
