# generated using pymatgen
data_Pr2Mn3(SbS3)4
_symmetry_space_group_name_H-M   'P 1'
_cell_length_a   20.02960800
_cell_length_b   3.90410600
_cell_length_c   14.95364829
_cell_angle_alpha   90.00000000
_cell_angle_beta   126.33350609
_cell_angle_gamma   90.00000000
_symmetry_Int_Tables_number   1
_chemical_formula_structural   Pr2Mn3(SbS3)4
_chemical_formula_sum   'Pr4 Mn6 Sb8 S24'
_cell_volume   942.00006694
_cell_formula_units_Z   2
loop_
 _symmetry_equiv_pos_site_id
 _symmetry_equiv_pos_as_xyz
  1  'x, y, z'
loop_
 _atom_site_type_symbol
 _atom_site_label
 _atom_site_symmetry_multiplicity
 _atom_site_fract_x
 _atom_site_fract_y
 _atom_site_fract_z
 _atom_site_occupancy
  Pr  Pr0  1  0.27800393  0.49196040  0.88425227  1
  Pr  Pr1  1  0.73491778  0.50809861  0.14373986  1
  Pr  Pr2  1  0.76355614  0.06239320  0.87253259  1
  Pr  Pr3  1  0.23364925  0.91600251  0.12391471  1
  Mn  Mn4  1  0.30121765  0.40689860  0.60710803  1
  Mn  Mn5  1  0.69335806  0.50666832  0.36228896  1
  Mn  Mn6  1  0.00795781  0.94694283  0.01544584  1
  Mn  Mn7  1  0.79576294  0.96087001  0.63012420  1
  Mn  Mn8  1  0.21517109  0.03535659  0.40343647  1
  Mn  Mn9  1  0.47622573  0.49185418  0.96759049  1
  Sb  Sb10  1  0.88999829  0.89211749  0.46136036  1
  Sb  Sb11  1  0.11929528  0.96804321  0.54305520  1
  Sb  Sb12  1  0.03685848  0.51739675  0.83178678  1
  Sb  Sb13  1  0.96617395  0.46214678  0.20318841  1
  Sb  Sb14  1  0.40926744  0.58063954  0.46369995  1
  Sb  Sb15  1  0.60382668  0.55067453  0.53886070  1
  Sb  Sb16  1  0.53137849  0.94186377  0.79990505  1
  Sb  Sb17  1  0.46721718  0.97366166  0.17894473  1
  S  S18  1  0.92963308  0.01418145  0.79636118  1
  S  S19  1  0.05291882  0.00114952  0.18950628  1
  S  S20  1  0.41332632  0.00090634  0.97583487  1
  S  S21  1  0.57762462  0.01169792  0.99543649  1
  S  S22  1  0.17260983  0.92469392  0.89644761  1
  S  S23  1  0.83270483  0.03620026  0.10946413  1
  S  S24  1  0.11163571  0.50042127  0.65118739  1
  S  S25  1  0.89711304  0.43091277  0.35276946  1
  S  S26  1  0.73575788  0.96020776  0.31422417  1
  S  S27  1  0.26537309  0.94868803  0.67522029  1
  S  S28  1  0.17138605  0.49816071  0.45042592  1
  S  S29  1  0.81034809  0.53095600  0.53889231  1
  S  S30  1  0.43123222  0.45144793  0.79168521  1
  S  S31  1  0.56548251  0.48511583  0.20469525  1
  S  S32  1  0.91716873  0.48753393  0.99524125  1
  S  S33  1  0.08340909  0.44394305  0.03526659  1
  S  S34  1  0.67700495  0.57184559  0.91179371  1
  S  S35  1  0.33150972  0.40904914  0.11358801  1
  S  S36  1  0.59691559  0.02743788  0.64767179  1
  S  S37  1  0.40100546  0.01060133  0.33967779  1
  S  S38  1  0.24903014  0.53304915  0.33506540  1
  S  S39  1  0.75844183  0.53285238  0.69032530  1
  S  S40  1  0.66840709  0.92970621  0.44814495  1
  S  S41  1  0.33923357  0.90335191  0.56255062  1
