# generated using pymatgen
data_Pr2Mn3(SbS3)4
_symmetry_space_group_name_H-M   'P 1'
_cell_length_a   20.02960800
_cell_length_b   3.90410600
_cell_length_c   14.95364829
_cell_angle_alpha   90.00000000
_cell_angle_beta   126.33350609
_cell_angle_gamma   90.00000000
_symmetry_Int_Tables_number   1
_chemical_formula_structural   Pr2Mn3(SbS3)4
_chemical_formula_sum   'Pr4 Mn6 Sb8 S24'
_cell_volume   942.00006694
_cell_formula_units_Z   2
loop_
 _symmetry_equiv_pos_site_id
 _symmetry_equiv_pos_as_xyz
  1  'x, y, z'
loop_
 _atom_site_type_symbol
 _atom_site_label
 _atom_site_symmetry_multiplicity
 _atom_site_fract_x
 _atom_site_fract_y
 _atom_site_fract_z
 _atom_site_occupancy
  Pr  Pr0  1  0.27795784  0.49218583  0.88422638  1
  Pr  Pr1  1  0.73491186  0.50809737  0.14374790  1
  Pr  Pr2  1  0.76365720  0.06270795  0.87261697  1
  Pr  Pr3  1  0.23379338  0.91558924  0.12406595  1
  Mn  Mn4  1  0.30139566  0.40736607  0.60710442  1
  Mn  Mn5  1  0.69352913  0.50636400  0.36243740  1
  Mn  Mn6  1  0.00798920  0.94675236  0.01568820  1
  Mn  Mn7  1  0.79574371  0.96015249  0.63003293  1
  Mn  Mn8  1  0.21518492  0.03553809  0.40328764  1
  Mn  Mn9  1  0.47616843  0.49220471  0.96741844  1
  Sb  Sb10  1  0.89010105  0.89236252  0.46103674  1
  Sb  Sb11  1  0.11921623  0.96822158  0.54292712  1
  Sb  Sb12  1  0.03693038  0.51635451  0.83183947  1
  Sb  Sb13  1  0.96620674  0.46252954  0.20318819  1
  Sb  Sb14  1  0.40918209  0.58022673  0.46373346  1
  Sb  Sb15  1  0.60382746  0.55114509  0.53892811  1
  Sb  Sb16  1  0.53144541  0.94199992  0.80007476  1
  Sb  Sb17  1  0.46719367  0.97316032  0.17904064  1
  S  S18  1  0.93032101  0.01495582  0.79696943  1
  S  S19  1  0.05270881  0.00120762  0.18942062  1
  S  S20  1  0.41326209  0.00002994  0.97592812  1
  S  S21  1  0.57754122  0.01135331  0.99575706  1
  S  S22  1  0.17293679  0.92507293  0.89658390  1
  S  S23  1  0.83258013  0.03618067  0.10920039  1
  S  S24  1  0.11135509  0.50064052  0.65105246  1
  S  S25  1  0.89729311  0.43035510  0.35296971  1
  S  S26  1  0.73594073  0.95993724  0.31430907  1
  S  S27  1  0.26518189  0.94863970  0.67518269  1
  S  S28  1  0.17125016  0.49815031  0.45032282  1
  S  S29  1  0.81034656  0.53041491  0.53882419  1
  S  S30  1  0.43151005  0.45145068  0.79236356  1
  S  S31  1  0.56545071  0.48551180  0.20457843  1
  S  S32  1  0.91707895  0.48780910  0.99501962  1
  S  S33  1  0.08305961  0.44392811  0.03467412  1
  S  S34  1  0.67688958  0.57212563  0.91154720  1
  S  S35  1  0.33146062  0.40926963  0.11361767  1
  S  S36  1  0.59720292  0.02727789  0.64789745  1
  S  S37  1  0.40110692  0.01097315  0.34008688  1
  S  S38  1  0.24895534  0.53396625  0.33514190  1
  S  S39  1  0.75844341  0.53257491  0.69022730  1
  S  S40  1  0.66853443  0.93042210  0.44800456  1
  S  S41  1  0.33919120  0.90074957  0.56268886  1
