# generated using pymatgen
data_Pr2Mn3(SbS3)4
_symmetry_space_group_name_H-M   'P 1'
_cell_length_a   20.02960800
_cell_length_b   3.90410600
_cell_length_c   14.95364829
_cell_angle_alpha   90.00000000
_cell_angle_beta   126.33350609
_cell_angle_gamma   90.00000000
_symmetry_Int_Tables_number   1
_chemical_formula_structural   Pr2Mn3(SbS3)4
_chemical_formula_sum   'Pr4 Mn6 Sb8 S24'
_cell_volume   942.00006694
_cell_formula_units_Z   2
loop_
 _symmetry_equiv_pos_site_id
 _symmetry_equiv_pos_as_xyz
  1  'x, y, z'
loop_
 _atom_site_type_symbol
 _atom_site_label
 _atom_site_symmetry_multiplicity
 _atom_site_fract_x
 _atom_site_fract_y
 _atom_site_fract_z
 _atom_site_occupancy
  Pr  Pr0  1  0.27789740  0.49244990  0.88413361  1
  Pr  Pr1  1  0.73493341  0.50841170  0.14377566  1
  Pr  Pr2  1  0.76375003  0.06294497  0.87274691  1
  Pr  Pr3  1  0.23393390  0.91541094  0.12417911  1
  Mn  Mn4  1  0.30160520  0.40788004  0.60716169  1
  Mn  Mn5  1  0.69358602  0.50664442  0.36248480  1
  Mn  Mn6  1  0.00800420  0.94646433  0.01591095  1
  Mn  Mn7  1  0.79568819  0.95944063  0.62978784  1
  Mn  Mn8  1  0.21523708  0.03585870  0.40315466  1
  Mn  Mn9  1  0.47617223  0.49210283  0.96723348  1
  Sb  Sb10  1  0.89021059  0.89260005  0.46076674  1
  Sb  Sb11  1  0.11915065  0.96826741  0.54282520  1
  Sb  Sb12  1  0.03705097  0.51536586  0.83188355  1
  Sb  Sb13  1  0.96625709  0.46291288  0.20315719  1
  Sb  Sb14  1  0.40909263  0.57968666  0.46375895  1
  Sb  Sb15  1  0.60386500  0.55149207  0.53893154  1
  Sb  Sb16  1  0.53147758  0.94223590  0.80016642  1
  Sb  Sb17  1  0.46722232  0.97277592  0.17919467  1
  S  S18  1  0.93088548  0.01579317  0.79750334  1
  S  S19  1  0.05251714  0.00109236  0.18934656  1
  S  S20  1  0.41328326  0.99917357  0.97605664  1
  S  S21  1  0.57757228  0.01099282  0.99612286  1
  S  S22  1  0.17317167  0.92518164  0.89664865  1
  S  S23  1  0.83252525  0.03602898  0.10916683  1
  S  S24  1  0.11108008  0.50030171  0.65100713  1
  S  S25  1  0.89740151  0.42997719  0.35313333  1
  S  S26  1  0.73605994  0.96010820  0.31432790  1
  S  S27  1  0.26501711  0.94896098  0.67517092  1
  S  S28  1  0.17112303  0.49853222  0.45023148  1
  S  S29  1  0.81040812  0.53026193  0.53889848  1
  S  S30  1  0.43177256  0.45130452  0.79288977  1
  S  S31  1  0.56541075  0.48573152  0.20445892  1
  S  S32  1  0.91698667  0.48790410  0.99468698  1
  S  S33  1  0.08302460  0.44409756  0.03437467  1
  S  S34  1  0.67676700  0.57212012  0.91131842  1
  S  S35  1  0.33133059  0.40927719  0.11348440  1
  S  S36  1  0.59744249  0.02732619  0.64807218  1
  S  S37  1  0.40128306  0.01149905  0.34055897  1
  S  S38  1  0.24895826  0.53467678  0.33531079  1
  S  S39  1  0.75849239  0.53183144  0.69019163  1
  S  S40  1  0.66853117  0.93071447  0.44787290  1
  S  S41  1  0.33919532  0.89850115  0.56284722  1
