# generated using pymatgen
data_Pr2Mn3(SbS3)4
_symmetry_space_group_name_H-M   'P 1'
_cell_length_a   20.02960800
_cell_length_b   3.90410600
_cell_length_c   14.95364829
_cell_angle_alpha   90.00000000
_cell_angle_beta   126.33350609
_cell_angle_gamma   90.00000000
_symmetry_Int_Tables_number   1
_chemical_formula_structural   Pr2Mn3(SbS3)4
_chemical_formula_sum   'Pr4 Mn6 Sb8 S24'
_cell_volume   942.00006694
_cell_formula_units_Z   2
loop_
 _symmetry_equiv_pos_site_id
 _symmetry_equiv_pos_as_xyz
  1  'x, y, z'
loop_
 _atom_site_type_symbol
 _atom_site_label
 _atom_site_symmetry_multiplicity
 _atom_site_fract_x
 _atom_site_fract_y
 _atom_site_fract_z
 _atom_site_occupancy
  Pr  Pr0  1  0.27779606  0.49242654  0.88396992  1
  Pr  Pr1  1  0.73502667  0.50866857  0.14387939  1
  Pr  Pr2  1  0.76381744  0.06325735  0.87283934  1
  Pr  Pr3  1  0.23412215  0.91516161  0.12434029  1
  Mn  Mn4  1  0.30185057  0.40883193  0.60735006  1
  Mn  Mn5  1  0.69365730  0.50719767  0.36251781  1
  Mn  Mn6  1  0.00793350  0.94603711  0.01612158  1
  Mn  Mn7  1  0.79565013  0.95874496  0.62961353  1
  Mn  Mn8  1  0.21533819  0.03577775  0.40311165  1
  Mn  Mn9  1  0.47606075  0.49156778  0.96695777  1
  Sb  Sb10  1  0.89036164  0.89271942  0.46059460  1
  Sb  Sb11  1  0.11909502  0.96818437  0.54278694  1
  Sb  Sb12  1  0.03715503  0.51466873  0.83191831  1
  Sb  Sb13  1  0.96637347  0.46340872  0.20325057  1
  Sb  Sb14  1  0.40903658  0.57913436  0.46378580  1
  Sb  Sb15  1  0.60387525  0.55178893  0.53888095  1
  Sb  Sb16  1  0.53152428  0.94271332  0.80022014  1
  Sb  Sb17  1  0.46726511  0.97230148  0.17934341  1
  S  S18  1  0.93141873  0.01638884  0.79804099  1
  S  S19  1  0.05236360  0.00130279  0.18931962  1
  S  S20  1  0.41340489  0.99765051  0.97620793  1
  S  S21  1  0.57758948  0.01049097  0.99654261  1
  S  S22  1  0.17334577  0.92521974  0.89647939  1
  S  S23  1  0.83251338  0.03607802  0.10932187  1
  S  S24  1  0.11087276  0.49994110  0.65110834  1
  S  S25  1  0.89750502  0.42945493  0.35331859  1
  S  S26  1  0.73601285  0.96015717  0.31424943  1
  S  S27  1  0.26497194  0.94901777  0.67527146  1
  S  S28  1  0.17105941  0.49859262  0.45013101  1
  S  S29  1  0.81045352  0.52978513  0.53896855  1
  S  S30  1  0.43205608  0.45146007  0.79356536  1
  S  S31  1  0.56535491  0.48622129  0.20439114  1
  S  S32  1  0.91699498  0.48779564  0.99450395  1
  S  S33  1  0.08308901  0.44433029  0.03408316  1
  S  S34  1  0.67667498  0.57218535  0.91104890  1
  S  S35  1  0.33123529  0.40944405  0.11332509  1
  S  S36  1  0.59761619  0.02738893  0.64818146  1
  S  S37  1  0.40146326  0.01170579  0.34097722  1
  S  S38  1  0.24897713  0.53518666  0.33557995  1
  S  S39  1  0.75853944  0.53094688  0.69018664  1
  S  S40  1  0.66853115  0.93129318  0.44788191  1
  S  S41  1  0.33912003  0.89680260  0.56290078  1
