# generated using pymatgen
data_Pr2Mn3(SbS3)4
_symmetry_space_group_name_H-M   'P 1'
_cell_length_a   20.02960800
_cell_length_b   3.90410600
_cell_length_c   14.95364829
_cell_angle_alpha   90.00000000
_cell_angle_beta   126.33350609
_cell_angle_gamma   90.00000000
_symmetry_Int_Tables_number   1
_chemical_formula_structural   Pr2Mn3(SbS3)4
_chemical_formula_sum   'Pr4 Mn6 Sb8 S24'
_cell_volume   942.00006694
_cell_formula_units_Z   2
loop_
 _symmetry_equiv_pos_site_id
 _symmetry_equiv_pos_as_xyz
  1  'x, y, z'
loop_
 _atom_site_type_symbol
 _atom_site_label
 _atom_site_symmetry_multiplicity
 _atom_site_fract_x
 _atom_site_fract_y
 _atom_site_fract_z
 _atom_site_occupancy
  Pr  Pr0  1  0.27773367  0.49251933  0.88388047  1
  Pr  Pr1  1  0.73515480  0.50900061  0.14404267  1
  Pr  Pr2  1  0.76388180  0.06329633  0.87295156  1
  Pr  Pr3  1  0.23432969  0.91480069  0.12453690  1
  Mn  Mn4  1  0.30204524  0.40915991  0.60749078  1
  Mn  Mn5  1  0.69370249  0.50764437  0.36259433  1
  Mn  Mn6  1  0.00778856  0.94584781  0.01627832  1
  Mn  Mn7  1  0.79555618  0.95766127  0.62928116  1
  Mn  Mn8  1  0.21544594  0.03560611  0.40308480  1
  Mn  Mn9  1  0.47592777  0.49099215  0.96663134  1
  Sb  Sb10  1  0.89043648  0.89273292  0.46036691  1
  Sb  Sb11  1  0.11904874  0.96811824  0.54274767  1
  Sb  Sb12  1  0.03719917  0.51413419  0.83195997  1
  Sb  Sb13  1  0.96650063  0.46397526  0.20332988  1
  Sb  Sb14  1  0.40892276  0.57888801  0.46372814  1
  Sb  Sb15  1  0.60389634  0.55200408  0.53884335  1
  Sb  Sb16  1  0.53160044  0.94337667  0.80031250  1
  Sb  Sb17  1  0.46728765  0.97194315  0.17950206  1
  S  S18  1  0.93179914  0.01674847  0.79854828  1
  S  S19  1  0.05233845  0.00144452  0.18947996  1
  S  S20  1  0.41349468  0.99630772  0.97636537  1
  S  S21  1  0.57763362  0.00992681  0.99698228  1
  S  S22  1  0.17359958  0.92525783  0.89643669  1
  S  S23  1  0.83252003  0.03596286  0.10939610  1
  S  S24  1  0.11073397  0.49944049  0.65120315  1
  S  S25  1  0.89759959  0.42876554  0.35345213  1
  S  S26  1  0.73591077  0.96045281  0.31424734  1
  S  S27  1  0.26498162  0.94915037  0.67542272  1
  S  S28  1  0.17098056  0.49835674  0.44989867  1
  S  S29  1  0.81055136  0.52916179  0.53913898  1
  S  S30  1  0.43231684  0.45151149  0.79425149  1
  S  S31  1  0.56525234  0.48667163  0.20437028  1
  S  S32  1  0.91704594  0.48769904  0.99433510  1
  S  S33  1  0.08306947  0.44456886  0.03372703  1
  S  S34  1  0.67658312  0.57221676  0.91080271  1
  S  S35  1  0.33112029  0.40956375  0.11320904  1
  S  S36  1  0.59780067  0.02758771  0.64844974  1
  S  S37  1  0.40160489  0.01242422  0.34116407  1
  S  S38  1  0.24884767  0.53588841  0.33567626  1
  S  S39  1  0.75859591  0.52945683  0.69020115  1
  S  S40  1  0.66852875  0.93209570  0.44779976  1
  S  S41  1  0.33911176  0.89487604  0.56294821  1
