# generated using pymatgen
data_Pr2Mn3(SbS3)4
_symmetry_space_group_name_H-M   'P 1'
_cell_length_a   20.02960800
_cell_length_b   3.90410600
_cell_length_c   14.95364829
_cell_angle_alpha   90.00000000
_cell_angle_beta   126.33350609
_cell_angle_gamma   90.00000000
_symmetry_Int_Tables_number   1
_chemical_formula_structural   Pr2Mn3(SbS3)4
_chemical_formula_sum   'Pr4 Mn6 Sb8 S24'
_cell_volume   942.00006694
_cell_formula_units_Z   2
loop_
 _symmetry_equiv_pos_site_id
 _symmetry_equiv_pos_as_xyz
  1  'x, y, z'
loop_
 _atom_site_type_symbol
 _atom_site_label
 _atom_site_symmetry_multiplicity
 _atom_site_fract_x
 _atom_site_fract_y
 _atom_site_fract_z
 _atom_site_occupancy
  Pr  Pr0  1  0.27769342  0.49251480  0.88379029  1
  Pr  Pr1  1  0.73521009  0.50926910  0.14416422  1
  Pr  Pr2  1  0.76391649  0.06351918  0.87303761  1
  Pr  Pr3  1  0.23449628  0.91415094  0.12468070  1
  Mn  Mn4  1  0.30216366  0.40960995  0.60756974  1
  Mn  Mn5  1  0.69369922  0.50833637  0.36255641  1
  Mn  Mn6  1  0.00771437  0.94601263  0.01647352  1
  Mn  Mn7  1  0.79548860  0.95671424  0.62896096  1
  Mn  Mn8  1  0.21557340  0.03564621  0.40305147  1
  Mn  Mn9  1  0.47581433  0.49030373  0.96636609  1
  Sb  Sb10  1  0.89045408  0.89266831  0.46016985  1
  Sb  Sb11  1  0.11901856  0.96795099  0.54265312  1
  Sb  Sb12  1  0.03725282  0.51352582  0.83196891  1
  Sb  Sb13  1  0.96661723  0.46470322  0.20338479  1
  Sb  Sb14  1  0.40881142  0.57875988  0.46368152  1
  Sb  Sb15  1  0.60389021  0.55225367  0.53883526  1
  Sb  Sb16  1  0.53166159  0.94410338  0.80040511  1
  Sb  Sb17  1  0.46736517  0.97156692  0.17968589  1
  S  S18  1  0.93201911  0.01703513  0.79890857  1
  S  S19  1  0.05234451  0.00213362  0.18970970  1
  S  S20  1  0.41363338  0.99537863  0.97653264  1
  S  S21  1  0.57772261  0.00963607  0.99728633  1
  S  S22  1  0.17383968  0.92556395  0.89646591  1
  S  S23  1  0.83258396  0.03542192  0.10954596  1
  S  S24  1  0.11054738  0.49965796  0.65116635  1
  S  S25  1  0.89764341  0.42788136  0.35346742  1
  S  S26  1  0.73597578  0.96053227  0.31442182  1
  S  S27  1  0.26491599  0.94899248  0.67553466  1
  S  S28  1  0.17090687  0.49817030  0.44958263  1
  S  S29  1  0.81059009  0.52906396  0.53925767  1
  S  S30  1  0.43254394  0.45136174  0.79475451  1
  S  S31  1  0.56513950  0.48706574  0.20424608  1
  S  S32  1  0.91703406  0.48795383  0.99433399  1
  S  S33  1  0.08306728  0.44533270  0.03342323  1
  S  S34  1  0.67643674  0.57233521  0.91051509  1
  S  S35  1  0.33111828  0.40936078  0.11321364  1
  S  S36  1  0.59799561  0.02724481  0.64882023  1
  S  S37  1  0.40161149  0.01340221  0.34118014  1
  S  S38  1  0.24874119  0.53674863  0.33573669  1
  S  S39  1  0.75852156  0.52761871  0.69018918  1
  S  S40  1  0.66848654  0.93288196  0.44766714  1
  S  S41  1  0.33910216  0.89319811  0.56294184  1
