# generated using pymatgen
data_Pr2Mn3(SbS3)4
_symmetry_space_group_name_H-M   'P 1'
_cell_length_a   20.02960800
_cell_length_b   3.90410600
_cell_length_c   14.95364829
_cell_angle_alpha   90.00000000
_cell_angle_beta   126.33350609
_cell_angle_gamma   90.00000000
_symmetry_Int_Tables_number   1
_chemical_formula_structural   Pr2Mn3(SbS3)4
_chemical_formula_sum   'Pr4 Mn6 Sb8 S24'
_cell_volume   942.00006694
_cell_formula_units_Z   2
loop_
 _symmetry_equiv_pos_site_id
 _symmetry_equiv_pos_as_xyz
  1  'x, y, z'
loop_
 _atom_site_type_symbol
 _atom_site_label
 _atom_site_symmetry_multiplicity
 _atom_site_fract_x
 _atom_site_fract_y
 _atom_site_fract_z
 _atom_site_occupancy
  Pr  Pr0  1  0.27769373  0.49263736  0.88376891  1
  Pr  Pr1  1  0.73528911  0.50945143  0.14426834  1
  Pr  Pr2  1  0.76393890  0.06369185  0.87318823  1
  Pr  Pr3  1  0.23468445  0.91352291  0.12481448  1
  Mn  Mn4  1  0.30241410  0.40998133  0.60778605  1
  Mn  Mn5  1  0.69369888  0.50917772  0.36249828  1
  Mn  Mn6  1  0.00766059  0.94605900  0.01672640  1
  Mn  Mn7  1  0.79543564  0.95609014  0.62858668  1
  Mn  Mn8  1  0.21583352  0.03638720  0.40314089  1
  Mn  Mn9  1  0.47567232  0.49027728  0.96608495  1
  Sb  Sb10  1  0.89050423  0.89248183  0.46007244  1
  Sb  Sb11  1  0.11896429  0.96764577  0.54254374  1
  Sb  Sb12  1  0.03733740  0.51299071  0.83197390  1
  Sb  Sb13  1  0.96669248  0.46555868  0.20347137  1
  Sb  Sb14  1  0.40868240  0.57857335  0.46351485  1
  Sb  Sb15  1  0.60385554  0.55245349  0.53875698  1
  Sb  Sb16  1  0.53175211  0.94464729  0.80052390  1
  Sb  Sb17  1  0.46742163  0.97142937  0.17984109  1
  S  S18  1  0.93234914  0.01723637  0.79921113  1
  S  S19  1  0.05240213  0.00304156  0.18996322  1
  S  S20  1  0.41369483  0.99435774  0.97658172  1
  S  S21  1  0.57779655  0.00934730  0.99763584  1
  S  S22  1  0.17419199  0.92573033  0.89655701  1
  S  S23  1  0.83253724  0.03457430  0.10964331  1
  S  S24  1  0.11033372  0.50018079  0.65101938  1
  S  S25  1  0.89751430  0.42701756  0.35344926  1
  S  S26  1  0.73596793  0.96072179  0.31470360  1
  S  S27  1  0.26472741  0.94845942  0.67545590  1
  S  S28  1  0.17083929  0.49789416  0.44942811  1
  S  S29  1  0.81047991  0.52903911  0.53919794  1
  S  S30  1  0.43273828  0.45160173  0.79522820  1
  S  S31  1  0.56509897  0.48751721  0.20415026  1
  S  S32  1  0.91708219  0.48770357  0.99433049  1
  S  S33  1  0.08295197  0.44581039  0.03299599  1
  S  S34  1  0.67633709  0.57194547  0.91017734  1
  S  S35  1  0.33119060  0.40959262  0.11322496  1
  S  S36  1  0.59820008  0.02678243  0.64934159  1
  S  S37  1  0.40163017  0.01451116  0.34121875  1
  S  S38  1  0.24859085  0.53699724  0.33573964  1
  S  S39  1  0.75831267  0.52602904  0.69025587  1
  S  S40  1  0.66845547  0.93356439  0.44748573  1
  S  S41  1  0.33910036  0.89159389  0.56290898  1
