# generated using pymatgen
data_Pr2Mn3(SbS3)4
_symmetry_space_group_name_H-M   'P 1'
_cell_length_a   20.02960800
_cell_length_b   3.90410600
_cell_length_c   14.95364829
_cell_angle_alpha   90.00000000
_cell_angle_beta   126.33350609
_cell_angle_gamma   90.00000000
_symmetry_Int_Tables_number   1
_chemical_formula_structural   Pr2Mn3(SbS3)4
_chemical_formula_sum   'Pr4 Mn6 Sb8 S24'
_cell_volume   942.00006694
_cell_formula_units_Z   2
loop_
 _symmetry_equiv_pos_site_id
 _symmetry_equiv_pos_as_xyz
  1  'x, y, z'
loop_
 _atom_site_type_symbol
 _atom_site_label
 _atom_site_symmetry_multiplicity
 _atom_site_fract_x
 _atom_site_fract_y
 _atom_site_fract_z
 _atom_site_occupancy
  Pr  Pr0  1  0.27766474  0.49281384  0.88368553  1
  Pr  Pr1  1  0.73538476  0.50977406  0.14431739  1
  Pr  Pr2  1  0.76399102  0.06370316  0.87330356  1
  Pr  Pr3  1  0.23483023  0.91278184  0.12496077  1
  Mn  Mn4  1  0.30264628  0.40994333  0.60800151  1
  Mn  Mn5  1  0.69367060  0.51006476  0.36242664  1
  Mn  Mn6  1  0.00769428  0.94579913  0.01705385  1
  Mn  Mn7  1  0.79539712  0.95558891  0.62834370  1
  Mn  Mn8  1  0.21607967  0.03708632  0.40328866  1
  Mn  Mn9  1  0.47553089  0.49036246  0.96584898  1
  Sb  Sb10  1  0.89057537  0.89240214  0.45996335  1
  Sb  Sb11  1  0.11895804  0.96738776  0.54243315  1
  Sb  Sb12  1  0.03740723  0.51278485  0.83199232  1
  Sb  Sb13  1  0.96680203  0.46614828  0.20357053  1
  Sb  Sb14  1  0.40851120  0.57844000  0.46329203  1
  Sb  Sb15  1  0.60384464  0.55305720  0.53863398  1
  Sb  Sb16  1  0.53183026  0.94493464  0.80055992  1
  Sb  Sb17  1  0.46750070  0.97129043  0.18003752  1
  S  S18  1  0.93260441  0.01745202  0.79934893  1
  S  S19  1  0.05240151  0.00411881  0.19020250  1
  S  S20  1  0.41363515  0.99332340  0.97651249  1
  S  S21  1  0.57786404  0.00918041  0.99796538  1
  S  S22  1  0.17446929  0.92554004  0.89658244  1
  S  S23  1  0.83249864  0.03359035  0.10975215  1
  S  S24  1  0.11019273  0.50071362  0.65089512  1
  S  S25  1  0.89746554  0.42594057  0.35350880  1
  S  S26  1  0.73597741  0.96103992  0.31488740  1
  S  S27  1  0.26466649  0.94798026  0.67562392  1
  S  S28  1  0.17084188  0.49722424  0.44946526  1
  S  S29  1  0.81041655  0.52886385  0.53913322  1
  S  S30  1  0.43291672  0.45177690  0.79549137  1
  S  S31  1  0.56507105  0.48731439  0.20410373  1
  S  S32  1  0.91701390  0.48725893  0.99428321  1
  S  S33  1  0.08291329  0.44619528  0.03268489  1
  S  S34  1  0.67607635  0.57140845  0.90970187  1
  S  S35  1  0.33123472  0.40956276  0.11319463  1
  S  S36  1  0.59849502  0.02673223  0.65004236  1
  S  S37  1  0.40167500  0.01519091  0.34129196  1
  S  S38  1  0.24842045  0.53720565  0.33566598  1
  S  S39  1  0.75817866  0.52551018  0.69039627  1
  S  S40  1  0.66841932  0.93433758  0.44718913  1
  S  S41  1  0.33905750  0.89028593  0.56288135  1
