# generated using pymatgen
data_Pr2Mn3(SbS3)4
_symmetry_space_group_name_H-M   'P 1'
_cell_length_a   20.02960800
_cell_length_b   3.90410600
_cell_length_c   14.95364829
_cell_angle_alpha   90.00000000
_cell_angle_beta   126.33350609
_cell_angle_gamma   90.00000000
_symmetry_Int_Tables_number   1
_chemical_formula_structural   Pr2Mn3(SbS3)4
_chemical_formula_sum   'Pr4 Mn6 Sb8 S24'
_cell_volume   942.00006694
_cell_formula_units_Z   2
loop_
 _symmetry_equiv_pos_site_id
 _symmetry_equiv_pos_as_xyz
  1  'x, y, z'
loop_
 _atom_site_type_symbol
 _atom_site_label
 _atom_site_symmetry_multiplicity
 _atom_site_fract_x
 _atom_site_fract_y
 _atom_site_fract_z
 _atom_site_occupancy
  Pr  Pr0  1  0.27756684  0.49310940  0.88351531  1
  Pr  Pr1  1  0.73544859  0.51017063  0.14438212  1
  Pr  Pr2  1  0.76399112  0.06356681  0.87336806  1
  Pr  Pr3  1  0.23491597  0.91196953  0.12501259  1
  Mn  Mn4  1  0.30277835  0.40995133  0.60819604  1
  Mn  Mn5  1  0.69363123  0.51079547  0.36241559  1
  Mn  Mn6  1  0.00768154  0.94580435  0.01727884  1
  Mn  Mn7  1  0.79548846  0.95539751  0.62809170  1
  Mn  Mn8  1  0.21637600  0.03776803  0.40343538  1
  Mn  Mn9  1  0.47547426  0.49071235  0.96574794  1
  Sb  Sb10  1  0.89058113  0.89220671  0.45986029  1
  Sb  Sb11  1  0.11896327  0.96702443  0.54232705  1
  Sb  Sb12  1  0.03746954  0.51249254  0.83197321  1
  Sb  Sb13  1  0.96694024  0.46657541  0.20368173  1
  Sb  Sb14  1  0.40837070  0.57826072  0.46308076  1
  Sb  Sb15  1  0.60380295  0.55397347  0.53855431  1
  Sb  Sb16  1  0.53181079  0.94475356  0.80056641  1
  Sb  Sb17  1  0.46757076  0.97133930  0.18024453  1
  S  S18  1  0.93293120  0.01794469  0.79958187  1
  S  S19  1  0.05244884  0.00521401  0.19046807  1
  S  S20  1  0.41355732  0.99274297  0.97650425  1
  S  S21  1  0.57788256  0.00926722  0.99818475  1
  S  S22  1  0.17473527  0.92546328  0.89667404  1
  S  S23  1  0.83261194  0.03241702  0.10998433  1
  S  S24  1  0.10999802  0.50112112  0.65058860  1
  S  S25  1  0.89738002  0.42489161  0.35351656  1
  S  S26  1  0.73602511  0.96159238  0.31507910  1
  S  S27  1  0.26476821  0.94740452  0.67587799  1
  S  S28  1  0.17095113  0.49705058  0.44955316  1
  S  S29  1  0.81028070  0.52880848  0.53901829  1
  S  S30  1  0.43312495  0.45236414  0.79565314  1
  S  S31  1  0.56506572  0.48691846  0.20401295  1
  S  S32  1  0.91694569  0.48702860  0.99428877  1
  S  S33  1  0.08299353  0.44691901  0.03249598  1
  S  S34  1  0.67579947  0.57096726  0.90932328  1
  S  S35  1  0.33127977  0.40957098  0.11312800  1
  S  S36  1  0.59864684  0.02655289  0.65054815  1
  S  S37  1  0.40169087  0.01566929  0.34129027  1
  S  S38  1  0.24825793  0.53672500  0.33558540  1
  S  S39  1  0.75815699  0.52553817  0.69052253  1
  S  S40  1  0.66841915  0.93477209  0.44691938  1
  S  S41  1  0.33900097  0.88924575  0.56284782  1
