# generated using pymatgen
data_Pr2Mn3(SbS3)4
_symmetry_space_group_name_H-M   'P 1'
_cell_length_a   20.02960800
_cell_length_b   3.90410600
_cell_length_c   14.95364829
_cell_angle_alpha   90.00000000
_cell_angle_beta   126.33350609
_cell_angle_gamma   90.00000000
_symmetry_Int_Tables_number   1
_chemical_formula_structural   Pr2Mn3(SbS3)4
_chemical_formula_sum   'Pr4 Mn6 Sb8 S24'
_cell_volume   942.00006694
_cell_formula_units_Z   2
loop_
 _symmetry_equiv_pos_site_id
 _symmetry_equiv_pos_as_xyz
  1  'x, y, z'
loop_
 _atom_site_type_symbol
 _atom_site_label
 _atom_site_symmetry_multiplicity
 _atom_site_fract_x
 _atom_site_fract_y
 _atom_site_fract_z
 _atom_site_occupancy
  Pr  Pr0  1  0.27742828  0.49318181  0.88326094  1
  Pr  Pr1  1  0.73549824  0.51050749  0.14448828  1
  Pr  Pr2  1  0.76400768  0.06340087  0.87348645  1
  Pr  Pr3  1  0.23495577  0.91113651  0.12497236  1
  Mn  Mn4  1  0.30280752  0.41023728  0.60836626  1
  Mn  Mn5  1  0.69358077  0.51089018  0.36242881  1
  Mn  Mn6  1  0.00769394  0.94577487  0.01752881  1
  Mn  Mn7  1  0.79562905  0.95519851  0.62781498  1
  Mn  Mn8  1  0.21670536  0.03858786  0.40372420  1
  Mn  Mn9  1  0.47527509  0.49119298  0.96569009  1
  Sb  Sb10  1  0.89056156  0.89197813  0.45974573  1
  Sb  Sb11  1  0.11895286  0.96637534  0.54217103  1
  Sb  Sb12  1  0.03753438  0.51199596  0.83195962  1
  Sb  Sb13  1  0.96703149  0.46693671  0.20366995  1
  Sb  Sb14  1  0.40818776  0.57804315  0.46282702  1
  Sb  Sb15  1  0.60378893  0.55461041  0.53846439  1
  Sb  Sb16  1  0.53178421  0.94462544  0.80054634  1
  Sb  Sb17  1  0.46769001  0.97128747  0.18055768  1
  S  S18  1  0.93316946  0.01815032  0.79962149  1
  S  S19  1  0.05247417  0.00612461  0.19075453  1
  S  S20  1  0.41337588  0.99237111  0.97648638  1
  S  S21  1  0.57791662  0.00900093  0.99854680  1
  S  S22  1  0.17490100  0.92568098  0.89652248  1
  S  S23  1  0.83267864  0.03093037  0.11014527  1
  S  S24  1  0.10996188  0.50089824  0.65036812  1
  S  S25  1  0.89712478  0.42347270  0.35339267  1
  S  S26  1  0.73613160  0.96192470  0.31543499  1
  S  S27  1  0.26485785  0.94729886  0.67620132  1
  S  S28  1  0.17109707  0.49718533  0.44972333  1
  S  S29  1  0.81008125  0.52875348  0.53895028  1
  S  S30  1  0.43340463  0.45326871  0.79593508  1
  S  S31  1  0.56509784  0.48684158  0.20405864  1
  S  S32  1  0.91689865  0.48730106  0.99424093  1
  S  S33  1  0.08316795  0.44772075  0.03237063  1
  S  S34  1  0.67560087  0.57024755  0.90902929  1
  S  S35  1  0.33137706  0.40974608  0.11302340  1
  S  S36  1  0.59866587  0.02632927  0.65090672  1
  S  S37  1  0.40174881  0.01595978  0.34137172  1
  S  S38  1  0.24806448  0.53658882  0.33537902  1
  S  S39  1  0.75813408  0.52541537  0.69062479  1
  S  S40  1  0.66846699  0.93508608  0.44684386  1
  S  S41  1  0.33892914  0.88793888  0.56276804  1
