# generated using pymatgen
data_Pr2Mn3(SbS3)4
_symmetry_space_group_name_H-M   'P 1'
_cell_length_a   20.02960800
_cell_length_b   3.90410600
_cell_length_c   14.95364829
_cell_angle_alpha   90.00000000
_cell_angle_beta   126.33350609
_cell_angle_gamma   90.00000000
_symmetry_Int_Tables_number   1
_chemical_formula_structural   Pr2Mn3(SbS3)4
_chemical_formula_sum   'Pr4 Mn6 Sb8 S24'
_cell_volume   942.00006694
_cell_formula_units_Z   2
loop_
 _symmetry_equiv_pos_site_id
 _symmetry_equiv_pos_as_xyz
  1  'x, y, z'
loop_
 _atom_site_type_symbol
 _atom_site_label
 _atom_site_symmetry_multiplicity
 _atom_site_fract_x
 _atom_site_fract_y
 _atom_site_fract_z
 _atom_site_occupancy
  Pr  Pr0  1  0.26463995  0.47419029  0.86926656  1
  Pr  Pr1  1  0.73783186  0.51705308  0.13693026  1
  Pr  Pr2  1  0.76401211  0.01388602  0.86442883  1
  Pr  Pr3  1  0.23629261  0.00345213  0.13855227  1
  Mn  Mn4  1  0.29234556  0.48649484  0.60294379  1
  Mn  Mn5  1  0.69399764  0.52690966  0.38008198  1
  Mn  Mn6  1  0.00599567  0.99380170  0.00465270  1
  Mn  Mn7  1  0.80239925  0.00148619  0.61493616  1
  Mn  Mn8  1  0.19455500  0.97102284  0.37735454  1
  Mn  Mn9  1  0.50098318  0.46540175  0.99204143  1
  Sb  Sb10  1  0.88994876  0.99529547  0.45251923  1
  Sb  Sb11  1  0.11174424  0.96342295  0.55193661  1
  Sb  Sb12  1  0.03996827  0.51381640  0.81803083  1
  Sb  Sb13  1  0.96257913  0.51734384  0.18627945  1
  Sb  Sb14  1  0.39805433  0.50319687  0.45767466  1
  Sb  Sb15  1  0.60624292  0.48453917  0.54682826  1
  Sb  Sb16  1  0.53396639  0.01136702  0.81205052  1
  Sb  Sb17  1  0.46179208  0.00865636  0.18252851  1
  S  S18  1  0.93728260  0.97871180  0.80505827  1
  S  S19  1  0.06556043  0.97621653  0.18635138  1
  S  S20  1  0.41077356  0.01430009  0.97934591  1
  S  S21  1  0.59240863  0.99888395  0.02602809  1
  S  S22  1  0.17334337  0.98620264  0.89446513  1
  S  S23  1  0.82500036  0.01677326  0.09625880  1
  S  S24  1  0.08630032  0.46567675  0.64540413  1
  S  S25  1  0.91156558  0.47935374  0.35764631  1
  S  S26  1  0.74046192  0.95864122  0.29783945  1
  S  S27  1  0.25845568  0.99494630  0.70474098  1
  S  S28  1  0.17111707  0.48961676  0.44668901  1
  S  S29  1  0.82847187  0.49038921  0.54981138  1
  S  S30  1  0.43248588  0.49780702  0.79765454  1
  S  S31  1  0.56174723  0.51973076  0.18561089  1
  S  S32  1  0.91277764  0.50195010  0.99380166  1
  S  S33  1  0.08238691  0.49794574  0.01441642  1
  S  S34  1  0.66525594  0.48669795  0.88755532  1
  S  S35  1  0.32709308  0.51401233  0.09351482  1
  S  S36  1  0.59331130  0.00386002  0.65685664  1
  S  S37  1  0.40647713  0.97283502  0.34494648  1
  S  S38  1  0.24458062  0.46339368  0.30901354  1
  S  S39  1  0.76180860  0.50495543  0.70046468  1
  S  S40  1  0.67476675  0.02322914  0.45964594  1
  S  S41  1  0.32750948  0.98289999  0.54269848  1
