# generated using pymatgen
data_Pr2Mn3(SbS3)4
_symmetry_space_group_name_H-M   'P 1'
_cell_length_a   20.02960800
_cell_length_b   3.90410600
_cell_length_c   14.95364829
_cell_angle_alpha   90.00000000
_cell_angle_beta   126.33350609
_cell_angle_gamma   90.00000000
_symmetry_Int_Tables_number   1
_chemical_formula_structural   Pr2Mn3(SbS3)4
_chemical_formula_sum   'Pr4 Mn6 Sb8 S24'
_cell_volume   942.00006694
_cell_formula_units_Z   2
loop_
 _symmetry_equiv_pos_site_id
 _symmetry_equiv_pos_as_xyz
  1  'x, y, z'
loop_
 _atom_site_type_symbol
 _atom_site_label
 _atom_site_symmetry_multiplicity
 _atom_site_fract_x
 _atom_site_fract_y
 _atom_site_fract_z
 _atom_site_occupancy
  Pr  Pr0  1  0.27734122  0.49330651  0.88304965  1
  Pr  Pr1  1  0.73552267  0.51077591  0.14451283  1
  Pr  Pr2  1  0.76404678  0.06318399  0.87366705  1
  Pr  Pr3  1  0.23500231  0.91048936  0.12487561  1
  Mn  Mn4  1  0.30291285  0.41046551  0.60858088  1
  Mn  Mn5  1  0.69362343  0.51078622  0.36254939  1
  Mn  Mn6  1  0.00775884  0.94605293  0.01782570  1
  Mn  Mn7  1  0.79575572  0.95491653  0.62758271  1
  Mn  Mn8  1  0.21710428  0.03944434  0.40408199  1
  Mn  Mn9  1  0.47514930  0.49171712  0.96564255  1
  Sb  Sb10  1  0.89054533  0.89173280  0.45966535  1
  Sb  Sb11  1  0.11891391  0.96568258  0.54205627  1
  Sb  Sb12  1  0.03754768  0.51170910  0.83188990  1
  Sb  Sb13  1  0.96714293  0.46727260  0.20370119  1
  Sb  Sb14  1  0.40791721  0.57794603  0.46247447  1
  Sb  Sb15  1  0.60375700  0.55548673  0.53837416  1
  Sb  Sb16  1  0.53181186  0.94470393  0.80055806  1
  Sb  Sb17  1  0.46780669  0.97112200  0.18091838  1
  S  S18  1  0.93333429  0.01846473  0.79969220  1
  S  S19  1  0.05253000  0.00687082  0.19104544  1
  S  S20  1  0.41320148  0.99220239  0.97648665  1
  S  S21  1  0.57805349  0.00852640  0.99914417  1
  S  S22  1  0.17507190  0.92596638  0.89652824  1
  S  S23  1  0.83282136  0.02964214  0.11054191  1
  S  S24  1  0.10990466  0.50098401  0.65024693  1
  S  S25  1  0.89684724  0.42222688  0.35330588  1
  S  S26  1  0.73617891  0.96251128  0.31581828  1
  S  S27  1  0.26496385  0.94679003  0.67645273  1
  S  S28  1  0.17127720  0.49718043  0.44999552  1
  S  S29  1  0.81001014  0.52941469  0.53895538  1
  S  S30  1  0.43370137  0.45420207  0.79618738  1
  S  S31  1  0.56512535  0.48679436  0.20400965  1
  S  S32  1  0.91699541  0.48764207  0.99432222  1
  S  S33  1  0.08321504  0.44846802  0.03208342  1
  S  S34  1  0.67535475  0.56953783  0.90873201  1
  S  S35  1  0.33149140  0.40988245  0.11292013  1
  S  S36  1  0.59859346  0.02613826  0.65129724  1
  S  S37  1  0.40157189  0.01602364  0.34121042  1
  S  S38  1  0.24783491  0.53632181  0.33516226  1
  S  S39  1  0.75827215  0.52506393  0.69076382  1
  S  S40  1  0.66853667  0.93537419  0.44700078  1
  S  S41  1  0.33877520  0.88711314  0.56255404  1
