# generated using pymatgen
data_Pr2Mn3(SbS3)4
_symmetry_space_group_name_H-M   'P 1'
_cell_length_a   20.02960800
_cell_length_b   3.90410600
_cell_length_c   14.95364829
_cell_angle_alpha   90.00000000
_cell_angle_beta   126.33350609
_cell_angle_gamma   90.00000000
_symmetry_Int_Tables_number   1
_chemical_formula_structural   Pr2Mn3(SbS3)4
_chemical_formula_sum   'Pr4 Mn6 Sb8 S24'
_cell_volume   942.00006694
_cell_formula_units_Z   2
loop_
 _symmetry_equiv_pos_site_id
 _symmetry_equiv_pos_as_xyz
  1  'x, y, z'
loop_
 _atom_site_type_symbol
 _atom_site_label
 _atom_site_symmetry_multiplicity
 _atom_site_fract_x
 _atom_site_fract_y
 _atom_site_fract_z
 _atom_site_occupancy
  Pr  Pr0  1  0.27723678  0.49342553  0.88287864  1
  Pr  Pr1  1  0.73555908  0.51095628  0.14454950  1
  Pr  Pr2  1  0.76404745  0.06292821  0.87373997  1
  Pr  Pr3  1  0.23506572  0.90961899  0.12479514  1
  Mn  Mn4  1  0.30289789  0.41072344  0.60869630  1
  Mn  Mn5  1  0.69364808  0.51037726  0.36261849  1
  Mn  Mn6  1  0.00770406  0.94645404  0.01800149  1
  Mn  Mn7  1  0.79581003  0.95478418  0.62729503  1
  Mn  Mn8  1  0.21738250  0.04051273  0.40429466  1
  Mn  Mn9  1  0.47501549  0.49214225  0.96555114  1
  Sb  Sb10  1  0.89047800  0.89118404  0.45953485  1
  Sb  Sb11  1  0.11886743  0.96498063  0.54191078  1
  Sb  Sb12  1  0.03753875  0.51139136  0.83180069  1
  Sb  Sb13  1  0.96721516  0.46745370  0.20370035  1
  Sb  Sb14  1  0.40765514  0.57809870  0.46218654  1
  Sb  Sb15  1  0.60371902  0.55645919  0.53831549  1
  Sb  Sb16  1  0.53182209  0.94473078  0.80060224  1
  Sb  Sb17  1  0.46797959  0.97105422  0.18125689  1
  S  S18  1  0.93348593  0.01842617  0.79979385  1
  S  S19  1  0.05263211  0.00766928  0.19122979  1
  S  S20  1  0.41300347  0.99192839  0.97645425  1
  S  S21  1  0.57817365  0.00828543  0.99959477  1
  S  S22  1  0.17508890  0.92649070  0.89632483  1
  S  S23  1  0.83295270  0.02879720  0.11098307  1
  S  S24  1  0.10995663  0.50064035  0.65016335  1
  S  S25  1  0.89659432  0.42127116  0.35327258  1
  S  S26  1  0.73617441  0.96299493  0.31597773  1
  S  S27  1  0.26520177  0.94661790  0.67677137  1
  S  S28  1  0.17143340  0.49754785  0.45017420  1
  S  S29  1  0.81001466  0.52999693  0.53907378  1
  S  S30  1  0.43402217  0.45496113  0.79650790  1
  S  S31  1  0.56522253  0.48685425  0.20400162  1
  S  S32  1  0.91708332  0.48823218  0.99439259  1
  S  S33  1  0.08320622  0.44900700  0.03183844  1
  S  S34  1  0.67516894  0.56893124  0.90855224  1
  S  S35  1  0.33162248  0.41022745  0.11278895  1
  S  S36  1  0.59853062  0.02620384  0.65171568  1
  S  S37  1  0.40145123  0.01627186  0.34099830  1
  S  S38  1  0.24761328  0.53616441  0.33486579  1
  S  S39  1  0.75842753  0.52502130  0.69077760  1
  S  S40  1  0.66865892  0.93560360  0.44726347  1
  S  S41  1  0.33863826  0.88615911  0.56228276  1
