# generated using pymatgen
data_Pr2Mn3(SbS3)4
_symmetry_space_group_name_H-M   'P 1'
_cell_length_a   20.02960800
_cell_length_b   3.90410600
_cell_length_c   14.95364829
_cell_angle_alpha   90.00000000
_cell_angle_beta   126.33350609
_cell_angle_gamma   90.00000000
_symmetry_Int_Tables_number   1
_chemical_formula_structural   Pr2Mn3(SbS3)4
_chemical_formula_sum   'Pr4 Mn6 Sb8 S24'
_cell_volume   942.00006694
_cell_formula_units_Z   2
loop_
 _symmetry_equiv_pos_site_id
 _symmetry_equiv_pos_as_xyz
  1  'x, y, z'
loop_
 _atom_site_type_symbol
 _atom_site_label
 _atom_site_symmetry_multiplicity
 _atom_site_fract_x
 _atom_site_fract_y
 _atom_site_fract_z
 _atom_site_occupancy
  Pr  Pr0  1  0.27718778  0.49380158  0.88277902  1
  Pr  Pr1  1  0.73556908  0.51106412  0.14450492  1
  Pr  Pr2  1  0.76405356  0.06275577  0.87376549  1
  Pr  Pr3  1  0.23512117  0.90899261  0.12474577  1
  Mn  Mn4  1  0.30288063  0.41066514  0.60872580  1
  Mn  Mn5  1  0.69371452  0.51000621  0.36279057  1
  Mn  Mn6  1  0.00763695  0.94714137  0.01823367  1
  Mn  Mn7  1  0.79574206  0.95453064  0.62706527  1
  Mn  Mn8  1  0.21760567  0.04181025  0.40446451  1
  Mn  Mn9  1  0.47479848  0.49299759  0.96549181  1
  Sb  Sb10  1  0.89044808  0.89060646  0.45945947  1
  Sb  Sb11  1  0.11877450  0.96419970  0.54178276  1
  Sb  Sb12  1  0.03750420  0.51104738  0.83166968  1
  Sb  Sb13  1  0.96725906  0.46783072  0.20366170  1
  Sb  Sb14  1  0.40746769  0.57823511  0.46198696  1
  Sb  Sb15  1  0.60367205  0.55730688  0.53823293  1
  Sb  Sb16  1  0.53184310  0.94461085  0.80064809  1
  Sb  Sb17  1  0.46817213  0.97081827  0.18155341  1
  S  S18  1  0.93360140  0.01804777  0.79988602  1
  S  S19  1  0.05277476  0.00762925  0.19144600  1
  S  S20  1  0.41281394  0.99116063  0.97650607  1
  S  S21  1  0.57829125  0.00818095  0.00004416  1
  S  S22  1  0.17502617  0.92704036  0.89605997  1
  S  S23  1  0.83287400  0.02826484  0.11127674  1
  S  S24  1  0.11003933  0.50055478  0.65007825  1
  S  S25  1  0.89627693  0.42024038  0.35311887  1
  S  S26  1  0.73624853  0.96310779  0.31619898  1
  S  S27  1  0.26554803  0.94681481  0.67735770  1
  S  S28  1  0.17155239  0.49828032  0.45033522  1
  S  S29  1  0.81005162  0.53025637  0.53913162  1
  S  S30  1  0.43426869  0.45557707  0.79666785  1
  S  S31  1  0.56523387  0.48676798  0.20378127  1
  S  S32  1  0.91717744  0.48867454  0.99449474  1
  S  S33  1  0.08315486  0.44977368  0.03162989  1
  S  S34  1  0.67507242  0.56823431  0.90850931  1
  S  S35  1  0.33184359  0.41087517  0.11280309  1
  S  S36  1  0.59856267  0.02632122  0.65221284  1
  S  S37  1  0.40140813  0.01666168  0.34079358  1
  S  S38  1  0.24745524  0.53641324  0.33470407  1
  S  S39  1  0.75844752  0.52451269  0.69079433  1
  S  S40  1  0.66872075  0.93587811  0.44751694  1
  S  S41  1  0.33856957  0.88512173  0.56214044  1
