# generated using pymatgen
data_Pr2Mn3(SbS3)4
_symmetry_space_group_name_H-M   'P 1'
_cell_length_a   20.02960800
_cell_length_b   3.90410600
_cell_length_c   14.95364829
_cell_angle_alpha   90.00000000
_cell_angle_beta   126.33350609
_cell_angle_gamma   90.00000000
_symmetry_Int_Tables_number   1
_chemical_formula_structural   Pr2Mn3(SbS3)4
_chemical_formula_sum   'Pr4 Mn6 Sb8 S24'
_cell_volume   942.00006694
_cell_formula_units_Z   2
loop_
 _symmetry_equiv_pos_site_id
 _symmetry_equiv_pos_as_xyz
  1  'x, y, z'
loop_
 _atom_site_type_symbol
 _atom_site_label
 _atom_site_symmetry_multiplicity
 _atom_site_fract_x
 _atom_site_fract_y
 _atom_site_fract_z
 _atom_site_occupancy
  Pr  Pr0  1  0.27715694  0.49396802  0.88268884  1
  Pr  Pr1  1  0.73561050  0.51122648  0.14444809  1
  Pr  Pr2  1  0.76407843  0.06249383  0.87379079  1
  Pr  Pr3  1  0.23514022  0.90860538  0.12467029  1
  Mn  Mn4  1  0.30282512  0.41088268  0.60872362  1
  Mn  Mn5  1  0.69365475  0.50975928  0.36278165  1
  Mn  Mn6  1  0.00754387  0.94797952  0.01831291  1
  Mn  Mn7  1  0.79563044  0.95416865  0.62685855  1
  Mn  Mn8  1  0.21789162  0.04278440  0.40460090  1
  Mn  Mn9  1  0.47461988  0.49384443  0.96540535  1
  Sb  Sb10  1  0.89041046  0.89002022  0.45937095  1
  Sb  Sb11  1  0.11869917  0.96364336  0.54165912  1
  Sb  Sb12  1  0.03746320  0.51040872  0.83153183  1
  Sb  Sb13  1  0.96727737  0.46791029  0.20356552  1
  Sb  Sb14  1  0.40735008  0.57852465  0.46185571  1
  Sb  Sb15  1  0.60366426  0.55815103  0.53822161  1
  Sb  Sb16  1  0.53187585  0.94426763  0.80073373  1
  Sb  Sb17  1  0.46834324  0.97076388  0.18183606  1
  S  S18  1  0.93375742  0.01784831  0.80002081  1
  S  S19  1  0.05288561  0.00726236  0.19164048  1
  S  S20  1  0.41258704  0.99073823  0.97645715  1
  S  S21  1  0.57831454  0.00783054  0.00036158  1
  S  S22  1  0.17500001  0.92795194  0.89577673  1
  S  S23  1  0.83282371  0.02806068  0.11155851  1
  S  S24  1  0.11007964  0.50055791  0.64987570  1
  S  S25  1  0.89607149  0.41926672  0.35302666  1
  S  S26  1  0.73623501  0.96340584  0.31637402  1
  S  S27  1  0.26591219  0.94696999  0.67804934  1
  S  S28  1  0.17166631  0.49838301  0.45037040  1
  S  S29  1  0.81024107  0.53020843  0.53927273  1
  S  S30  1  0.43458126  0.45620028  0.79688047  1
  S  S31  1  0.56529508  0.48660506  0.20362703  1
  S  S32  1  0.91719443  0.48890704  0.99461528  1
  S  S33  1  0.08303103  0.45019011  0.03137702  1
  S  S34  1  0.67496558  0.56796618  0.90837757  1
  S  S35  1  0.33210590  0.41122663  0.11275889  1
  S  S36  1  0.59869419  0.02667482  0.65268935  1
  S  S37  1  0.40132392  0.01708345  0.34073443  1
  S  S38  1  0.24732515  0.53617990  0.33460448  1
  S  S39  1  0.75862060  0.52389409  0.69089765  1
  S  S40  1  0.66861396  0.93605256  0.44765486  1
  S  S41  1  0.33848528  0.88457245  0.56191369  1
