# generated using pymatgen
data_Pr2Mn3(SbS3)4
_symmetry_space_group_name_H-M   'P 1'
_cell_length_a   20.02960800
_cell_length_b   3.90410600
_cell_length_c   14.95364829
_cell_angle_alpha   90.00000000
_cell_angle_beta   126.33350609
_cell_angle_gamma   90.00000000
_symmetry_Int_Tables_number   1
_chemical_formula_structural   Pr2Mn3(SbS3)4
_chemical_formula_sum   'Pr4 Mn6 Sb8 S24'
_cell_volume   942.00006694
_cell_formula_units_Z   2
loop_
 _symmetry_equiv_pos_site_id
 _symmetry_equiv_pos_as_xyz
  1  'x, y, z'
loop_
 _atom_site_type_symbol
 _atom_site_label
 _atom_site_symmetry_multiplicity
 _atom_site_fract_x
 _atom_site_fract_y
 _atom_site_fract_z
 _atom_site_occupancy
  Pr  Pr0  1  0.27713159  0.49418021  0.88264588  1
  Pr  Pr1  1  0.73566479  0.51100309  0.14442409  1
  Pr  Pr2  1  0.76403622  0.06219052  0.87380414  1
  Pr  Pr3  1  0.23504900  0.90801095  0.12451870  1
  Mn  Mn4  1  0.30274714  0.41089493  0.60864518  1
  Mn  Mn5  1  0.69361525  0.50952702  0.36282454  1
  Mn  Mn6  1  0.00741900  0.94867408  0.01840165  1
  Mn  Mn7  1  0.79548607  0.95382537  0.62666642  1
  Mn  Mn8  1  0.21815388  0.04343894  0.40467625  1
  Mn  Mn9  1  0.47442014  0.49499116  0.96531462  1
  Sb  Sb10  1  0.89039033  0.88941447  0.45934104  1
  Sb  Sb11  1  0.11860401  0.96315665  0.54147631  1
  Sb  Sb12  1  0.03745869  0.50995249  0.83137878  1
  Sb  Sb13  1  0.96724073  0.46793064  0.20347874  1
  Sb  Sb14  1  0.40723022  0.57867119  0.46172004  1
  Sb  Sb15  1  0.60360246  0.55926274  0.53824437  1
  Sb  Sb16  1  0.53185587  0.94368986  0.80074278  1
  Sb  Sb17  1  0.46853205  0.97089939  0.18210516  1
  S  S18  1  0.93390596  0.01761649  0.80023834  1
  S  S19  1  0.05297478  0.00688241  0.19178392  1
  S  S20  1  0.41238815  0.99021379  0.97639351  1
  S  S21  1  0.57835383  0.00700731  0.00061880  1
  S  S22  1  0.17488934  0.92869729  0.89542845  1
  S  S23  1  0.83277927  0.02776205  0.11170996  1
  S  S24  1  0.11006666  0.50070880  0.64953107  1
  S  S25  1  0.89593478  0.41831598  0.35288855  1
  S  S26  1  0.73634904  0.96344114  0.31657912  1
  S  S27  1  0.26623748  0.94707759  0.67856437  1
  S  S28  1  0.17186985  0.49854562  0.45039419  1
  S  S29  1  0.81038238  0.52953125  0.53964048  1
  S  S30  1  0.43473838  0.45672760  0.79693261  1
  S  S31  1  0.56527494  0.48574021  0.20332360  1
  S  S32  1  0.91718555  0.48925329  0.99467634  1
  S  S33  1  0.08297664  0.45051953  0.03116863  1
  S  S34  1  0.67497513  0.56749085  0.90830550  1
  S  S35  1  0.33229119  0.41164888  0.11276528  1
  S  S36  1  0.59867920  0.02685897  0.65299267  1
  S  S37  1  0.40121411  0.01730786  0.34061899  1
  S  S38  1  0.24719739  0.53583932  0.33454612  1
  S  S39  1  0.75863551  0.52260641  0.69065004  1
  S  S40  1  0.66843319  0.93634933  0.44758150  1
  S  S41  1  0.33842384  0.88428095  0.56179427  1
