# generated using pymatgen
data_Pr2Mn3(SbS3)4
_symmetry_space_group_name_H-M   'P 1'
_cell_length_a   20.02960800
_cell_length_b   3.90410600
_cell_length_c   14.95364829
_cell_angle_alpha   90.00000000
_cell_angle_beta   126.33350609
_cell_angle_gamma   90.00000000
_symmetry_Int_Tables_number   1
_chemical_formula_structural   Pr2Mn3(SbS3)4
_chemical_formula_sum   'Pr4 Mn6 Sb8 S24'
_cell_volume   942.00006694
_cell_formula_units_Z   2
loop_
 _symmetry_equiv_pos_site_id
 _symmetry_equiv_pos_as_xyz
  1  'x, y, z'
loop_
 _atom_site_type_symbol
 _atom_site_label
 _atom_site_symmetry_multiplicity
 _atom_site_fract_x
 _atom_site_fract_y
 _atom_site_fract_z
 _atom_site_occupancy
  Pr  Pr0  1  0.27712224  0.49424627  0.88256562  1
  Pr  Pr1  1  0.73580772  0.51064859  0.14450480  1
  Pr  Pr2  1  0.76398636  0.06187811  0.87372054  1
  Pr  Pr3  1  0.23497764  0.90752987  0.12436484  1
  Mn  Mn4  1  0.30260434  0.41112103  0.60850504  1
  Mn  Mn5  1  0.69361282  0.50917262  0.36292608  1
  Mn  Mn6  1  0.00734028  0.94952814  0.01854696  1
  Mn  Mn7  1  0.79534538  0.95300297  0.62651838  1
  Mn  Mn8  1  0.21836592  0.04375375  0.40469913  1
  Mn  Mn9  1  0.47416429  0.49607023  0.96521076  1
  Sb  Sb10  1  0.89034216  0.88866200  0.45928179  1
  Sb  Sb11  1  0.11855707  0.96293656  0.54131193  1
  Sb  Sb12  1  0.03753830  0.50945566  0.83129922  1
  Sb  Sb13  1  0.96716025  0.46795078  0.20333456  1
  Sb  Sb14  1  0.40712588  0.57890546  0.46161540  1
  Sb  Sb15  1  0.60359343  0.56016247  0.53836131  1
  Sb  Sb16  1  0.53183824  0.94297940  0.80077529  1
  Sb  Sb17  1  0.46877624  0.97114935  0.18247345  1
  S  S18  1  0.93387238  0.01790706  0.80021478  1
  S  S19  1  0.05307455  0.00621206  0.19194896  1
  S  S20  1  0.41222197  0.98994579  0.97624634  1
  S  S21  1  0.57844372  0.00603159  0.00095418  1
  S  S22  1  0.17472477  0.92948557  0.89510617  1
  S  S23  1  0.83267407  0.02777062  0.11182434  1
  S  S24  1  0.10999092  0.50115740  0.64907714  1
  S  S25  1  0.89573854  0.41763883  0.35290408  1
  S  S26  1  0.73658824  0.96394617  0.31687045  1
  S  S27  1  0.26650237  0.94689322  0.67910435  1
  S  S28  1  0.17204951  0.49837628  0.45035620  1
  S  S29  1  0.81050480  0.52888194  0.53990349  1
  S  S30  1  0.43494351  0.45686348  0.79699988  1
  S  S31  1  0.56529688  0.48452197  0.20309698  1
  S  S32  1  0.91718996  0.48937859  0.99478714  1
  S  S33  1  0.08292647  0.45103750  0.03104365  1
  S  S34  1  0.67497592  0.56757552  0.90820876  1
  S  S35  1  0.33244234  0.41197115  0.11266359  1
  S  S36  1  0.59879766  0.02701076  0.65340072  1
  S  S37  1  0.40102213  0.01778825  0.34039849  1
  S  S38  1  0.24712481  0.53563325  0.33462458  1
  S  S39  1  0.75867891  0.52135101  0.69041472  1
  S  S40  1  0.66825256  0.93692097  0.44760564  1
  S  S41  1  0.33843857  0.88366379  0.56172232  1
