# generated using pymatgen
data_Pr2Mn3(SbS3)4
_symmetry_space_group_name_H-M   'P 1'
_cell_length_a   20.02960800
_cell_length_b   3.90410600
_cell_length_c   14.95364829
_cell_angle_alpha   90.00000000
_cell_angle_beta   126.33350609
_cell_angle_gamma   90.00000000
_symmetry_Int_Tables_number   1
_chemical_formula_structural   Pr2Mn3(SbS3)4
_chemical_formula_sum   'Pr4 Mn6 Sb8 S24'
_cell_volume   942.00006694
_cell_formula_units_Z   2
loop_
 _symmetry_equiv_pos_site_id
 _symmetry_equiv_pos_as_xyz
  1  'x, y, z'
loop_
 _atom_site_type_symbol
 _atom_site_label
 _atom_site_symmetry_multiplicity
 _atom_site_fract_x
 _atom_site_fract_y
 _atom_site_fract_z
 _atom_site_occupancy
  Pr  Pr0  1  0.27703548  0.49427694  0.88239944  1
  Pr  Pr1  1  0.73589857  0.51047279  0.14459183  1
  Pr  Pr2  1  0.76394415  0.06148699  0.87364117  1
  Pr  Pr3  1  0.23491711  0.90731010  0.12418154  1
  Mn  Mn4  1  0.30247164  0.41127417  0.60839090  1
  Mn  Mn5  1  0.69359408  0.50866499  0.36295359  1
  Mn  Mn6  1  0.00719701  0.95074103  0.01855357  1
  Mn  Mn7  1  0.79518028  0.95218849  0.62630167  1
  Mn  Mn8  1  0.21857453  0.04360267  0.40465902  1
  Mn  Mn9  1  0.47393514  0.49727772  0.96506031  1
  Sb  Sb10  1  0.89037602  0.88838093  0.45936757  1
  Sb  Sb11  1  0.11853838  0.96295414  0.54119234  1
  Sb  Sb12  1  0.03764600  0.50892847  0.83127620  1
  Sb  Sb13  1  0.96717364  0.46786935  0.20325938  1
  Sb  Sb14  1  0.40701739  0.57906868  0.46148839  1
  Sb  Sb15  1  0.60359012  0.56092108  0.53845934  1
  Sb  Sb16  1  0.53182778  0.94202017  0.80082785  1
  Sb  Sb17  1  0.46902981  0.97143820  0.18286464  1
  S  S18  1  0.93379734  0.01782240  0.80007485  1
  S  S19  1  0.05319774  0.00532726  0.19230970  1
  S  S20  1  0.41197564  0.98994274  0.97602706  1
  S  S21  1  0.57853708  0.00496441  0.00119886  1
  S  S22  1  0.17458560  0.93078793  0.89460330  1
  S  S23  1  0.83247537  0.02782165  0.11172616  1
  S  S24  1  0.10989327  0.50208567  0.64874734  1
  S  S25  1  0.89545055  0.41685645  0.35284248  1
  S  S26  1  0.73684197  0.96420167  0.31715717  1
  S  S27  1  0.26665389  0.94689365  0.67947015  1
  S  S28  1  0.17235329  0.49774440  0.45042170  1
  S  S29  1  0.81054025  0.52799964  0.54013890  1
  S  S30  1  0.43519823  0.45725010  0.79714410  1
  S  S31  1  0.56523645  0.48373177  0.20285835  1
  S  S32  1  0.91705778  0.48950450  0.99488819  1
  S  S33  1  0.08290005  0.45155619  0.03094445  1
  S  S34  1  0.67499702  0.56813549  0.90811034  1
  S  S35  1  0.33253379  0.41221092  0.11271596  1
  S  S36  1  0.59886238  0.02663665  0.65369616  1
  S  S37  1  0.40101157  0.01800237  0.34055527  1
  S  S38  1  0.24710008  0.53574861  0.33472061  1
  S  S39  1  0.75873654  0.51999012  0.69024963  1
  S  S40  1  0.66806728  0.93723001  0.44771717  1
  S  S41  1  0.33829773  0.88370106  0.56143735  1
