# generated using pymatgen
data_Pr2Mn3(SbS3)4
_symmetry_space_group_name_H-M   'P 1'
_cell_length_a   20.02960800
_cell_length_b   3.90410600
_cell_length_c   14.95364829
_cell_angle_alpha   90.00000000
_cell_angle_beta   126.33350609
_cell_angle_gamma   90.00000000
_symmetry_Int_Tables_number   1
_chemical_formula_structural   Pr2Mn3(SbS3)4
_chemical_formula_sum   'Pr4 Mn6 Sb8 S24'
_cell_volume   942.00006694
_cell_formula_units_Z   2
loop_
 _symmetry_equiv_pos_site_id
 _symmetry_equiv_pos_as_xyz
  1  'x, y, z'
loop_
 _atom_site_type_symbol
 _atom_site_label
 _atom_site_symmetry_multiplicity
 _atom_site_fract_x
 _atom_site_fract_y
 _atom_site_fract_z
 _atom_site_occupancy
  Pr  Pr0  1  0.27696750  0.49436060  0.88224942  1
  Pr  Pr1  1  0.73604153  0.51034233  0.14470766  1
  Pr  Pr2  1  0.76386924  0.06105074  0.87360195  1
  Pr  Pr3  1  0.23490035  0.90683420  0.12405964  1
  Mn  Mn4  1  0.30233358  0.41118452  0.60824586  1
  Mn  Mn5  1  0.69362477  0.50812644  0.36305336  1
  Mn  Mn6  1  0.00703543  0.95134574  0.01850050  1
  Mn  Mn7  1  0.79493636  0.95158327  0.62607439  1
  Mn  Mn8  1  0.21873566  0.04315171  0.40458641  1
  Mn  Mn9  1  0.47371339  0.49865075  0.96497113  1
  Sb  Sb10  1  0.89031847  0.88808452  0.45942233  1
  Sb  Sb11  1  0.11851377  0.96291105  0.54110620  1
  Sb  Sb12  1  0.03773555  0.50863586  0.83119777  1
  Sb  Sb13  1  0.96723157  0.46802107  0.20323384  1
  Sb  Sb14  1  0.40687250  0.57906978  0.46130824  1
  Sb  Sb15  1  0.60362388  0.56153804  0.53851531  1
  Sb  Sb16  1  0.53181352  0.94107689  0.80090217  1
  Sb  Sb17  1  0.46923876  0.97170474  0.18320985  1
  S  S18  1  0.93378852  0.01757659  0.80005600  1
  S  S19  1  0.05338097  0.00489879  0.19279237  1
  S  S20  1  0.41169458  0.99034188  0.97587703  1
  S  S21  1  0.57862516  0.00398003  0.00151740  1
  S  S22  1  0.17450597  0.93204086  0.89404716  1
  S  S23  1  0.83230440  0.02831945  0.11166656  1
  S  S24  1  0.10979507  0.50296741  0.64830935  1
  S  S25  1  0.89516226  0.41574677  0.35272837  1
  S  S26  1  0.73709067  0.96423187  0.31740137  1
  S  S27  1  0.26679793  0.94688972  0.67984302  1
  S  S28  1  0.17264627  0.49748145  0.45048791  1
  S  S29  1  0.81060588  0.52690856  0.54046317  1
  S  S30  1  0.43531252  0.45763141  0.79724971  1
  S  S31  1  0.56509206  0.48330547  0.20258265  1
  S  S32  1  0.91690880  0.48970822  0.99491178  1
  S  S33  1  0.08287607  0.45239227  0.03075622  1
  S  S34  1  0.67496630  0.56920432  0.90798586  1
  S  S35  1  0.33261337  0.41224580  0.11266507  1
  S  S36  1  0.59888437  0.02651637  0.65384689  1
  S  S37  1  0.40101518  0.01810994  0.34079715  1
  S  S38  1  0.24705386  0.53647616  0.33480863  1
  S  S39  1  0.75883520  0.51878985  0.69008104  1
  S  S40  1  0.66802142  0.93760237  0.44768051  1
  S  S41  1  0.33808663  0.88398662  0.56113293  1
