# generated using pymatgen
data_Pr2Mn3(SbS3)4
_symmetry_space_group_name_H-M   'P 1'
_cell_length_a   20.02960800
_cell_length_b   3.90410600
_cell_length_c   14.95364829
_cell_angle_alpha   90.00000000
_cell_angle_beta   126.33350609
_cell_angle_gamma   90.00000000
_symmetry_Int_Tables_number   1
_chemical_formula_structural   Pr2Mn3(SbS3)4
_chemical_formula_sum   'Pr4 Mn6 Sb8 S24'
_cell_volume   942.00006694
_cell_formula_units_Z   2
loop_
 _symmetry_equiv_pos_site_id
 _symmetry_equiv_pos_as_xyz
  1  'x, y, z'
loop_
 _atom_site_type_symbol
 _atom_site_label
 _atom_site_symmetry_multiplicity
 _atom_site_fract_x
 _atom_site_fract_y
 _atom_site_fract_z
 _atom_site_occupancy
  Pr  Pr0  1  0.27689128  0.49454623  0.88212986  1
  Pr  Pr1  1  0.73618165  0.51013006  0.14476894  1
  Pr  Pr2  1  0.76372720  0.06052065  0.87351831  1
  Pr  Pr3  1  0.23479900  0.90636970  0.12391186  1
  Mn  Mn4  1  0.30222000  0.41114454  0.60809711  1
  Mn  Mn5  1  0.69366045  0.50755442  0.36302732  1
  Mn  Mn6  1  0.00689860  0.95213209  0.01852732  1
  Mn  Mn7  1  0.79465828  0.95080059  0.62580425  1
  Mn  Mn8  1  0.21885538  0.04308554  0.40466424  1
  Mn  Mn9  1  0.47360737  0.50023215  0.96502411  1
  Sb  Sb10  1  0.89021873  0.88790856  0.45941815  1
  Sb  Sb11  1  0.11846937  0.96309694  0.54106736  1
  Sb  Sb12  1  0.03779358  0.50819648  0.83107565  1
  Sb  Sb13  1  0.96727737  0.46804907  0.20327836  1
  Sb  Sb14  1  0.40677358  0.57913524  0.46125754  1
  Sb  Sb15  1  0.60366864  0.56206889  0.53852303  1
  Sb  Sb16  1  0.53184775  0.94014319  0.80102844  1
  Sb  Sb17  1  0.46938885  0.97188138  0.18343252  1
  S  S18  1  0.93368142  0.01707499  0.79994407  1
  S  S19  1  0.05362557  0.00362574  0.19329915  1
  S  S20  1  0.41146756  0.99050081  0.97570214  1
  S  S21  1  0.57874837  0.00260547  0.00180497  1
  S  S22  1  0.17441021  0.93315389  0.89365843  1
  S  S23  1  0.83218491  0.02894870  0.11173588  1
  S  S24  1  0.10971508  0.50358097  0.64790905  1
  S  S25  1  0.89490676  0.41462654  0.35255920  1
  S  S26  1  0.73727154  0.96367748  0.31741828  1
  S  S27  1  0.26693374  0.94667060  0.68014746  1
  S  S28  1  0.17283515  0.49712054  0.45072262  1
  S  S29  1  0.81064391  0.52556261  0.54078863  1
  S  S30  1  0.43527103  0.45792671  0.79723123  1
  S  S31  1  0.56499783  0.48277045  0.20238058  1
  S  S32  1  0.91680201  0.48969769  0.99494293  1
  S  S33  1  0.08280133  0.45304538  0.03053563  1
  S  S34  1  0.67499639  0.57039200  0.90794991  1
  S  S35  1  0.33260177  0.41187713  0.11256092  1
  S  S36  1  0.59897364  0.02635472  0.65410000  1
  S  S37  1  0.40105159  0.01845812  0.34111394  1
  S  S38  1  0.24697430  0.53705310  0.33483698  1
  S  S39  1  0.75896590  0.51751481  0.69003374  1
  S  S40  1  0.66806171  0.93762246  0.44784219  1
  S  S41  1  0.33791813  0.88432751  0.56088070  1
