# generated using pymatgen
data_Pr2Mn3(SbS3)4
_symmetry_space_group_name_H-M   'P 1'
_cell_length_a   20.02960800
_cell_length_b   3.90410600
_cell_length_c   14.95364829
_cell_angle_alpha   90.00000000
_cell_angle_beta   126.33350609
_cell_angle_gamma   90.00000000
_symmetry_Int_Tables_number   1
_chemical_formula_structural   Pr2Mn3(SbS3)4
_chemical_formula_sum   'Pr4 Mn6 Sb8 S24'
_cell_volume   942.00006694
_cell_formula_units_Z   2
loop_
 _symmetry_equiv_pos_site_id
 _symmetry_equiv_pos_as_xyz
  1  'x, y, z'
loop_
 _atom_site_type_symbol
 _atom_site_label
 _atom_site_symmetry_multiplicity
 _atom_site_fract_x
 _atom_site_fract_y
 _atom_site_fract_z
 _atom_site_occupancy
  Pr  Pr0  1  0.27685014  0.49433912  0.88204322  1
  Pr  Pr1  1  0.73625883  0.50993558  0.14479430  1
  Pr  Pr2  1  0.76357048  0.06022267  0.87338766  1
  Pr  Pr3  1  0.23478842  0.90590589  0.12384156  1
  Mn  Mn4  1  0.30211351  0.41116078  0.60797048  1
  Mn  Mn5  1  0.69383045  0.50743320  0.36320086  1
  Mn  Mn6  1  0.00677795  0.95241747  0.01850625  1
  Mn  Mn7  1  0.79442712  0.95020532  0.62561475  1
  Mn  Mn8  1  0.21892460  0.04314540  0.40469813  1
  Mn  Mn9  1  0.47355637  0.50170790  0.96500813  1
  Sb  Sb10  1  0.89018283  0.88771633  0.45945334  1
  Sb  Sb11  1  0.11845078  0.96318646  0.54107587  1
  Sb  Sb12  1  0.03784921  0.50795600  0.83095665  1
  Sb  Sb13  1  0.96730719  0.46821230  0.20330212  1
  Sb  Sb14  1  0.40671528  0.57927924  0.46123241  1
  Sb  Sb15  1  0.60376626  0.56236697  0.53862695  1
  Sb  Sb16  1  0.53182303  0.93917865  0.80111146  1
  Sb  Sb17  1  0.46947042  0.97210075  0.18359828  1
  S  S18  1  0.93367004  0.01619466  0.79988964  1
  S  S19  1  0.05383764  0.00266118  0.19366831  1
  S  S20  1  0.41118136  0.99066170  0.97538371  1
  S  S21  1  0.57897971  0.00193757  0.00208262  1
  S  S22  1  0.17430278  0.93392292  0.89339861  1
  S  S23  1  0.83197189  0.02996939  0.11173453  1
  S  S24  1  0.10968458  0.50342525  0.64760647  1
  S  S25  1  0.89470325  0.41324087  0.35238002  1
  S  S26  1  0.73734075  0.96313052  0.31742362  1
  S  S27  1  0.26704469  0.94655249  0.68063661  1
  S  S28  1  0.17302353  0.49663847  0.45080135  1
  S  S29  1  0.81079131  0.52406702  0.54109012  1
  S  S30  1  0.43512617  0.45810329  0.79708705  1
  S  S31  1  0.56501790  0.48195418  0.20226428  1
  S  S32  1  0.91679270  0.49015500  0.99510388  1
  S  S33  1  0.08282083  0.45340704  0.03049947  1
  S  S34  1  0.67498753  0.57184848  0.90787180  1
  S  S35  1  0.33265012  0.41184333  0.11242408  1
  S  S36  1  0.59890892  0.02656533  0.65423667  1
  S  S37  1  0.40113492  0.01861654  0.34148335  1
  S  S38  1  0.24685289  0.53804815  0.33470100  1
  S  S39  1  0.75896505  0.51684323  0.68992795  1
  S  S40  1  0.66807256  0.93778398  0.44803123  1
  S  S41  1  0.33782850  0.88436469  0.56061884  1
