# generated using pymatgen
data_Pr2Mn3(SbS3)4
_symmetry_space_group_name_H-M   'P 1'
_cell_length_a   20.02960800
_cell_length_b   3.90410600
_cell_length_c   14.95364829
_cell_angle_alpha   90.00000000
_cell_angle_beta   126.33350609
_cell_angle_gamma   90.00000000
_symmetry_Int_Tables_number   1
_chemical_formula_structural   Pr2Mn3(SbS3)4
_chemical_formula_sum   'Pr4 Mn6 Sb8 S24'
_cell_volume   942.00006694
_cell_formula_units_Z   2
loop_
 _symmetry_equiv_pos_site_id
 _symmetry_equiv_pos_as_xyz
  1  'x, y, z'
loop_
 _atom_site_type_symbol
 _atom_site_label
 _atom_site_symmetry_multiplicity
 _atom_site_fract_x
 _atom_site_fract_y
 _atom_site_fract_z
 _atom_site_occupancy
  Pr  Pr0  1  0.26458555  0.47354521  0.86919438  1
  Pr  Pr1  1  0.73781276  0.51775190  0.13705080  1
  Pr  Pr2  1  0.76406914  0.01400023  0.86459806  1
  Pr  Pr3  1  0.23635657  0.00377872  0.13848525  1
  Mn  Mn4  1  0.29240761  0.48663931  0.60287239  1
  Mn  Mn5  1  0.69399925  0.52680240  0.38022641  1
  Mn  Mn6  1  0.00611144  0.99395817  0.00506220  1
  Mn  Mn7  1  0.80230359  0.00178212  0.61472126  1
  Mn  Mn8  1  0.19458973  0.97068135  0.37732749  1
  Mn  Mn9  1  0.50085010  0.46449910  0.99188760  1
  Sb  Sb10  1  0.88994276  0.99552802  0.45255094  1
  Sb  Sb11  1  0.11183233  0.96347535  0.55184820  1
  Sb  Sb12  1  0.03995404  0.51415638  0.81808529  1
  Sb  Sb13  1  0.96262561  0.51608296  0.18601209  1
  Sb  Sb14  1  0.39791807  0.50315522  0.45746608  1
  Sb  Sb15  1  0.60626765  0.48484468  0.54685915  1
  Sb  Sb16  1  0.53388031  0.01116278  0.81182973  1
  Sb  Sb17  1  0.46177653  0.00909238  0.18256453  1
  S  S18  1  0.93706713  0.98021057  0.80514330  1
  S  S19  1  0.06554918  0.97574655  0.18610356  1
  S  S20  1  0.41079948  0.01379242  0.97935978  1
  S  S21  1  0.59238589  0.99853270  0.02595515  1
  S  S22  1  0.17307854  0.98686602  0.89428826  1
  S  S23  1  0.82504034  0.01768285  0.09583386  1
  S  S24  1  0.08644845  0.46694700  0.64520658  1
  S  S25  1  0.91122051  0.47836446  0.35733356  1
  S  S26  1  0.74023078  0.95893186  0.29754652  1
  S  S27  1  0.25851210  0.99490770  0.70486835  1
  S  S28  1  0.17128639  0.48916570  0.44644846  1
  S  S29  1  0.82837491  0.49088263  0.54983462  1
  S  S30  1  0.43257124  0.49829981  0.79744771  1
  S  S31  1  0.56174088  0.51740954  0.18524633  1
  S  S32  1  0.91316604  0.50263828  0.99429528  1
  S  S33  1  0.08233838  0.49796495  0.01421178  1
  S  S34  1  0.66550439  0.48624255  0.88763883  1
  S  S35  1  0.32687587  0.51348997  0.09281060  1
  S  S36  1  0.59337033  0.00348364  0.65711153  1
  S  S37  1  0.40659269  0.97292336  0.34534563  1
  S  S38  1  0.24476676  0.46111576  0.30933199  1
  S  S39  1  0.76188802  0.50399401  0.70078358  1
  S  S40  1  0.67510233  0.02283049  0.45996927  1
  S  S41  1  0.32741127  0.98296168  0.54299472  1
