# generated using pymatgen
data_Pr2Mn3(SbS3)4
_symmetry_space_group_name_H-M   'P 1'
_cell_length_a   20.02960800
_cell_length_b   3.90410600
_cell_length_c   14.95364829
_cell_angle_alpha   90.00000000
_cell_angle_beta   126.33350609
_cell_angle_gamma   90.00000000
_symmetry_Int_Tables_number   1
_chemical_formula_structural   Pr2Mn3(SbS3)4
_chemical_formula_sum   'Pr4 Mn6 Sb8 S24'
_cell_volume   942.00006694
_cell_formula_units_Z   2
loop_
 _symmetry_equiv_pos_site_id
 _symmetry_equiv_pos_as_xyz
  1  'x, y, z'
loop_
 _atom_site_type_symbol
 _atom_site_label
 _atom_site_symmetry_multiplicity
 _atom_site_fract_x
 _atom_site_fract_y
 _atom_site_fract_z
 _atom_site_occupancy
  Pr  Pr0  1  0.27680064  0.49407318  0.88189812  1
  Pr  Pr1  1  0.73623623  0.50959399  0.14473911  1
  Pr  Pr2  1  0.76345608  0.06017950  0.87325431  1
  Pr  Pr3  1  0.23472281  0.90540608  0.12370459  1
  Mn  Mn4  1  0.30201410  0.41158036  0.60790569  1
  Mn  Mn5  1  0.69390523  0.50705318  0.36317228  1
  Mn  Mn6  1  0.00680841  0.95292653  0.01859376  1
  Mn  Mn7  1  0.79432908  0.94980474  0.62550138  1
  Mn  Mn8  1  0.21896276  0.04323112  0.40465869  1
  Mn  Mn9  1  0.47344156  0.50298011  0.96495055  1
  Sb  Sb10  1  0.89012880  0.88752769  0.45952901  1
  Sb  Sb11  1  0.11841709  0.96329691  0.54110024  1
  Sb  Sb12  1  0.03789562  0.50789889  0.83086476  1
  Sb  Sb13  1  0.96730240  0.46843788  0.20333906  1
  Sb  Sb14  1  0.40662220  0.57937069  0.46118335  1
  Sb  Sb15  1  0.60385140  0.56267002  0.53869440  1
  Sb  Sb16  1  0.53186051  0.93826040  0.80121945  1
  Sb  Sb17  1  0.46956056  0.97236536  0.18375753  1
  S  S18  1  0.93378180  0.01541033  0.79971948  1
  S  S19  1  0.05405929  0.00131467  0.19412451  1
  S  S20  1  0.41100746  0.99092382  0.97521902  1
  S  S21  1  0.57923999  0.00108327  0.00248022  1
  S  S22  1  0.17421134  0.93468994  0.89313892  1
  S  S23  1  0.83184430  0.03129508  0.11176251  1
  S  S24  1  0.10968645  0.50342399  0.64741349  1
  S  S25  1  0.89455718  0.41153489  0.35233577  1
  S  S26  1  0.73730923  0.96276324  0.31733836  1
  S  S27  1  0.26715194  0.94607449  0.68101293  1
  S  S28  1  0.17330548  0.49625671  0.45084111  1
  S  S29  1  0.81102154  0.52272241  0.54131118  1
  S  S30  1  0.43482582  0.45781557  0.79685596  1
  S  S31  1  0.56494965  0.48130691  0.20198559  1
  S  S32  1  0.91672950  0.49079205  0.99525297  1
  S  S33  1  0.08276771  0.45379170  0.03051347  1
  S  S34  1  0.67498437  0.57279504  0.90780938  1
  S  S35  1  0.33267843  0.41188436  0.11223223  1
  S  S36  1  0.59888648  0.02649733  0.65434274  1
  S  S37  1  0.40122609  0.01863032  0.34183202  1
  S  S38  1  0.24669005  0.53908185  0.33468281  1
  S  S39  1  0.75891041  0.51599272  0.68986101  1
  S  S40  1  0.66815124  0.93781944  0.44834385  1
  S  S41  1  0.33773269  0.88465146  0.56027411  1
