# generated using pymatgen
data_Pr2Mn3(SbS3)4
_symmetry_space_group_name_H-M   'P 1'
_cell_length_a   20.02960800
_cell_length_b   3.90410600
_cell_length_c   14.95364829
_cell_angle_alpha   90.00000000
_cell_angle_beta   126.33350609
_cell_angle_gamma   90.00000000
_symmetry_Int_Tables_number   1
_chemical_formula_structural   Pr2Mn3(SbS3)4
_chemical_formula_sum   'Pr4 Mn6 Sb8 S24'
_cell_volume   942.00006694
_cell_formula_units_Z   2
loop_
 _symmetry_equiv_pos_site_id
 _symmetry_equiv_pos_as_xyz
  1  'x, y, z'
loop_
 _atom_site_type_symbol
 _atom_site_label
 _atom_site_symmetry_multiplicity
 _atom_site_fract_x
 _atom_site_fract_y
 _atom_site_fract_z
 _atom_site_occupancy
  Pr  Pr0  1  0.27673265  0.49377355  0.88174201  1
  Pr  Pr1  1  0.73619871  0.50939639  0.14469887  1
  Pr  Pr2  1  0.76333697  0.06025300  0.87308521  1
  Pr  Pr3  1  0.23462934  0.90475392  0.12356735  1
  Mn  Mn4  1  0.30190462  0.41208632  0.60792412  1
  Mn  Mn5  1  0.69395835  0.50637693  0.36317083  1
  Mn  Mn6  1  0.00680916  0.95319466  0.01864777  1
  Mn  Mn7  1  0.79419946  0.94975312  0.62535924  1
  Mn  Mn8  1  0.21891945  0.04308238  0.40457846  1
  Mn  Mn9  1  0.47339422  0.50389657  0.96490447  1
  Sb  Sb10  1  0.89003908  0.88725116  0.45949278  1
  Sb  Sb11  1  0.11831639  0.96364441  0.54108113  1
  Sb  Sb12  1  0.03798727  0.50772188  0.83077431  1
  Sb  Sb13  1  0.96730457  0.46853619  0.20340812  1
  Sb  Sb14  1  0.40656991  0.57932940  0.46117985  1
  Sb  Sb15  1  0.60394553  0.56265549  0.53881792  1
  Sb  Sb16  1  0.53194222  0.93768440  0.80135155  1
  Sb  Sb17  1  0.46961175  0.97255598  0.18388990  1
  S  S18  1  0.93375851  0.01431151  0.79950008  1
  S  S19  1  0.05425019  0.99999059  0.19455806  1
  S  S20  1  0.41087488  0.99140710  0.97511938  1
  S  S21  1  0.57948197  0.00010255  0.00283231  1
  S  S22  1  0.17408858  0.93614294  0.89284344  1
  S  S23  1  0.83183064  0.03253672  0.11192302  1
  S  S24  1  0.10982482  0.50348650  0.64743037  1
  S  S25  1  0.89433137  0.41026134  0.35213498  1
  S  S26  1  0.73734170  0.96322988  0.31718787  1
  S  S27  1  0.26721214  0.94564888  0.68145751  1
  S  S28  1  0.17365420  0.49583417  0.45104339  1
  S  S29  1  0.81120854  0.52142353  0.54148340  1
  S  S30  1  0.43455721  0.45743759  0.79661942  1
  S  S31  1  0.56486350  0.48121570  0.20159685  1
  S  S32  1  0.91660441  0.49173103  0.99531970  1
  S  S33  1  0.08270691  0.45386440  0.03062846  1
  S  S34  1  0.67494768  0.57404950  0.90764287  1
  S  S35  1  0.33265941  0.41196924  0.11199007  1
  S  S36  1  0.59887231  0.02678755  0.65452986  1
  S  S37  1  0.40126929  0.01852212  0.34208731  1
  S  S38  1  0.24657967  0.53993404  0.33463976  1
  S  S39  1  0.75887190  0.51496828  0.68993284  1
  S  S40  1  0.66831290  0.93795808  0.44868260  1
  S  S41  1  0.33764630  0.88531544  0.55999299  1
