# generated using pymatgen
data_Pr2Mn3(SbS3)4
_symmetry_space_group_name_H-M   'P 1'
_cell_length_a   20.02960800
_cell_length_b   3.90410600
_cell_length_c   14.95364829
_cell_angle_alpha   90.00000000
_cell_angle_beta   126.33350609
_cell_angle_gamma   90.00000000
_symmetry_Int_Tables_number   1
_chemical_formula_structural   Pr2Mn3(SbS3)4
_chemical_formula_sum   'Pr4 Mn6 Sb8 S24'
_cell_volume   942.00006694
_cell_formula_units_Z   2
loop_
 _symmetry_equiv_pos_site_id
 _symmetry_equiv_pos_as_xyz
  1  'x, y, z'
loop_
 _atom_site_type_symbol
 _atom_site_label
 _atom_site_symmetry_multiplicity
 _atom_site_fract_x
 _atom_site_fract_y
 _atom_site_fract_z
 _atom_site_occupancy
  Pr  Pr0  1  0.27671327  0.49359237  0.88163298  1
  Pr  Pr1  1  0.73620227  0.50919129  0.14467255  1
  Pr  Pr2  1  0.76321414  0.06066181  0.87296961  1
  Pr  Pr3  1  0.23456521  0.90415424  0.12342517  1
  Mn  Mn4  1  0.30179553  0.41252948  0.60786643  1
  Mn  Mn5  1  0.69400292  0.50603744  0.36319688  1
  Mn  Mn6  1  0.00681718  0.95361473  0.01858822  1
  Mn  Mn7  1  0.79411918  0.95003056  0.62521844  1
  Mn  Mn8  1  0.21891515  0.04259579  0.40454156  1
  Mn  Mn9  1  0.47336247  0.50488414  0.96479033  1
  Sb  Sb10  1  0.88999894  0.88701859  0.45948506  1
  Sb  Sb11  1  0.11820579  0.96394469  0.54102367  1
  Sb  Sb12  1  0.03809598  0.50764056  0.83074359  1
  Sb  Sb13  1  0.96727256  0.46863363  0.20347575  1
  Sb  Sb14  1  0.40656220  0.57931362  0.46114513  1
  Sb  Sb15  1  0.60401743  0.56238359  0.53893604  1
  Sb  Sb16  1  0.53199827  0.93695450  0.80152797  1
  Sb  Sb17  1  0.46962007  0.97246742  0.18398311  1
  S  S18  1  0.93370359  0.01325960  0.79927135  1
  S  S19  1  0.05425577  0.99870980  0.19493392  1
  S  S20  1  0.41066075  0.99169569  0.97508093  1
  S  S21  1  0.57982544  0.99903809  0.00327823  1
  S  S22  1  0.17404021  0.93759003  0.89266099  1
  S  S23  1  0.83171664  0.03298415  0.11196806  1
  S  S24  1  0.10995702  0.50346523  0.64751488  1
  S  S25  1  0.89414628  0.40926465  0.35204350  1
  S  S26  1  0.73742897  0.96423002  0.31707535  1
  S  S27  1  0.26734400  0.94548091  0.68188058  1
  S  S28  1  0.17412191  0.49575234  0.45134824  1
  S  S29  1  0.81143034  0.52016520  0.54162789  1
  S  S30  1  0.43440652  0.45738979  0.79640616  1
  S  S31  1  0.56484122  0.48132697  0.20113623  1
  S  S32  1  0.91672193  0.49253164  0.99560022  1
  S  S33  1  0.08268447  0.45427275  0.03076481  1
  S  S34  1  0.67498595  0.57513452  0.90753694  1
  S  S35  1  0.33278894  0.41240521  0.11185099  1
  S  S36  1  0.59882724  0.02704871  0.65462269  1
  S  S37  1  0.40135556  0.01832238  0.34241650  1
  S  S38  1  0.24651921  0.54085741  0.33459794  1
  S  S39  1  0.75874239  0.51417067  0.68992153  1
  S  S40  1  0.66842274  0.93774870  0.44900144  1
  S  S41  1  0.33752095  0.88625318  0.55966278  1
