# generated using pymatgen
data_Pr2Mn3(SbS3)4
_symmetry_space_group_name_H-M   'P 1'
_cell_length_a   20.02960800
_cell_length_b   3.90410600
_cell_length_c   14.95364829
_cell_angle_alpha   90.00000000
_cell_angle_beta   126.33350609
_cell_angle_gamma   90.00000000
_symmetry_Int_Tables_number   1
_chemical_formula_structural   Pr2Mn3(SbS3)4
_chemical_formula_sum   'Pr4 Mn6 Sb8 S24'
_cell_volume   942.00006694
_cell_formula_units_Z   2
loop_
 _symmetry_equiv_pos_site_id
 _symmetry_equiv_pos_as_xyz
  1  'x, y, z'
loop_
 _atom_site_type_symbol
 _atom_site_label
 _atom_site_symmetry_multiplicity
 _atom_site_fract_x
 _atom_site_fract_y
 _atom_site_fract_z
 _atom_site_occupancy
  Pr  Pr0  1  0.27664110  0.49351808  0.88150284  1
  Pr  Pr1  1  0.73618493  0.50920780  0.14467145  1
  Pr  Pr2  1  0.76307190  0.06110001  0.87283092  1
  Pr  Pr3  1  0.23453322  0.90358926  0.12330544  1
  Mn  Mn4  1  0.30165135  0.41318839  0.60776570  1
  Mn  Mn5  1  0.69400202  0.50573342  0.36326467  1
  Mn  Mn6  1  0.00687087  0.95447741  0.01865628  1
  Mn  Mn7  1  0.79399306  0.95053170  0.62510093  1
  Mn  Mn8  1  0.21874760  0.04234602  0.40437593  1
  Mn  Mn9  1  0.47330004  0.50558804  0.96465324  1
  Sb  Sb10  1  0.88996031  0.88683416  0.45945572  1
  Sb  Sb11  1  0.11804349  0.96408900  0.54093717  1
  Sb  Sb12  1  0.03822267  0.50733950  0.83073826  1
  Sb  Sb13  1  0.96724033  0.46892012  0.20351469  1
  Sb  Sb14  1  0.40661586  0.57918921  0.46115385  1
  Sb  Sb15  1  0.60408838  0.56187982  0.53906024  1
  Sb  Sb16  1  0.53205691  0.93634597  0.80167388  1
  Sb  Sb17  1  0.46959742  0.97225354  0.18400816  1
  S  S18  1  0.93358059  0.01227646  0.79895264  1
  S  S19  1  0.05412650  0.99771767  0.19519657  1
  S  S20  1  0.41058092  0.99203049  0.97516813  1
  S  S21  1  0.58014559  0.99819419  0.00369083  1
  S  S22  1  0.17388987  0.93896661  0.89246977  1
  S  S23  1  0.83164502  0.03348352  0.11203086  1
  S  S24  1  0.11008959  0.50311922  0.64755800  1
  S  S25  1  0.89413250  0.40848138  0.35213202  1
  S  S26  1  0.73759092  0.96536392  0.31710466  1
  S  S27  1  0.26753572  0.94531753  0.68227364  1
  S  S28  1  0.17444965  0.49554740  0.45154326  1
  S  S29  1  0.81154301  0.51885780  0.54169857  1
  S  S30  1  0.43423448  0.45743034  0.79617635  1
  S  S31  1  0.56475833  0.48127540  0.20066004  1
  S  S32  1  0.91689837  0.49329965  0.99584123  1
  S  S33  1  0.08260703  0.45404028  0.03088757  1
  S  S34  1  0.67513048  0.57603051  0.90760245  1
  S  S35  1  0.33283515  0.41304914  0.11155605  1
  S  S36  1  0.59882099  0.02715165  0.65482385  1
  S  S37  1  0.40147320  0.01864997  0.34282007  1
  S  S38  1  0.24637518  0.54169628  0.33464913  1
  S  S39  1  0.75860212  0.51318243  0.69012683  1
  S  S40  1  0.66852476  0.93789390  0.44932033  1
  S  S41  1  0.33732832  0.88760353  0.55926633  1
