# generated using pymatgen
data_Pr2Mn3(SbS3)4
_symmetry_space_group_name_H-M   'P 1'
_cell_length_a   20.02960800
_cell_length_b   3.90410600
_cell_length_c   14.95364829
_cell_angle_alpha   90.00000000
_cell_angle_beta   126.33350609
_cell_angle_gamma   90.00000000
_symmetry_Int_Tables_number   1
_chemical_formula_structural   Pr2Mn3(SbS3)4
_chemical_formula_sum   'Pr4 Mn6 Sb8 S24'
_cell_volume   942.00006694
_cell_formula_units_Z   2
loop_
 _symmetry_equiv_pos_site_id
 _symmetry_equiv_pos_as_xyz
  1  'x, y, z'
loop_
 _atom_site_type_symbol
 _atom_site_label
 _atom_site_symmetry_multiplicity
 _atom_site_fract_x
 _atom_site_fract_y
 _atom_site_fract_z
 _atom_site_occupancy
  Pr  Pr0  1  0.27656963  0.49348314  0.88138935  1
  Pr  Pr1  1  0.73616843  0.50905721  0.14470926  1
  Pr  Pr2  1  0.76298202  0.06170040  0.87274201  1
  Pr  Pr3  1  0.23455452  0.90306270  0.12323385  1
  Mn  Mn4  1  0.30140362  0.41375851  0.60758263  1
  Mn  Mn5  1  0.69399863  0.50551175  0.36326187  1
  Mn  Mn6  1  0.00692896  0.95527636  0.01882324  1
  Mn  Mn7  1  0.79392759  0.95093371  0.62497969  1
  Mn  Mn8  1  0.21857706  0.04197405  0.40432632  1
  Mn  Mn9  1  0.47324973  0.50658305  0.96451586  1
  Sb  Sb10  1  0.88988581  0.88675103  0.45943217  1
  Sb  Sb11  1  0.11788981  0.96448751  0.54086058  1
  Sb  Sb12  1  0.03834952  0.50738462  0.83072476  1
  Sb  Sb13  1  0.96714039  0.46945550  0.20348314  1
  Sb  Sb14  1  0.40666606  0.57900001  0.46109152  1
  Sb  Sb15  1  0.60410176  0.56146545  0.53912088  1
  Sb  Sb16  1  0.53206070  0.93591279  0.80179423  1
  Sb  Sb17  1  0.46958014  0.97194129  0.18404096  1
  S  S18  1  0.93341178  0.01122800  0.79861942  1
  S  S19  1  0.05406788  0.99677125  0.19529801  1
  S  S20  1  0.41041991  0.99201107  0.97525664  1
  S  S21  1  0.58043874  0.99737257  0.00394683  1
  S  S22  1  0.17384864  0.93990177  0.89237698  1
  S  S23  1  0.83153934  0.03394255  0.11202588  1
  S  S24  1  0.11034538  0.50343517  0.64773752  1
  S  S25  1  0.89409646  0.40831012  0.35221166  1
  S  S26  1  0.73774165  0.96623671  0.31719852  1
  S  S27  1  0.26764282  0.94540769  0.68240163  1
  S  S28  1  0.17473569  0.49499315  0.45179969  1
  S  S29  1  0.81161349  0.51788434  0.54160407  1
  S  S30  1  0.43418221  0.45676124  0.79595776  1
  S  S31  1  0.56462035  0.48150299  0.20009678  1
  S  S32  1  0.91709515  0.49423436  0.99604633  1
  S  S33  1  0.08253095  0.45365879  0.03111061  1
  S  S34  1  0.67526538  0.57687250  0.90757571  1
  S  S35  1  0.33275821  0.41332790  0.11125161  1
  S  S36  1  0.59894983  0.02699175  0.65506967  1
  S  S37  1  0.40162181  0.01888630  0.34321179  1
  S  S38  1  0.24610447  0.54272206  0.33467190  1
  S  S39  1  0.75849545  0.51200496  0.69028871  1
  S  S40  1  0.66863239  0.93845946  0.44965444  1
  S  S41  1  0.33708272  0.88874851  0.55887719  1
