# generated using pymatgen
data_Pr2Mn3(SbS3)4
_symmetry_space_group_name_H-M   'P 1'
_cell_length_a   20.02960800
_cell_length_b   3.90410600
_cell_length_c   14.95364829
_cell_angle_alpha   90.00000000
_cell_angle_beta   126.33350609
_cell_angle_gamma   90.00000000
_symmetry_Int_Tables_number   1
_chemical_formula_structural   Pr2Mn3(SbS3)4
_chemical_formula_sum   'Pr4 Mn6 Sb8 S24'
_cell_volume   942.00006694
_cell_formula_units_Z   2
loop_
 _symmetry_equiv_pos_site_id
 _symmetry_equiv_pos_as_xyz
  1  'x, y, z'
loop_
 _atom_site_type_symbol
 _atom_site_label
 _atom_site_symmetry_multiplicity
 _atom_site_fract_x
 _atom_site_fract_y
 _atom_site_fract_z
 _atom_site_occupancy
  Pr  Pr0  1  0.27644813  0.49360218  0.88120698  1
  Pr  Pr1  1  0.73617223  0.50903622  0.14475139  1
  Pr  Pr2  1  0.76289833  0.06245070  0.87264311  1
  Pr  Pr3  1  0.23451431  0.90266049  0.12315903  1
  Mn  Mn4  1  0.30128009  0.41426419  0.60752209  1
  Mn  Mn5  1  0.69401630  0.50569721  0.36331154  1
  Mn  Mn6  1  0.00693954  0.95615174  0.01901705  1
  Mn  Mn7  1  0.79395212  0.95144583  0.62504259  1
  Mn  Mn8  1  0.21834523  0.04142305  0.40418288  1
  Mn  Mn9  1  0.47329377  0.50710072  0.96448097  1
  Sb  Sb10  1  0.88986427  0.88685631  0.45947465  1
  Sb  Sb11  1  0.11775417  0.96505813  0.54079426  1
  Sb  Sb12  1  0.03846402  0.50747634  0.83063179  1
  Sb  Sb13  1  0.96702724  0.46980485  0.20336134  1
  Sb  Sb14  1  0.40673152  0.57879751  0.46104009  1
  Sb  Sb15  1  0.60411973  0.56109520  0.53925686  1
  Sb  Sb16  1  0.53206120  0.93576947  0.80187030  1
  Sb  Sb17  1  0.46962019  0.97163937  0.18410544  1
  S  S18  1  0.93320061  0.00999601  0.79821655  1
  S  S19  1  0.05410568  0.99584533  0.19546171  1
  S  S20  1  0.41035857  0.99263439  0.97547255  1
  S  S21  1  0.58079911  0.99657556  0.00430238  1
  S  S22  1  0.17387227  0.94098081  0.89224889  1
  S  S23  1  0.83154571  0.03330964  0.11214171  1
  S  S24  1  0.11054621  0.50319315  0.64800252  1
  S  S25  1  0.89397449  0.40795636  0.35229303  1
  S  S26  1  0.73779416  0.96676313  0.31729017  1
  S  S27  1  0.26776339  0.94520763  0.68255760  1
  S  S28  1  0.17483664  0.49428207  0.45202588  1
  S  S29  1  0.81171717  0.51696561  0.54150155  1
  S  S30  1  0.43421633  0.45592441  0.79580402  1
  S  S31  1  0.56441363  0.48185438  0.19945503  1
  S  S32  1  0.91714514  0.49527439  0.99610174  1
  S  S33  1  0.08248579  0.45381473  0.03131035  1
  S  S34  1  0.67529954  0.57837098  0.90751072  1
  S  S35  1  0.33260695  0.41353935  0.11099553  1
  S  S36  1  0.59907926  0.02701391  0.65535351  1
  S  S37  1  0.40174590  0.01921888  0.34353236  1
  S  S38  1  0.24594084  0.54290254  0.33477966  1
  S  S39  1  0.75845589  0.51102199  0.69049018  1
  S  S40  1  0.66860676  0.93987261  0.44987842  1
  S  S41  1  0.33690183  0.89045569  0.55853966  1
