# generated using pymatgen
data_Pr2Mn3(SbS3)4
_symmetry_space_group_name_H-M   'P 1'
_cell_length_a   20.02960800
_cell_length_b   3.90410600
_cell_length_c   14.95364829
_cell_angle_alpha   90.00000000
_cell_angle_beta   126.33350609
_cell_angle_gamma   90.00000000
_symmetry_Int_Tables_number   1
_chemical_formula_structural   Pr2Mn3(SbS3)4
_chemical_formula_sum   'Pr4 Mn6 Sb8 S24'
_cell_volume   942.00006694
_cell_formula_units_Z   2
loop_
 _symmetry_equiv_pos_site_id
 _symmetry_equiv_pos_as_xyz
  1  'x, y, z'
loop_
 _atom_site_type_symbol
 _atom_site_label
 _atom_site_symmetry_multiplicity
 _atom_site_fract_x
 _atom_site_fract_y
 _atom_site_fract_z
 _atom_site_occupancy
  Pr  Pr0  1  0.27632150  0.49373179  0.88110808  1
  Pr  Pr1  1  0.73614068  0.50901354  0.14482512  1
  Pr  Pr2  1  0.76284416  0.06299201  0.87254137  1
  Pr  Pr3  1  0.23446755  0.90229882  0.12307137  1
  Mn  Mn4  1  0.30120309  0.41466195  0.60764543  1
  Mn  Mn5  1  0.69398032  0.50574918  0.36332328  1
  Mn  Mn6  1  0.00683778  0.95715218  0.01911816  1
  Mn  Mn7  1  0.79411067  0.95169056  0.62531417  1
  Mn  Mn8  1  0.21809964  0.04162385  0.40400630  1
  Mn  Mn9  1  0.47331970  0.50758823  0.96438446  1
  Sb  Sb10  1  0.88983835  0.88702072  0.45952338  1
  Sb  Sb11  1  0.11758757  0.96561248  0.54078259  1
  Sb  Sb12  1  0.03858147  0.50785922  0.83056510  1
  Sb  Sb13  1  0.96697124  0.46991313  0.20330488  1
  Sb  Sb14  1  0.40676009  0.57841275  0.46098843  1
  Sb  Sb15  1  0.60408140  0.56077204  0.53925188  1
  Sb  Sb16  1  0.53202514  0.93548045  0.80188909  1
  Sb  Sb17  1  0.46966875  0.97153106  0.18415981  1
  S  S18  1  0.93298989  0.00867024  0.79781890  1
  S  S19  1  0.05416655  0.99503342  0.19568927  1
  S  S20  1  0.41036172  0.99340750  0.97568129  1
  S  S21  1  0.58109551  0.99598122  0.00456910  1
  S  S22  1  0.17372360  0.94137022  0.89186178  1
  S  S23  1  0.83160741  0.03297355  0.11225023  1
  S  S24  1  0.11074152  0.50268364  0.64812745  1
  S  S25  1  0.89388004  0.40735344  0.35251219  1
  S  S26  1  0.73776989  0.96756633  0.31740524  1
  S  S27  1  0.26788988  0.94493221  0.68262406  1
  S  S28  1  0.17501734  0.49362606  0.45226551  1
  S  S29  1  0.81190607  0.51615042  0.54142649  1
  S  S30  1  0.43429242  0.45484263  0.79579375  1
  S  S31  1  0.56437830  0.48259145  0.19917485  1
  S  S32  1  0.91718485  0.49609950  0.99601598  1
  S  S33  1  0.08241466  0.45338404  0.03141300  1
  S  S34  1  0.67533743  0.57983113  0.90749505  1
  S  S35  1  0.33242112  0.41392893  0.11071868  1
  S  S36  1  0.59922933  0.02659254  0.65549810  1
  S  S37  1  0.40172286  0.01948294  0.34380812  1
  S  S38  1  0.24581837  0.54280797  0.33491034  1
  S  S39  1  0.75855221  0.51001439  0.69077692  1
  S  S40  1  0.66849130  0.94145269  0.45000238  1
  S  S41  1  0.33672867  0.89212975  0.55827543  1
