# generated using pymatgen
data_Pr2Mn3(SbS3)4
_symmetry_space_group_name_H-M   'P 1'
_cell_length_a   20.02960800
_cell_length_b   3.90410600
_cell_length_c   14.95364829
_cell_angle_alpha   90.00000000
_cell_angle_beta   126.33350609
_cell_angle_gamma   90.00000000
_symmetry_Int_Tables_number   1
_chemical_formula_structural   Pr2Mn3(SbS3)4
_chemical_formula_sum   'Pr4 Mn6 Sb8 S24'
_cell_volume   942.00006694
_cell_formula_units_Z   2
loop_
 _symmetry_equiv_pos_site_id
 _symmetry_equiv_pos_as_xyz
  1  'x, y, z'
loop_
 _atom_site_type_symbol
 _atom_site_label
 _atom_site_symmetry_multiplicity
 _atom_site_fract_x
 _atom_site_fract_y
 _atom_site_fract_z
 _atom_site_occupancy
  Pr  Pr0  1  0.27617650  0.49385138  0.88099888  1
  Pr  Pr1  1  0.73610917  0.50915550  0.14486651  1
  Pr  Pr2  1  0.76275148  0.06306486  0.87248887  1
  Pr  Pr3  1  0.23448065  0.90206717  0.12303623  1
  Mn  Mn4  1  0.30115807  0.41528528  0.60776127  1
  Mn  Mn5  1  0.69392469  0.50568001  0.36323865  1
  Mn  Mn6  1  0.00683002  0.95784893  0.01935419  1
  Mn  Mn7  1  0.79426109  0.95219660  0.62554280  1
  Mn  Mn8  1  0.21780395  0.04209571  0.40386217  1
  Mn  Mn9  1  0.47336134  0.50800053  0.96440479  1
  Sb  Sb10  1  0.88980270  0.88708555  0.45951817  1
  Sb  Sb11  1  0.11751609  0.96603672  0.54077905  1
  Sb  Sb12  1  0.03868782  0.50823443  0.83053379  1
  Sb  Sb13  1  0.96697272  0.46993121  0.20328672  1
  Sb  Sb14  1  0.40679244  0.57817249  0.46093158  1
  Sb  Sb15  1  0.60405484  0.56047330  0.53930126  1
  Sb  Sb16  1  0.53197367  0.93533084  0.80193088  1
  Sb  Sb17  1  0.46967173  0.97141382  0.18421149  1
  S  S18  1  0.93272309  0.00815959  0.79729081  1
  S  S19  1  0.05430493  0.99392185  0.19609636  1
  S  S20  1  0.41044393  0.99417328  0.97582274  1
  S  S21  1  0.58133765  0.99538175  0.00472032  1
  S  S22  1  0.17353623  0.94181890  0.89149191  1
  S  S23  1  0.83167720  0.03273960  0.11239436  1
  S  S24  1  0.11093469  0.50203482  0.64823020  1
  S  S25  1  0.89373332  0.40713554  0.35259461  1
  S  S26  1  0.73767506  0.96807780  0.31746739  1
  S  S27  1  0.26799493  0.94468516  0.68279441  1
  S  S28  1  0.17516520  0.49265792  0.45237393  1
  S  S29  1  0.81218021  0.51521722  0.54145667  1
  S  S30  1  0.43436618  0.45320781  0.79578216  1
  S  S31  1  0.56424348  0.48317686  0.19882254  1
  S  S32  1  0.91715640  0.49711635  0.99584581  1
  S  S33  1  0.08255265  0.45262563  0.03155327  1
  S  S34  1  0.67539341  0.58062159  0.90755273  1
  S  S35  1  0.33226379  0.41442099  0.11041750  1
  S  S36  1  0.59933892  0.02638028  0.65559406  1
  S  S37  1  0.40165871  0.01978052  0.34392195  1
  S  S38  1  0.24567046  0.54329716  0.33507329  1
  S  S39  1  0.75865748  0.50956888  0.69098658  1
  S  S40  1  0.66829948  0.94317376  0.45000341  1
  S  S41  1  0.33649800  0.89404920  0.55785408  1
