# generated using pymatgen
data_Pr2Mn3(SbS3)4
_symmetry_space_group_name_H-M   'P 1'
_cell_length_a   20.02960800
_cell_length_b   3.90410600
_cell_length_c   14.95364829
_cell_angle_alpha   90.00000000
_cell_angle_beta   126.33350609
_cell_angle_gamma   90.00000000
_symmetry_Int_Tables_number   1
_chemical_formula_structural   Pr2Mn3(SbS3)4
_chemical_formula_sum   'Pr4 Mn6 Sb8 S24'
_cell_volume   942.00006694
_cell_formula_units_Z   2
loop_
 _symmetry_equiv_pos_site_id
 _symmetry_equiv_pos_as_xyz
  1  'x, y, z'
loop_
 _atom_site_type_symbol
 _atom_site_label
 _atom_site_symmetry_multiplicity
 _atom_site_fract_x
 _atom_site_fract_y
 _atom_site_fract_z
 _atom_site_occupancy
  Pr  Pr0  1  0.27605257  0.49406877  0.88090074  1
  Pr  Pr1  1  0.73605910  0.50945815  0.14486847  1
  Pr  Pr2  1  0.76264387  0.06328073  0.87241841  1
  Pr  Pr3  1  0.23449417  0.90193034  0.12301907  1
  Mn  Mn4  1  0.30110885  0.41590270  0.60772410  1
  Mn  Mn5  1  0.69386733  0.50525530  0.36314653  1
  Mn  Mn6  1  0.00683050  0.95799133  0.01953340  1
  Mn  Mn7  1  0.79441446  0.95275800  0.62569678  1
  Mn  Mn8  1  0.21746447  0.04290281  0.40362811  1
  Mn  Mn9  1  0.47342002  0.50794181  0.96446440  1
  Sb  Sb10  1  0.88978311  0.88695505  0.45945283  1
  Sb  Sb11  1  0.11744479  0.96649853  0.54075256  1
  Sb  Sb12  1  0.03873805  0.50837417  0.83045324  1
  Sb  Sb13  1  0.96692480  0.46985679  0.20323467  1
  Sb  Sb14  1  0.40689943  0.57800526  0.46086702  1
  Sb  Sb15  1  0.60397895  0.55995941  0.53930143  1
  Sb  Sb16  1  0.53198374  0.93530141  0.80203057  1
  Sb  Sb17  1  0.46958210  0.97152276  0.18423688  1
  S  S18  1  0.93236399  0.00765482  0.79670491  1
  S  S19  1  0.05432199  0.99293753  0.19644705  1
  S  S20  1  0.41061116  0.99474428  0.97596963  1
  S  S21  1  0.58159705  0.99473403  0.00490924  1
  S  S22  1  0.17333737  0.94168851  0.89105862  1
  S  S23  1  0.83175416  0.03270357  0.11246550  1
  S  S24  1  0.11107824  0.50149544  0.64828206  1
  S  S25  1  0.89355366  0.40705566  0.35255842  1
  S  S26  1  0.73760811  0.96839721  0.31743860  1
  S  S27  1  0.26809275  0.94434875  0.68298955  1
  S  S28  1  0.17530073  0.49210172  0.45246636  1
  S  S29  1  0.81248395  0.51423777  0.54151878  1
  S  S30  1  0.43451027  0.45229555  0.79597089  1
  S  S31  1  0.56413338  0.48323042  0.19841245  1
  S  S32  1  0.91716161  0.49859538  0.99571689  1
  S  S33  1  0.08275059  0.45205991  0.03182734  1
  S  S34  1  0.67550055  0.58128018  0.90763291  1
  S  S35  1  0.33199149  0.41550352  0.11010013  1
  S  S36  1  0.59943789  0.02640739  0.65574003  1
  S  S37  1  0.40161671  0.02014429  0.34406192  1
  S  S38  1  0.24558038  0.54333615  0.33531145  1
  S  S39  1  0.75860948  0.50985911  0.69113481  1
  S  S40  1  0.66817711  0.94427982  0.45006109  1
  S  S41  1  0.33632487  0.89574388  0.55762199  1
