# generated using pymatgen
data_Pr2Mn3(SbS3)4
_symmetry_space_group_name_H-M   'P 1'
_cell_length_a   20.02960800
_cell_length_b   3.90410600
_cell_length_c   14.95364829
_cell_angle_alpha   90.00000000
_cell_angle_beta   126.33350609
_cell_angle_gamma   90.00000000
_symmetry_Int_Tables_number   1
_chemical_formula_structural   Pr2Mn3(SbS3)4
_chemical_formula_sum   'Pr4 Mn6 Sb8 S24'
_cell_volume   942.00006694
_cell_formula_units_Z   2
loop_
 _symmetry_equiv_pos_site_id
 _symmetry_equiv_pos_as_xyz
  1  'x, y, z'
loop_
 _atom_site_type_symbol
 _atom_site_label
 _atom_site_symmetry_multiplicity
 _atom_site_fract_x
 _atom_site_fract_y
 _atom_site_fract_z
 _atom_site_occupancy
  Pr  Pr0  1  0.27594097  0.49428208  0.88080193  1
  Pr  Pr1  1  0.73599309  0.50960998  0.14482860  1
  Pr  Pr2  1  0.76253601  0.06337431  0.87242822  1
  Pr  Pr3  1  0.23455254  0.90191910  0.12305074  1
  Mn  Mn4  1  0.30104854  0.41655210  0.60766805  1
  Mn  Mn5  1  0.69384773  0.50482073  0.36305795  1
  Mn  Mn6  1  0.00687836  0.95817421  0.01970217  1
  Mn  Mn7  1  0.79460411  0.95309857  0.62586179  1
  Mn  Mn8  1  0.21713905  0.04331651  0.40336076  1
  Mn  Mn9  1  0.47347388  0.50788627  0.96451201  1
  Sb  Sb10  1  0.88970283  0.88684418  0.45936052  1
  Sb  Sb11  1  0.11744649  0.96683194  0.54080214  1
  Sb  Sb12  1  0.03882850  0.50835466  0.83039866  1
  Sb  Sb13  1  0.96696222  0.46972610  0.20327782  1
  Sb  Sb14  1  0.40706710  0.57790516  0.46084521  1
  Sb  Sb15  1  0.60388288  0.55966945  0.53928173  1
  Sb  Sb16  1  0.53203255  0.93531055  0.80208388  1
  Sb  Sb17  1  0.46949175  0.97142550  0.18428751  1
  S  S18  1  0.93207999  0.00665473  0.79629249  1
  S  S19  1  0.05433720  0.99198067  0.19678772  1
  S  S20  1  0.41074482  0.99548158  0.97611819  1
  S  S21  1  0.58180361  0.99459331  0.00505868  1
  S  S22  1  0.17324613  0.94105444  0.89079340  1
  S  S23  1  0.83173451  0.03254968  0.11252834  1
  S  S24  1  0.11123608  0.50114749  0.64829736  1
  S  S25  1  0.89340509  0.40682878  0.35251049  1
  S  S26  1  0.73747925  0.96909545  0.31739062  1
  S  S27  1  0.26827934  0.94441777  0.68310569  1
  S  S28  1  0.17547286  0.49180256  0.45246496  1
  S  S29  1  0.81283623  0.51327653  0.54168442  1
  S  S30  1  0.43464088  0.45156129  0.79615621  1
  S  S31  1  0.56405203  0.48335149  0.19787467  1
  S  S32  1  0.91718827  0.50035126  0.99573628  1
  S  S33  1  0.08298968  0.45143166  0.03205998  1
  S  S34  1  0.67557389  0.58181080  0.90755985  1
  S  S35  1  0.33177056  0.41657540  0.10988309  1
  S  S36  1  0.59944784  0.02671611  0.65584208  1
  S  S37  1  0.40148484  0.02093644  0.34407924  1
  S  S38  1  0.24542448  0.54334950  0.33530439  1
  S  S39  1  0.75833383  0.51023090  0.69097610  1
  S  S40  1  0.66811075  0.94533015  0.45019147  1
  S  S41  1  0.33624084  0.89737108  0.55755069  1
