# generated using pymatgen
data_Pr2Mn3(SbS3)4
_symmetry_space_group_name_H-M   'P 1'
_cell_length_a   20.02960800
_cell_length_b   3.90410600
_cell_length_c   14.95364829
_cell_angle_alpha   90.00000000
_cell_angle_beta   126.33350609
_cell_angle_gamma   90.00000000
_symmetry_Int_Tables_number   1
_chemical_formula_structural   Pr2Mn3(SbS3)4
_chemical_formula_sum   'Pr4 Mn6 Sb8 S24'
_cell_volume   942.00006694
_cell_formula_units_Z   2
loop_
 _symmetry_equiv_pos_site_id
 _symmetry_equiv_pos_as_xyz
  1  'x, y, z'
loop_
 _atom_site_type_symbol
 _atom_site_label
 _atom_site_symmetry_multiplicity
 _atom_site_fract_x
 _atom_site_fract_y
 _atom_site_fract_z
 _atom_site_occupancy
  Pr  Pr0  1  0.26097654  0.49887120  0.86382285  1
  Pr  Pr1  1  0.74015570  0.49880314  0.13700794  1
  Pr  Pr2  1  0.76018956  0.00427693  0.86242874  1
  Pr  Pr3  1  0.24037927  0.99395526  0.13770385  1
  Mn  Mn4  1  0.30021151  0.50541296  0.62065159  1
  Mn  Mn5  1  0.69825952  0.50074739  0.37932086  1
  Mn  Mn6  1  0.00000275  0.99714388  0.00025420  1
  Mn  Mn7  1  0.80144769  0.99766715  0.62004050  1
  Mn  Mn8  1  0.19893807  0.99542773  0.37914646  1
  Mn  Mn9  1  0.49992590  0.49213598  0.00094461  1
  Sb  Sb10  1  0.89466101  0.00175794  0.45348667  1
  Sb  Sb11  1  0.10676753  0.99709992  0.54908979  1
  Sb  Sb12  1  0.03815108  0.49601228  0.81432174  1
  Sb  Sb13  1  0.96225001  0.49685492  0.18668963  1
  Sb  Sb14  1  0.39432105  0.49672071  0.45478915  1
  Sb  Sb15  1  0.60561576  0.49837882  0.54725204  1
  Sb  Sb16  1  0.53896813  0.99752105  0.81534108  1
  Sb  Sb17  1  0.46229658  0.00006290  0.18542119  1
  S  S18  1  0.94043532  0.99767751  0.79975371  1
  S  S19  1  0.05785633  0.99455222  0.19607779  1
  S  S20  1  0.40168404  0.99041759  0.98001897  1
  S  S21  1  0.59926196  0.99830898  0.01931933  1
  S  S22  1  0.16856270  0.99015659  0.89747144  1
  S  S23  1  0.82993912  0.00241276  0.10262908  1
  S  S24  1  0.08968825  0.49649146  0.64989363  1
  S  S25  1  0.91005694  0.49752659  0.34911275  1
  S  S26  1  0.74342613  0.99291852  0.29482383  1
  S  S27  1  0.25689528  0.00709375  0.70388465  1
  S  S28  1  0.15660184  0.49261576  0.45042479  1
  S  S29  1  0.84183431  0.50408341  0.54764449  1
  S  S30  1  0.44228729  0.49650813  0.80045413  1
  S  S31  1  0.55976828  0.49796558  0.19955125  1
  S  S32  1  0.90230242  0.49566424  0.98000619  1
  S  S33  1  0.09839215  0.49298973  0.02130660  1
  S  S34  1  0.66626949  0.50668525  0.89442959  1
  S  S35  1  0.33403270  0.49928005  0.10578358  1
  S  S36  1  0.58759078  0.00847612  0.64725985  1
  S  S37  1  0.41307562  0.99463170  0.35301333  1
  S  S38  1  0.24380084  0.49068968  0.29297898  1
  S  S39  1  0.75975618  0.49972092  0.70755756  1
  S  S40  1  0.65759436  0.99540035  0.45332445  1
  S  S41  1  0.34288439  0.99451456  0.54618843  1
