# generated using pymatgen
data_Pr2Mn3(SbS3)4
_symmetry_space_group_name_H-M   'P 1'
_cell_length_a   20.02960800
_cell_length_b   3.90410600
_cell_length_c   14.95364829
_cell_angle_alpha   90.00000000
_cell_angle_beta   126.33350609
_cell_angle_gamma   90.00000000
_symmetry_Int_Tables_number   1
_chemical_formula_structural   Pr2Mn3(SbS3)4
_chemical_formula_sum   'Pr4 Mn6 Sb8 S24'
_cell_volume   942.00006694
_cell_formula_units_Z   2
loop_
 _symmetry_equiv_pos_site_id
 _symmetry_equiv_pos_as_xyz
  1  'x, y, z'
loop_
 _atom_site_type_symbol
 _atom_site_label
 _atom_site_symmetry_multiplicity
 _atom_site_fract_x
 _atom_site_fract_y
 _atom_site_fract_z
 _atom_site_occupancy
  Pr  Pr0  1  0.26453451  0.47311528  0.86918234  1
  Pr  Pr1  1  0.73783364  0.51842821  0.13724423  1
  Pr  Pr2  1  0.76412528  0.01383830  0.86470260  1
  Pr  Pr3  1  0.23649440  0.00416356  0.13851645  1
  Mn  Mn4  1  0.29242465  0.48691641  0.60282321  1
  Mn  Mn5  1  0.69407799  0.52625822  0.38033898  1
  Mn  Mn6  1  0.00616021  0.99425346  0.00543771  1
  Mn  Mn7  1  0.80229959  0.00161635  0.61450959  1
  Mn  Mn8  1  0.19471475  0.97056905  0.37736903  1
  Mn  Mn9  1  0.50060270  0.46354380  0.99166758  1
  Sb  Sb10  1  0.88998155  0.99561073  0.45259442  1
  Sb  Sb11  1  0.11184312  0.96345135  0.55168201  1
  Sb  Sb12  1  0.03992174  0.51458857  0.81809071  1
  Sb  Sb13  1  0.96270231  0.51483735  0.18585376  1
  Sb  Sb14  1  0.39783434  0.50341618  0.45722338  1
  Sb  Sb15  1  0.60635106  0.48496714  0.54685795  1
  Sb  Sb16  1  0.53382117  0.01089535  0.81165779  1
  Sb  Sb17  1  0.46180594  0.00942321  0.18262406  1
  S  S18  1  0.93689256  0.98106603  0.80523412  1
  S  S19  1  0.06550990  0.97482962  0.18591426  1
  S  S20  1  0.41096150  0.01335979  0.97943752  1
  S  S21  1  0.59238381  0.99853131  0.02586674  1
  S  S22  1  0.17284109  0.98741405  0.89409286  1
  S  S23  1  0.82511028  0.01812295  0.09560608  1
  S  S24  1  0.08668082  0.46780573  0.64515002  1
  S  S25  1  0.91083302  0.47724480  0.35698736  1
  S  S26  1  0.74014891  0.95892631  0.29745653  1
  S  S27  1  0.25846573  0.99480036  0.70486756  1
  S  S28  1  0.17149515  0.48893044  0.44613269  1
  S  S29  1  0.82837791  0.49156663  0.55001180  1
  S  S30  1  0.43274402  0.49890033  0.79728378  1
  S  S31  1  0.56154964  0.51520979  0.18464652  1
  S  S32  1  0.91351533  0.50315816  0.99466351  1
  S  S33  1  0.08237136  0.49850687  0.01411802  1
  S  S34  1  0.66560463  0.48533952  0.88761387  1
  S  S35  1  0.32661824  0.51306483  0.09218837  1
  S  S36  1  0.59353678  0.00342753  0.65737795  1
  S  S37  1  0.40670585  0.97280203  0.34575285  1
  S  S38  1  0.24505932  0.45930375  0.30970145  1
  S  S39  1  0.76184976  0.50337141  0.70089244  1
  S  S40  1  0.67543338  0.02229895  0.46026595  1
  S  S41  1  0.32732685  0.98298843  0.54326099  1
