# generated using pymatgen
data_Pr2Mn3(SbS3)4
_symmetry_space_group_name_H-M   'P 1'
_cell_length_a   20.02960800
_cell_length_b   3.90410600
_cell_length_c   14.95364829
_cell_angle_alpha   90.00000000
_cell_angle_beta   126.33350609
_cell_angle_gamma   90.00000000
_symmetry_Int_Tables_number   1
_chemical_formula_structural   Pr2Mn3(SbS3)4
_chemical_formula_sum   'Pr4 Mn6 Sb8 S24'
_cell_volume   942.00006694
_cell_formula_units_Z   2
loop_
 _symmetry_equiv_pos_site_id
 _symmetry_equiv_pos_as_xyz
  1  'x, y, z'
loop_
 _atom_site_type_symbol
 _atom_site_label
 _atom_site_symmetry_multiplicity
 _atom_site_fract_x
 _atom_site_fract_y
 _atom_site_fract_z
 _atom_site_occupancy
  Pr  Pr0  1  0.27588958  0.49442542  0.88079338  1
  Pr  Pr1  1  0.73591995  0.50965013  0.14471642  1
  Pr  Pr2  1  0.76247570  0.06343253  0.87239192  1
  Pr  Pr3  1  0.23461016  0.90174081  0.12310073  1
  Mn  Mn4  1  0.30099924  0.41677441  0.60753924  1
  Mn  Mn5  1  0.69379454  0.50453237  0.36291729  1
  Mn  Mn6  1  0.00703626  0.95853632  0.01994057  1
  Mn  Mn7  1  0.79469117  0.95376095  0.62601042  1
  Mn  Mn8  1  0.21679809  0.04336863  0.40328131  1
  Mn  Mn9  1  0.47354391  0.50776940  0.96464468  1
  Sb  Sb10  1  0.88957910  0.88644393  0.45917761  1
  Sb  Sb11  1  0.11747996  0.96723067  0.54084642  1
  Sb  Sb12  1  0.03882016  0.50828274  0.83018714  1
  Sb  Sb13  1  0.96698510  0.46967285  0.20335357  1
  Sb  Sb14  1  0.40724707  0.57761929  0.46082028  1
  Sb  Sb15  1  0.60385580  0.55926667  0.53923365  1
  Sb  Sb16  1  0.53208205  0.93531117  0.80210247  1
  Sb  Sb17  1  0.46941585  0.97130020  0.18438546  1
  S  S18  1  0.93169246  0.00602215  0.79588389  1
  S  S19  1  0.05436597  0.99099401  0.19713291  1
  S  S20  1  0.41066956  0.99632782  0.97616855  1
  S  S21  1  0.58214004  0.99457485  0.00523404  1
  S  S22  1  0.17312530  0.94086764  0.89046027  1
  S  S23  1  0.83173351  0.03267983  0.11262056  1
  S  S24  1  0.11136700  0.50093113  0.64829614  1
  S  S25  1  0.89326950  0.40656413  0.35245244  1
  S  S26  1  0.73732301  0.97003112  0.31732430  1
  S  S27  1  0.26836135  0.94453672  0.68314074  1
  S  S28  1  0.17574781  0.49139587  0.45257709  1
  S  S29  1  0.81320261  0.51198058  0.54179629  1
  S  S30  1  0.43466853  0.45100573  0.79612686  1
  S  S31  1  0.56405335  0.48347076  0.19753318  1
  S  S32  1  0.91724135  0.50234374  0.99580480  1
  S  S33  1  0.08307015  0.45105774  0.03240493  1
  S  S34  1  0.67556165  0.58261269  0.90742676  1
  S  S35  1  0.33150960  0.41769731  0.10959652  1
  S  S36  1  0.59938416  0.02714769  0.65590257  1
  S  S37  1  0.40135221  0.02183716  0.34404749  1
  S  S38  1  0.24544969  0.54336113  0.33547483  1
  S  S39  1  0.75820089  0.51048605  0.69091060  1
  S  S40  1  0.66798537  0.94683339  0.45022381  1
  S  S41  1  0.33620051  0.89924589  0.55752395  1
