# generated using pymatgen
data_Pr2Mn3(SbS3)4
_symmetry_space_group_name_H-M   'P 1'
_cell_length_a   20.02960800
_cell_length_b   3.90410600
_cell_length_c   14.95364829
_cell_angle_alpha   90.00000000
_cell_angle_beta   126.33350609
_cell_angle_gamma   90.00000000
_symmetry_Int_Tables_number   1
_chemical_formula_structural   Pr2Mn3(SbS3)4
_chemical_formula_sum   'Pr4 Mn6 Sb8 S24'
_cell_volume   942.00006694
_cell_formula_units_Z   2
loop_
 _symmetry_equiv_pos_site_id
 _symmetry_equiv_pos_as_xyz
  1  'x, y, z'
loop_
 _atom_site_type_symbol
 _atom_site_label
 _atom_site_symmetry_multiplicity
 _atom_site_fract_x
 _atom_site_fract_y
 _atom_site_fract_z
 _atom_site_occupancy
  Pr  Pr0  1  0.27586185  0.49456125  0.88086491  1
  Pr  Pr1  1  0.73589164  0.50985391  0.14460669  1
  Pr  Pr2  1  0.76242574  0.06359730  0.87238695  1
  Pr  Pr3  1  0.23467628  0.90155710  0.12315145  1
  Mn  Mn4  1  0.30100562  0.41726319  0.60736293  1
  Mn  Mn5  1  0.69384105  0.50423169  0.36292368  1
  Mn  Mn6  1  0.00712263  0.95900354  0.02001190  1
  Mn  Mn7  1  0.79466049  0.95438811  0.62609614  1
  Mn  Mn8  1  0.21655250  0.04338328  0.40326734  1
  Mn  Mn9  1  0.47360066  0.50782755  0.96483540  1
  Sb  Sb10  1  0.88942781  0.88607535  0.45896070  1
  Sb  Sb11  1  0.11758375  0.96765514  0.54101157  1
  Sb  Sb12  1  0.03875350  0.50842582  0.82993413  1
  Sb  Sb13  1  0.96703127  0.46966131  0.20340059  1
  Sb  Sb14  1  0.40741893  0.57751115  0.46084590  1
  Sb  Sb15  1  0.60374039  0.55862198  0.53902438  1
  Sb  Sb16  1  0.53212193  0.93509007  0.80212695  1
  Sb  Sb17  1  0.46940498  0.97128975  0.18453818  1
  S  S18  1  0.93131861  0.00485537  0.79541381  1
  S  S19  1  0.05442390  0.98967159  0.19746976  1
  S  S20  1  0.41058078  0.99704901  0.97612341  1
  S  S21  1  0.58246136  0.99427616  0.00553347  1
  S  S22  1  0.17311681  0.94086414  0.89026354  1
  S  S23  1  0.83163994  0.03283279  0.11255429  1
  S  S24  1  0.11152150  0.50004872  0.64833737  1
  S  S25  1  0.89313971  0.40657845  0.35238866  1
  S  S26  1  0.73704625  0.97065791  0.31708061  1
  S  S27  1  0.26845480  0.94512344  0.68311961  1
  S  S28  1  0.17595719  0.49092693  0.45271098  1
  S  S29  1  0.81352740  0.51058066  0.54190022  1
  S  S30  1  0.43470099  0.44990995  0.79607548  1
  S  S31  1  0.56399512  0.48372290  0.19715494  1
  S  S32  1  0.91732175  0.50408919  0.99580151  1
  S  S33  1  0.08307374  0.45133703  0.03264710  1
  S  S34  1  0.67564448  0.58389489  0.90733160  1
  S  S35  1  0.33111131  0.41891921  0.10935935  1
  S  S36  1  0.59922078  0.02763840  0.65594516  1
  S  S37  1  0.40128723  0.02248998  0.34391209  1
  S  S38  1  0.24547404  0.54374964  0.33570468  1
  S  S39  1  0.75808579  0.51090301  0.69084540  1
  S  S40  1  0.66768725  0.94831391  0.45009734  1
  S  S41  1  0.33612837  0.90108482  0.55750120  1
