# generated using pymatgen
data_Pr2Mn3(SbS3)4
_symmetry_space_group_name_H-M   'P 1'
_cell_length_a   20.02960800
_cell_length_b   3.90410600
_cell_length_c   14.95364829
_cell_angle_alpha   90.00000000
_cell_angle_beta   126.33350609
_cell_angle_gamma   90.00000000
_symmetry_Int_Tables_number   1
_chemical_formula_structural   Pr2Mn3(SbS3)4
_chemical_formula_sum   'Pr4 Mn6 Sb8 S24'
_cell_volume   942.00006694
_cell_formula_units_Z   2
loop_
 _symmetry_equiv_pos_site_id
 _symmetry_equiv_pos_as_xyz
  1  'x, y, z'
loop_
 _atom_site_type_symbol
 _atom_site_label
 _atom_site_symmetry_multiplicity
 _atom_site_fract_x
 _atom_site_fract_y
 _atom_site_fract_z
 _atom_site_occupancy
  Pr  Pr0  1  0.27582445  0.49484746  0.88086164  1
  Pr  Pr1  1  0.73585563  0.51026855  0.14447014  1
  Pr  Pr2  1  0.76243993  0.06375251  0.87248450  1
  Pr  Pr3  1  0.23477207  0.90160179  0.12321764  1
  Mn  Mn4  1  0.30112225  0.41807054  0.60731020  1
  Mn  Mn5  1  0.69387555  0.50335029  0.36289561  1
  Mn  Mn6  1  0.00720171  0.95961444  0.02003876  1
  Mn  Mn7  1  0.79456686  0.95489349  0.62611562  1
  Mn  Mn8  1  0.21637267  0.04376530  0.40321843  1
  Mn  Mn9  1  0.47370117  0.50822209  0.96505998  1
  Sb  Sb10  1  0.88932651  0.88598274  0.45883506  1
  Sb  Sb11  1  0.11768791  0.96794153  0.54117913  1
  Sb  Sb12  1  0.03868367  0.50847263  0.82963461  1
  Sb  Sb13  1  0.96707402  0.46995443  0.20350207  1
  Sb  Sb14  1  0.40755151  0.57737762  0.46086804  1
  Sb  Sb15  1  0.60362157  0.55796352  0.53881327  1
  Sb  Sb16  1  0.53221180  0.93483363  0.80214245  1
  Sb  Sb17  1  0.46936833  0.97141208  0.18467797  1
  S  S18  1  0.93098953  0.00359565  0.79490277  1
  S  S19  1  0.05458046  0.98896051  0.19786121  1
  S  S20  1  0.41056559  0.99719393  0.97609096  1
  S  S21  1  0.58276312  0.99429363  0.00580425  1
  S  S22  1  0.17301581  0.94042592  0.88994962  1
  S  S23  1  0.83162826  0.03321155  0.11258317  1
  S  S24  1  0.11155316  0.49950345  0.64833819  1
  S  S25  1  0.89295978  0.40685431  0.35228610  1
  S  S26  1  0.73680107  0.97109384  0.31697042  1
  S  S27  1  0.26852589  0.94556339  0.68303249  1
  S  S28  1  0.17610373  0.49034955  0.45291803  1
  S  S29  1  0.81381966  0.50906621  0.54199206  1
  S  S30  1  0.43461115  0.44849511  0.79592599  1
  S  S31  1  0.56401131  0.48356084  0.19678483  1
  S  S32  1  0.91736627  0.50616014  0.99577107  1
  S  S33  1  0.08302955  0.45207675  0.03278647  1
  S  S34  1  0.67578560  0.58524779  0.90737761  1
  S  S35  1  0.33067729  0.42048206  0.10907958  1
  S  S36  1  0.59904054  0.02816195  0.65593777  1
  S  S37  1  0.40123444  0.02290522  0.34371383  1
  S  S38  1  0.24552342  0.54398026  0.33595098  1
  S  S39  1  0.75809188  0.51126250  0.69083559  1
  S  S40  1  0.66749767  0.94972564  0.45007709  1
  S  S41  1  0.33607165  0.90258146  0.55750167  1
