# generated using pymatgen
data_Pr2Mn3(SbS3)4
_symmetry_space_group_name_H-M   'P 1'
_cell_length_a   20.02960800
_cell_length_b   3.90410600
_cell_length_c   14.95364829
_cell_angle_alpha   90.00000000
_cell_angle_beta   126.33350609
_cell_angle_gamma   90.00000000
_symmetry_Int_Tables_number   1
_chemical_formula_structural   Pr2Mn3(SbS3)4
_chemical_formula_sum   'Pr4 Mn6 Sb8 S24'
_cell_volume   942.00006694
_cell_formula_units_Z   2
loop_
 _symmetry_equiv_pos_site_id
 _symmetry_equiv_pos_as_xyz
  1  'x, y, z'
loop_
 _atom_site_type_symbol
 _atom_site_label
 _atom_site_symmetry_multiplicity
 _atom_site_fract_x
 _atom_site_fract_y
 _atom_site_fract_z
 _atom_site_occupancy
  Pr  Pr0  1  0.27581426  0.49532908  0.88096124  1
  Pr  Pr1  1  0.73582563  0.51018209  0.14434004  1
  Pr  Pr2  1  0.76244357  0.06391058  0.87261244  1
  Pr  Pr3  1  0.23483296  0.90152053  0.12329592  1
  Mn  Mn4  1  0.30121036  0.41855093  0.60720827  1
  Mn  Mn5  1  0.69391224  0.50240361  0.36280507  1
  Mn  Mn6  1  0.00718577  0.96045976  0.01992183  1
  Mn  Mn7  1  0.79444919  0.95485205  0.62606887  1
  Mn  Mn8  1  0.21622531  0.04402958  0.40314960  1
  Mn  Mn9  1  0.47387263  0.50861051  0.96517673  1
  Sb  Sb10  1  0.88925160  0.88573608  0.45874433  1
  Sb  Sb11  1  0.11786080  0.96848411  0.54144738  1
  Sb  Sb12  1  0.03858332  0.50892006  0.82930812  1
  Sb  Sb13  1  0.96707332  0.47044399  0.20355714  1
  Sb  Sb14  1  0.40765257  0.57725599  0.46081324  1
  Sb  Sb15  1  0.60356668  0.55741645  0.53858027  1
  Sb  Sb16  1  0.53229070  0.93459468  0.80216749  1
  Sb  Sb17  1  0.46933739  0.97163342  0.18483937  1
  S  S18  1  0.93077577  0.00264075  0.79439995  1
  S  S19  1  0.05478941  0.98787636  0.19823555  1
  S  S20  1  0.41067708  0.99738959  0.97620238  1
  S  S21  1  0.58294771  0.99444789  0.00601416  1
  S  S22  1  0.17299137  0.94030919  0.88960385  1
  S  S23  1  0.83178241  0.03337235  0.11268993  1
  S  S24  1  0.11169343  0.49914701  0.64855616  1
  S  S25  1  0.89281261  0.40694202  0.35224087  1
  S  S26  1  0.73664457  0.97138795  0.31684180  1
  S  S27  1  0.26852709  0.94575024  0.68291712  1
  S  S28  1  0.17619128  0.48978117  0.45306282  1
  S  S29  1  0.81408711  0.50796329  0.54204395  1
  S  S30  1  0.43459583  0.44753420  0.79580048  1
  S  S31  1  0.56415045  0.48320719  0.19645536  1
  S  S32  1  0.91742593  0.50825013  0.99576026  1
  S  S33  1  0.08301460  0.45325535  0.03296335  1
  S  S34  1  0.67583861  0.58650342  0.90736897  1
  S  S35  1  0.33019055  0.42202990  0.10873147  1
  S  S36  1  0.59881309  0.02842963  0.65580659  1
  S  S37  1  0.40120969  0.02322767  0.34357400  1
  S  S38  1  0.24559454  0.54406152  0.33605593  1
  S  S39  1  0.75802426  0.51153247  0.69071106  1
  S  S40  1  0.66732323  0.95076419  0.45002866  1
  S  S41  1  0.33589367  0.90343194  0.55740138  1
