# generated using pymatgen
data_Pr2Mn3(SbS3)4
_symmetry_space_group_name_H-M   'P 1'
_cell_length_a   20.02960800
_cell_length_b   3.90410600
_cell_length_c   14.95364829
_cell_angle_alpha   90.00000000
_cell_angle_beta   126.33350609
_cell_angle_gamma   90.00000000
_symmetry_Int_Tables_number   1
_chemical_formula_structural   Pr2Mn3(SbS3)4
_chemical_formula_sum   'Pr4 Mn6 Sb8 S24'
_cell_volume   942.00006694
_cell_formula_units_Z   2
loop_
 _symmetry_equiv_pos_site_id
 _symmetry_equiv_pos_as_xyz
  1  'x, y, z'
loop_
 _atom_site_type_symbol
 _atom_site_label
 _atom_site_symmetry_multiplicity
 _atom_site_fract_x
 _atom_site_fract_y
 _atom_site_fract_z
 _atom_site_occupancy
  Pr  Pr0  1  0.27586825  0.49574640  0.88119498  1
  Pr  Pr1  1  0.73575165  0.51019186  0.14412216  1
  Pr  Pr2  1  0.76242141  0.06414459  0.87274261  1
  Pr  Pr3  1  0.23484675  0.90147125  0.12336862  1
  Mn  Mn4  1  0.30131370  0.41900290  0.60698030  1
  Mn  Mn5  1  0.69393247  0.50138338  0.36265021  1
  Mn  Mn6  1  0.00715635  0.96136609  0.01981954  1
  Mn  Mn7  1  0.79429359  0.95492016  0.62599165  1
  Mn  Mn8  1  0.21604816  0.04445579  0.40308776  1
  Mn  Mn9  1  0.47401045  0.50937525  0.96532195  1
  Sb  Sb10  1  0.88914408  0.88558824  0.45867707  1
  Sb  Sb11  1  0.11804212  0.96909296  0.54169612  1
  Sb  Sb12  1  0.03851818  0.50931101  0.82902503  1
  Sb  Sb13  1  0.96711623  0.47109532  0.20364697  1
  Sb  Sb14  1  0.40772898  0.57708328  0.46068980  1
  Sb  Sb15  1  0.60350484  0.55689429  0.53827912  1
  Sb  Sb16  1  0.53237204  0.93419432  0.80216540  1
  Sb  Sb17  1  0.46929450  0.97217874  0.18497448  1
  S  S18  1  0.93066924  0.00213716  0.79406912  1
  S  S19  1  0.05497964  0.98639218  0.19867372  1
  S  S20  1  0.41083322  0.99781397  0.97649754  1
  S  S21  1  0.58309676  0.99438461  0.00612042  1
  S  S22  1  0.17303259  0.94027360  0.88934757  1
  S  S23  1  0.83190598  0.03322771  0.11267704  1
  S  S24  1  0.11182482  0.49880345  0.64870728  1
  S  S25  1  0.89278086  0.40737105  0.35217855  1
  S  S26  1  0.73648206  0.97227046  0.31676327  1
  S  S27  1  0.26858405  0.94592760  0.68284754  1
  S  S28  1  0.17632967  0.48938861  0.45326960  1
  S  S29  1  0.81424381  0.50656714  0.54196583  1
  S  S30  1  0.43453557  0.44651447  0.79567769  1
  S  S31  1  0.56422583  0.48334214  0.19613995  1
  S  S32  1  0.91741476  0.51017171  0.99563916  1
  S  S33  1  0.08295166  0.45425293  0.03302132  1
  S  S34  1  0.67605376  0.58764490  0.90747358  1
  S  S35  1  0.32992783  0.42337662  0.10855726  1
  S  S36  1  0.59859273  0.02805873  0.65558036  1
  S  S37  1  0.40117835  0.02417398  0.34332916  1
  S  S38  1  0.24563221  0.54441483  0.33607161  1
  S  S39  1  0.75812167  0.51173692  0.69080096  1
  S  S40  1  0.66719561  0.95183439  0.44998291  1
  S  S41  1  0.33571053  0.90469902  0.55735224  1
