# generated using pymatgen
data_Pr2Mn3(SbS3)4
_symmetry_space_group_name_H-M   'P 1'
_cell_length_a   20.02960800
_cell_length_b   3.90410600
_cell_length_c   14.95364829
_cell_angle_alpha   90.00000000
_cell_angle_beta   126.33350609
_cell_angle_gamma   90.00000000
_symmetry_Int_Tables_number   1
_chemical_formula_structural   Pr2Mn3(SbS3)4
_chemical_formula_sum   'Pr4 Mn6 Sb8 S24'
_cell_volume   942.00006694
_cell_formula_units_Z   2
loop_
 _symmetry_equiv_pos_site_id
 _symmetry_equiv_pos_as_xyz
  1  'x, y, z'
loop_
 _atom_site_type_symbol
 _atom_site_label
 _atom_site_symmetry_multiplicity
 _atom_site_fract_x
 _atom_site_fract_y
 _atom_site_fract_z
 _atom_site_occupancy
  Pr  Pr0  1  0.27597960  0.49601550  0.88151738  1
  Pr  Pr1  1  0.73573251  0.51026867  0.14393264  1
  Pr  Pr2  1  0.76244511  0.06432309  0.87290062  1
  Pr  Pr3  1  0.23486053  0.90146450  0.12340949  1
  Mn  Mn4  1  0.30136462  0.41934802  0.60680796  1
  Mn  Mn5  1  0.69392546  0.50045872  0.36262040  1
  Mn  Mn6  1  0.00708903  0.96204491  0.01975209  1
  Mn  Mn7  1  0.79414352  0.95484745  0.62596522  1
  Mn  Mn8  1  0.21581060  0.04519348  0.40295057  1
  Mn  Mn9  1  0.47414032  0.51033986  0.96546798  1
  Sb  Sb10  1  0.88897987  0.88534537  0.45850326  1
  Sb  Sb11  1  0.11827636  0.96972254  0.54191069  1
  Sb  Sb12  1  0.03843877  0.50972827  0.82876481  1
  Sb  Sb13  1  0.96718386  0.47159046  0.20377177  1
  Sb  Sb14  1  0.40780251  0.57701165  0.46060159  1
  Sb  Sb15  1  0.60341793  0.55629746  0.53799242  1
  Sb  Sb16  1  0.53239263  0.93371648  0.80219700  1
  Sb  Sb17  1  0.46917657  0.97262812  0.18498897  1
  S  S18  1  0.93059778  0.00173852  0.79366148  1
  S  S19  1  0.05522254  0.98539153  0.19911229  1
  S  S20  1  0.41108885  0.99812224  0.97686429  1
  S  S21  1  0.58315353  0.99508653  0.00620143  1
  S  S22  1  0.17308716  0.94013341  0.88910868  1
  S  S23  1  0.83198364  0.03329534  0.11265706  1
  S  S24  1  0.11190499  0.49903516  0.64869033  1
  S  S25  1  0.89278527  0.40745605  0.35210238  1
  S  S26  1  0.73636434  0.97299267  0.31654391  1
  S  S27  1  0.26860282  0.94625751  0.68263938  1
  S  S28  1  0.17623851  0.48916104  0.45342329  1
  S  S29  1  0.81436033  0.50497417  0.54183922  1
  S  S30  1  0.43453726  0.44551322  0.79571713  1
  S  S31  1  0.56428365  0.48318627  0.19585744  1
  S  S32  1  0.91744713  0.51188825  0.99548923  1
  S  S33  1  0.08286369  0.45485970  0.03295864  1
  S  S34  1  0.67626097  0.58861351  0.90747786  1
  S  S35  1  0.32972604  0.42501929  0.10841627  1
  S  S36  1  0.59849045  0.02772381  0.65559307  1
  S  S37  1  0.40126961  0.02490211  0.34320816  1
  S  S38  1  0.24551583  0.54440835  0.33593128  1
  S  S39  1  0.75827830  0.51192089  0.69106276  1
  S  S40  1  0.66701190  0.95227598  0.44979163  1
  S  S41  1  0.33552313  0.90609856  0.55721952  1
