# generated using pymatgen
data_Pr2Mn3(SbS3)4
_symmetry_space_group_name_H-M   'P 1'
_cell_length_a   20.02960800
_cell_length_b   3.90410600
_cell_length_c   14.95364829
_cell_angle_alpha   90.00000000
_cell_angle_beta   126.33350609
_cell_angle_gamma   90.00000000
_symmetry_Int_Tables_number   1
_chemical_formula_structural   Pr2Mn3(SbS3)4
_chemical_formula_sum   'Pr4 Mn6 Sb8 S24'
_cell_volume   942.00006694
_cell_formula_units_Z   2
loop_
 _symmetry_equiv_pos_site_id
 _symmetry_equiv_pos_as_xyz
  1  'x, y, z'
loop_
 _atom_site_type_symbol
 _atom_site_label
 _atom_site_symmetry_multiplicity
 _atom_site_fract_x
 _atom_site_fract_y
 _atom_site_fract_z
 _atom_site_occupancy
  Pr  Pr0  1  0.27612128  0.49615041  0.88186845  1
  Pr  Pr1  1  0.73572516  0.51035867  0.14373610  1
  Pr  Pr2  1  0.76246627  0.06430119  0.87309952  1
  Pr  Pr3  1  0.23483050  0.90142873  0.12340123  1
  Mn  Mn4  1  0.30141997  0.41902055  0.60665524  1
  Mn  Mn5  1  0.69387583  0.49977349  0.36252111  1
  Mn  Mn6  1  0.00703759  0.96297143  0.01960482  1
  Mn  Mn7  1  0.79402175  0.95542765  0.62594038  1
  Mn  Mn8  1  0.21561983  0.04557074  0.40284842  1
  Mn  Mn9  1  0.47427425  0.51102111  0.96558707  1
  Sb  Sb10  1  0.88884032  0.88506018  0.45838040  1
  Sb  Sb11  1  0.11842922  0.97017295  0.54206604  1
  Sb  Sb12  1  0.03831433  0.50993522  0.82844084  1
  Sb  Sb13  1  0.96719763  0.47227404  0.20384360  1
  Sb  Sb14  1  0.40792635  0.57728245  0.46056330  1
  Sb  Sb15  1  0.60338691  0.55585864  0.53764377  1
  Sb  Sb16  1  0.53238775  0.93311909  0.80215861  1
  Sb  Sb17  1  0.46903514  0.97296148  0.18494332  1
  S  S18  1  0.93046900  0.00100868  0.79337590  1
  S  S19  1  0.05564863  0.98423944  0.19963718  1
  S  S20  1  0.41140625  0.99887546  0.97718833  1
  S  S21  1  0.58333686  0.99513575  0.00623453  1
  S  S22  1  0.17317426  0.93990730  0.88902501  1
  S  S23  1  0.83197182  0.03359223  0.11272396  1
  S  S24  1  0.11193963  0.49958917  0.64862823  1
  S  S25  1  0.89271274  0.40807228  0.35209118  1
  S  S26  1  0.73630134  0.97381298  0.31629230  1
  S  S27  1  0.26864493  0.94591213  0.68263925  1
  S  S28  1  0.17612549  0.48909935  0.45355571  1
  S  S29  1  0.81452087  0.50325978  0.54163473  1
  S  S30  1  0.43455115  0.44460203  0.79571597  1
  S  S31  1  0.56420736  0.48283462  0.19546000  1
  S  S32  1  0.91754352  0.51332521  0.99547992  1
  S  S33  1  0.08282892  0.45504659  0.03277180  1
  S  S34  1  0.67653742  0.58915974  0.90749772  1
  S  S35  1  0.32953240  0.42626584  0.10825827  1
  S  S36  1  0.59834541  0.02730187  0.65555547  1
  S  S37  1  0.40148079  0.02593392  0.34324340  1
  S  S38  1  0.24535612  0.54413599  0.33575569  1
  S  S39  1  0.75856555  0.51270997  0.69138105  1
  S  S40  1  0.66688541  0.95308545  0.44963803  1
  S  S41  1  0.33538302  0.90740274  0.55716048  1
