# generated using pymatgen
data_Pr2Mn3(SbS3)4
_symmetry_space_group_name_H-M   'P 1'
_cell_length_a   20.02960800
_cell_length_b   3.90410600
_cell_length_c   14.95364829
_cell_angle_alpha   90.00000000
_cell_angle_beta   126.33350609
_cell_angle_gamma   90.00000000
_symmetry_Int_Tables_number   1
_chemical_formula_structural   Pr2Mn3(SbS3)4
_chemical_formula_sum   'Pr4 Mn6 Sb8 S24'
_cell_volume   942.00006694
_cell_formula_units_Z   2
loop_
 _symmetry_equiv_pos_site_id
 _symmetry_equiv_pos_as_xyz
  1  'x, y, z'
loop_
 _atom_site_type_symbol
 _atom_site_label
 _atom_site_symmetry_multiplicity
 _atom_site_fract_x
 _atom_site_fract_y
 _atom_site_fract_z
 _atom_site_occupancy
  Pr  Pr0  1  0.27621756  0.49624232  0.88212337  1
  Pr  Pr1  1  0.73566077  0.51040574  0.14352183  1
  Pr  Pr2  1  0.76247217  0.06429205  0.87326591  1
  Pr  Pr3  1  0.23480908  0.90135552  0.12336047  1
  Mn  Mn4  1  0.30154448  0.41847201  0.60657773  1
  Mn  Mn5  1  0.69384512  0.49889713  0.36246489  1
  Mn  Mn6  1  0.00702395  0.96371949  0.01949482  1
  Mn  Mn7  1  0.79394272  0.95587828  0.62581153  1
  Mn  Mn8  1  0.21541214  0.04601373  0.40275496  1
  Mn  Mn9  1  0.47431314  0.51185764  0.96569690  1
  Sb  Sb10  1  0.88870846  0.88477387  0.45830461  1
  Sb  Sb11  1  0.11855764  0.97046663  0.54211151  1
  Sb  Sb12  1  0.03819906  0.50997826  0.82815161  1
  Sb  Sb13  1  0.96715895  0.47260005  0.20389999  1
  Sb  Sb14  1  0.40806571  0.57739296  0.46057384  1
  Sb  Sb15  1  0.60334456  0.55575758  0.53725945  1
  Sb  Sb16  1  0.53231892  0.93275938  0.80203639  1
  Sb  Sb17  1  0.46892928  0.97302688  0.18490168  1
  S  S18  1  0.93032742  0.00021667  0.79321452  1
  S  S19  1  0.05611727  0.98297056  0.20002676  1
  S  S20  1  0.41154191  0.99982143  0.97734849  1
  S  S21  1  0.58345294  0.99536307  0.00623236  1
  S  S22  1  0.17310541  0.94001630  0.88904973  1
  S  S23  1  0.83186410  0.03401181  0.11285430  1
  S  S24  1  0.11201899  0.49987522  0.64843976  1
  S  S25  1  0.89256211  0.40864222  0.35200521  1
  S  S26  1  0.73620644  0.97498037  0.31614869  1
  S  S27  1  0.26863396  0.94564710  0.68260013  1
  S  S28  1  0.17623663  0.48914751  0.45365388  1
  S  S29  1  0.81473227  0.50165216  0.54157546  1
  S  S30  1  0.43441447  0.44442174  0.79561772  1
  S  S31  1  0.56403079  0.48289945  0.19500519  1
  S  S32  1  0.91769203  0.51467960  0.99552351  1
  S  S33  1  0.08279702  0.45545670  0.03261780  1
  S  S34  1  0.67692173  0.58936316  0.90777374  1
  S  S35  1  0.32937549  0.42745065  0.10813493  1
  S  S36  1  0.59821281  0.02758043  0.65561630  1
  S  S37  1  0.40179533  0.02690609  0.34338353  1
  S  S38  1  0.24531259  0.54398923  0.33571965  1
  S  S39  1  0.75868897  0.51339987  0.69159325  1
  S  S40  1  0.66663680  0.95353606  0.44920600  1
  S  S41  1  0.33531031  0.90862588  0.55721578  1
