# generated using pymatgen
data_Pr2Mn3(SbS3)4
_symmetry_space_group_name_H-M   'P 1'
_cell_length_a   20.02960800
_cell_length_b   3.90410600
_cell_length_c   14.95364829
_cell_angle_alpha   90.00000000
_cell_angle_beta   126.33350609
_cell_angle_gamma   90.00000000
_symmetry_Int_Tables_number   1
_chemical_formula_structural   Pr2Mn3(SbS3)4
_chemical_formula_sum   'Pr4 Mn6 Sb8 S24'
_cell_volume   942.00006694
_cell_formula_units_Z   2
loop_
 _symmetry_equiv_pos_site_id
 _symmetry_equiv_pos_as_xyz
  1  'x, y, z'
loop_
 _atom_site_type_symbol
 _atom_site_label
 _atom_site_symmetry_multiplicity
 _atom_site_fract_x
 _atom_site_fract_y
 _atom_site_fract_z
 _atom_site_occupancy
  Pr  Pr0  1  0.27632364  0.49626908  0.88238226  1
  Pr  Pr1  1  0.73561623  0.51059069  0.14338179  1
  Pr  Pr2  1  0.76252652  0.06416298  0.87346325  1
  Pr  Pr3  1  0.23478389  0.90163740  0.12335113  1
  Mn  Mn4  1  0.30172076  0.41812783  0.60653732  1
  Mn  Mn5  1  0.69369339  0.49799764  0.36229033  1
  Mn  Mn6  1  0.00709207  0.96428907  0.01952285  1
  Mn  Mn7  1  0.79388426  0.95604613  0.62574259  1
  Mn  Mn8  1  0.21534225  0.04647587  0.40275031  1
  Mn  Mn9  1  0.47438667  0.51291869  0.96586934  1
  Sb  Sb10  1  0.88856118  0.88449797  0.45821461  1
  Sb  Sb11  1  0.11862427  0.97065429  0.54214109  1
  Sb  Sb12  1  0.03805843  0.50989184  0.82782544  1
  Sb  Sb13  1  0.96707860  0.47283783  0.20396140  1
  Sb  Sb14  1  0.40824432  0.57780907  0.46053622  1
  Sb  Sb15  1  0.60332797  0.55547327  0.53696416  1
  Sb  Sb16  1  0.53230569  0.93231471  0.80198356  1
  Sb  Sb17  1  0.46884596  0.97315375  0.18486966  1
  S  S18  1  0.93024702  0.99953025  0.79299324  1
  S  S19  1  0.05659318  0.98149673  0.20044109  1
  S  S20  1  0.41166361  0.00029425  0.97749221  1
  S  S21  1  0.58350531  0.99535863  0.00616679  1
  S  S22  1  0.17296187  0.94038497  0.88902553  1
  S  S23  1  0.83171009  0.03384872  0.11289910  1
  S  S24  1  0.11214437  0.50011679  0.64843072  1
  S  S25  1  0.89251890  0.40959664  0.35197249  1
  S  S26  1  0.73602371  0.97624078  0.31594543  1
  S  S27  1  0.26871988  0.94539464  0.68257370  1
  S  S28  1  0.17626162  0.48955672  0.45364794  1
  S  S29  1  0.81475683  0.50073116  0.54145446  1
  S  S30  1  0.43437237  0.44440168  0.79558395  1
  S  S31  1  0.56379803  0.48338663  0.19440319  1
  S  S32  1  0.91773477  0.51590773  0.99554781  1
  S  S33  1  0.08279225  0.45560537  0.03251126  1
  S  S34  1  0.67729760  0.58972280  0.90798958  1
  S  S35  1  0.32930822  0.42823475  0.10809882  1
  S  S36  1  0.59808236  0.02828911  0.65559009  1
  S  S37  1  0.40221518  0.02751851  0.34371624  1
  S  S38  1  0.24524885  0.54325355  0.33574360  1
  S  S39  1  0.75888765  0.51386218  0.69181412  1
  S  S40  1  0.66653004  0.95377203  0.44897293  1
  S  S41  1  0.33537517  0.90943702  0.55746443  1
