# generated using pymatgen
data_Pr2Mn3(SbS3)4
_symmetry_space_group_name_H-M   'P 1'
_cell_length_a   20.02960800
_cell_length_b   3.90410600
_cell_length_c   14.95364829
_cell_angle_alpha   90.00000000
_cell_angle_beta   126.33350609
_cell_angle_gamma   90.00000000
_symmetry_Int_Tables_number   1
_chemical_formula_structural   Pr2Mn3(SbS3)4
_chemical_formula_sum   'Pr4 Mn6 Sb8 S24'
_cell_volume   942.00006694
_cell_formula_units_Z   2
loop_
 _symmetry_equiv_pos_site_id
 _symmetry_equiv_pos_as_xyz
  1  'x, y, z'
loop_
 _atom_site_type_symbol
 _atom_site_label
 _atom_site_symmetry_multiplicity
 _atom_site_fract_x
 _atom_site_fract_y
 _atom_site_fract_z
 _atom_site_occupancy
  Pr  Pr0  1  0.27641414  0.49618450  0.88255927  1
  Pr  Pr1  1  0.73557855  0.51096824  0.14333746  1
  Pr  Pr2  1  0.76256772  0.06416722  0.87361870  1
  Pr  Pr3  1  0.23477174  0.90176953  0.12329304  1
  Mn  Mn4  1  0.30188358  0.41833362  0.60650027  1
  Mn  Mn5  1  0.69346144  0.49699158  0.36201456  1
  Mn  Mn6  1  0.00713501  0.96503350  0.01958074  1
  Mn  Mn7  1  0.79388564  0.95595676  0.62574679  1
  Mn  Mn8  1  0.21522142  0.04702725  0.40261920  1
  Mn  Mn9  1  0.47443648  0.51389521  0.96611143  1
  Sb  Sb10  1  0.88844831  0.88428734  0.45825384  1
  Sb  Sb11  1  0.11868021  0.97055203  0.54213746  1
  Sb  Sb12  1  0.03787988  0.50965539  0.82751155  1
  Sb  Sb13  1  0.96700122  0.47324747  0.20401073  1
  Sb  Sb14  1  0.40842690  0.57821965  0.46051550  1
  Sb  Sb15  1  0.60327675  0.55543782  0.53664503  1
  Sb  Sb16  1  0.53229848  0.93178111  0.80193484  1
  Sb  Sb17  1  0.46879392  0.97314062  0.18486875  1
  S  S18  1  0.93012023  0.99900486  0.79284060  1
  S  S19  1  0.05703402  0.98047204  0.20092858  1
  S  S20  1  0.41175627  0.00077504  0.97753533  1
  S  S21  1  0.58351985  0.99517580  0.00608842  1
  S  S22  1  0.17288219  0.94111646  0.88899877  1
  S  S23  1  0.83147697  0.03332421  0.11290682  1
  S  S24  1  0.11217817  0.50021762  0.64844261  1
  S  S25  1  0.89259647  0.41085697  0.35211299  1
  S  S26  1  0.73582201  0.97761024  0.31578448  1
  S  S27  1  0.26876927  0.94533364  0.68261009  1
  S  S28  1  0.17623558  0.49029253  0.45378601  1
  S  S29  1  0.81468107  0.49931035  0.54126134  1
  S  S30  1  0.43434898  0.44429879  0.79549062  1
  S  S31  1  0.56371350  0.48392629  0.19381271  1
  S  S32  1  0.91772172  0.51633047  0.99551025  1
  S  S33  1  0.08283395  0.45569502  0.03248887  1
  S  S34  1  0.67763697  0.59020204  0.90823055  1
  S  S35  1  0.32928409  0.42833633  0.10809122  1
  S  S36  1  0.59800596  0.02908261  0.65586145  1
  S  S37  1  0.40261307  0.02805066  0.34389912  1
  S  S38  1  0.24521800  0.54218607  0.33583971  1
  S  S39  1  0.75906617  0.51399371  0.69207320  1
  S  S40  1  0.66645996  0.95458690  0.44885631  1
  S  S41  1  0.33548581  0.91024614  0.55763545  1
