# generated using pymatgen
data_Pr2Mn3(SbS3)4
_symmetry_space_group_name_H-M   'P 1'
_cell_length_a   20.02960800
_cell_length_b   3.90410600
_cell_length_c   14.95364829
_cell_angle_alpha   90.00000000
_cell_angle_beta   126.33350609
_cell_angle_gamma   90.00000000
_symmetry_Int_Tables_number   1
_chemical_formula_structural   Pr2Mn3(SbS3)4
_chemical_formula_sum   'Pr4 Mn6 Sb8 S24'
_cell_volume   942.00006694
_cell_formula_units_Z   2
loop_
 _symmetry_equiv_pos_site_id
 _symmetry_equiv_pos_as_xyz
  1  'x, y, z'
loop_
 _atom_site_type_symbol
 _atom_site_label
 _atom_site_symmetry_multiplicity
 _atom_site_fract_x
 _atom_site_fract_y
 _atom_site_fract_z
 _atom_site_occupancy
  Pr  Pr0  1  0.26448974  0.47257408  0.86917013  1
  Pr  Pr1  1  0.73785880  0.51914659  0.13745956  1
  Pr  Pr2  1  0.76414921  0.01358452  0.86476164  1
  Pr  Pr3  1  0.23660318  0.00464016  0.13863166  1
  Mn  Mn4  1  0.29241736  0.48717072  0.60268044  1
  Mn  Mn5  1  0.69413808  0.52564000  0.38038740  1
  Mn  Mn6  1  0.00626506  0.99434001  0.00587818  1
  Mn  Mn7  1  0.80240348  0.00160446  0.61424714  1
  Mn  Mn8  1  0.19484520  0.97041718  0.37741750  1
  Mn  Mn9  1  0.50033306  0.46228441  0.99138303  1
  Sb  Sb10  1  0.89001549  0.99567470  0.45264941  1
  Sb  Sb11  1  0.11180898  0.96374082  0.55150087  1
  Sb  Sb12  1  0.03980884  0.51483322  0.81803689  1
  Sb  Sb13  1  0.96286289  0.51383749  0.18584897  1
  Sb  Sb14  1  0.39772123  0.50373413  0.45698489  1
  Sb  Sb15  1  0.60637944  0.48490312  0.54685977  1
  Sb  Sb16  1  0.53377553  0.01046848  0.81155007  1
  Sb  Sb17  1  0.46184135  0.00995117  0.18269157  1
  S  S18  1  0.93667409  0.98194384  0.80528346  1
  S  S19  1  0.06542849  0.97416457  0.18569446  1
  S  S20  1  0.41097375  0.01289516  0.97940429  1
  S  S21  1  0.59221132  0.99832793  0.02547775  1
  S  S22  1  0.17263301  0.98770143  0.89401335  1
  S  S23  1  0.82513282  0.01849699  0.09540191  1
  S  S24  1  0.08688280  0.46908571  0.64508009  1
  S  S25  1  0.91040757  0.47654515  0.35656324  1
  S  S26  1  0.73993570  0.95898491  0.29726191  1
  S  S27  1  0.25853546  0.99518245  0.70496765  1
  S  S28  1  0.17153464  0.48762646  0.44573998  1
  S  S29  1  0.82834439  0.49135939  0.55005612  1
  S  S30  1  0.43292151  0.49947816  0.79712976  1
  S  S31  1  0.56135713  0.51346516  0.18396611  1
  S  S32  1  0.91380331  0.50336679  0.99481798  1
  S  S33  1  0.08231383  0.49869952  0.01393817  1
  S  S34  1  0.66555561  0.48454060  0.88748627  1
  S  S35  1  0.32650234  0.51235215  0.09176795  1
  S  S36  1  0.59371961  0.00330460  0.65767033  1
  S  S37  1  0.40673530  0.97279823  0.34599208  1
  S  S38  1  0.24533721  0.45751218  0.31015781  1
  S  S39  1  0.76179109  0.50315888  0.70080546  1
  S  S40  1  0.67579846  0.02192244  0.46044796  1
  S  S41  1  0.32726540  0.98261390  0.54332945  1
