# generated using pymatgen
data_Pr2Mn3(SbS3)4
_symmetry_space_group_name_H-M   'P 1'
_cell_length_a   20.02960800
_cell_length_b   3.90410600
_cell_length_c   14.95364829
_cell_angle_alpha   90.00000000
_cell_angle_beta   126.33350609
_cell_angle_gamma   90.00000000
_symmetry_Int_Tables_number   1
_chemical_formula_structural   Pr2Mn3(SbS3)4
_chemical_formula_sum   'Pr4 Mn6 Sb8 S24'
_cell_volume   942.00006694
_cell_formula_units_Z   2
loop_
 _symmetry_equiv_pos_site_id
 _symmetry_equiv_pos_as_xyz
  1  'x, y, z'
loop_
 _atom_site_type_symbol
 _atom_site_label
 _atom_site_symmetry_multiplicity
 _atom_site_fract_x
 _atom_site_fract_y
 _atom_site_fract_z
 _atom_site_occupancy
  Pr  Pr0  1  0.27645282  0.49614694  0.88273248  1
  Pr  Pr1  1  0.73556371  0.51149148  0.14324860  1
  Pr  Pr2  1  0.76257008  0.06427010  0.87374243  1
  Pr  Pr3  1  0.23477253  0.90169181  0.12316423  1
  Mn  Mn4  1  0.30214178  0.41827738  0.60660338  1
  Mn  Mn5  1  0.69331707  0.49648427  0.36182207  1
  Mn  Mn6  1  0.00708002  0.96613821  0.01959927  1
  Mn  Mn7  1  0.79389497  0.95586226  0.62569326  1
  Mn  Mn8  1  0.21502496  0.04756685  0.40241709  1
  Mn  Mn9  1  0.47442474  0.51451790  0.96629182  1
  Sb  Sb10  1  0.88840261  0.88386518  0.45832391  1
  Sb  Sb11  1  0.11869268  0.97062128  0.54214352  1
  Sb  Sb12  1  0.03775115  0.50946123  0.82724252  1
  Sb  Sb13  1  0.96696540  0.47356206  0.20409773  1
  Sb  Sb14  1  0.40863573  0.57864240  0.46053267  1
  Sb  Sb15  1  0.60318892  0.55559926  0.53628036  1
  Sb  Sb16  1  0.53228184  0.93135941  0.80188837  1
  Sb  Sb17  1  0.46875958  0.97329702  0.18485432  1
  S  S18  1  0.92997726  0.99903737  0.79261643  1
  S  S19  1  0.05741797  0.97976125  0.20125156  1
  S  S20  1  0.41180565  0.00066073  0.97768328  1
  S  S21  1  0.58356900  0.99506474  0.00612162  1
  S  S22  1  0.17283170  0.94202682  0.88903352  1
  S  S23  1  0.83138737  0.03264580  0.11291250  1
  S  S24  1  0.11231053  0.49994511  0.64851361  1
  S  S25  1  0.89264926  0.41169895  0.35226196  1
  S  S26  1  0.73564435  0.97876222  0.31561408  1
  S  S27  1  0.26887238  0.94514038  0.68279142  1
  S  S28  1  0.17618603  0.49075999  0.45393385  1
  S  S29  1  0.81460148  0.49813537  0.54110599  1
  S  S30  1  0.43431491  0.44459305  0.79540927  1
  S  S31  1  0.56365949  0.48457432  0.19325148  1
  S  S32  1  0.91776238  0.51667474  0.99554606  1
  S  S33  1  0.08282739  0.45537342  0.03239906  1
  S  S34  1  0.67787373  0.59031781  0.90839521  1
  S  S35  1  0.32919485  0.42842518  0.10805108  1
  S  S36  1  0.59787747  0.03004389  0.65600419  1
  S  S37  1  0.40301713  0.02836817  0.34412157  1
  S  S38  1  0.24533762  0.54096552  0.33603174  1
  S  S39  1  0.75927266  0.51374275  0.69234741  1
  S  S40  1  0.66634706  0.95563880  0.44867625  1
  S  S41  1  0.33551168  0.91047152  0.55779978  1
