# generated using pymatgen
data_Pr2Mn3(SbS3)4
_symmetry_space_group_name_H-M   'P 1'
_cell_length_a   20.02960800
_cell_length_b   3.90410600
_cell_length_c   14.95364829
_cell_angle_alpha   90.00000000
_cell_angle_beta   126.33350609
_cell_angle_gamma   90.00000000
_symmetry_Int_Tables_number   1
_chemical_formula_structural   Pr2Mn3(SbS3)4
_chemical_formula_sum   'Pr4 Mn6 Sb8 S24'
_cell_volume   942.00006694
_cell_formula_units_Z   2
loop_
 _symmetry_equiv_pos_site_id
 _symmetry_equiv_pos_as_xyz
  1  'x, y, z'
loop_
 _atom_site_type_symbol
 _atom_site_label
 _atom_site_symmetry_multiplicity
 _atom_site_fract_x
 _atom_site_fract_y
 _atom_site_fract_z
 _atom_site_occupancy
  Pr  Pr0  1  0.27649796  0.49612867  0.88288093  1
  Pr  Pr1  1  0.73556563  0.51172965  0.14319083  1
  Pr  Pr2  1  0.76257180  0.06408020  0.87387606  1
  Pr  Pr3  1  0.23478780  0.90137411  0.12303482  1
  Mn  Mn4  1  0.30236440  0.41814986  0.60671975  1
  Mn  Mn5  1  0.69313138  0.49568653  0.36146049  1
  Mn  Mn6  1  0.00705830  0.96682978  0.01965829  1
  Mn  Mn7  1  0.79392651  0.95610337  0.62562070  1
  Mn  Mn8  1  0.21485922  0.04812853  0.40224978  1
  Mn  Mn9  1  0.47447277  0.51528856  0.96653225  1
  Sb  Sb10  1  0.88834332  0.88351146  0.45843367  1
  Sb  Sb11  1  0.11860200  0.97062643  0.54204667  1
  Sb  Sb12  1  0.03770695  0.50932398  0.82703156  1
  Sb  Sb13  1  0.96697984  0.47383831  0.20418407  1
  Sb  Sb14  1  0.40883284  0.57913850  0.46056985  1
  Sb  Sb15  1  0.60309032  0.55593291  0.53595388  1
  Sb  Sb16  1  0.53226954  0.93093422  0.80189177  1
  Sb  Sb17  1  0.46867445  0.97328674  0.18479744  1
  S  S18  1  0.92985896  0.99899136  0.79258259  1
  S  S19  1  0.05780027  0.97873967  0.20150106  1
  S  S20  1  0.41193784  0.00033185  0.97796517  1
  S  S21  1  0.58359226  0.99473745  0.00600892  1
  S  S22  1  0.17282307  0.94268947  0.88916328  1
  S  S23  1  0.83128908  0.03247168  0.11285957  1
  S  S24  1  0.11249755  0.49980817  0.64868231  1
  S  S25  1  0.89277282  0.41242498  0.35252774  1
  S  S26  1  0.73554546  0.97949268  0.31539567  1
  S  S27  1  0.26886981  0.94473716  0.68273877  1
  S  S28  1  0.17629509  0.49115922  0.45414494  1
  S  S29  1  0.81448467  0.49687108  0.54079364  1
  S  S30  1  0.43434029  0.44478501  0.79536189  1
  S  S31  1  0.56361984  0.48493273  0.19260921  1
  S  S32  1  0.91772999  0.51732638  0.99570178  1
  S  S33  1  0.08274628  0.45520800  0.03225518  1
  S  S34  1  0.67800360  0.59024095  0.90848807  1
  S  S35  1  0.32913657  0.42854204  0.10800723  1
  S  S36  1  0.59773428  0.03052407  0.65603297  1
  S  S37  1  0.40341879  0.02900913  0.34432204  1
  S  S38  1  0.24552981  0.54016948  0.33636523  1
  S  S39  1  0.75950027  0.51376389  0.69256955  1
  S  S40  1  0.66623608  0.95708951  0.44860030  1
  S  S41  1  0.33553942  0.90975896  0.55800689  1
