# generated using pymatgen
data_Pr2Mn3(SbS3)4
_symmetry_space_group_name_H-M   'P 1'
_cell_length_a   20.02960800
_cell_length_b   3.90410600
_cell_length_c   14.95364829
_cell_angle_alpha   90.00000000
_cell_angle_beta   126.33350609
_cell_angle_gamma   90.00000000
_symmetry_Int_Tables_number   1
_chemical_formula_structural   Pr2Mn3(SbS3)4
_chemical_formula_sum   'Pr4 Mn6 Sb8 S24'
_cell_volume   942.00006694
_cell_formula_units_Z   2
loop_
 _symmetry_equiv_pos_site_id
 _symmetry_equiv_pos_as_xyz
  1  'x, y, z'
loop_
 _atom_site_type_symbol
 _atom_site_label
 _atom_site_symmetry_multiplicity
 _atom_site_fract_x
 _atom_site_fract_y
 _atom_site_fract_z
 _atom_site_occupancy
  Pr  Pr0  1  0.27659286  0.49605289  0.88304562  1
  Pr  Pr1  1  0.73556540  0.51193144  0.14316184  1
  Pr  Pr2  1  0.76257728  0.06419463  0.87398810  1
  Pr  Pr3  1  0.23481639  0.90122948  0.12297997  1
  Mn  Mn4  1  0.30258432  0.41772005  0.60689664  1
  Mn  Mn5  1  0.69300953  0.49492169  0.36111061  1
  Mn  Mn6  1  0.00707656  0.96691385  0.01971131  1
  Mn  Mn7  1  0.79385292  0.95650191  0.62559484  1
  Mn  Mn8  1  0.21465378  0.04839837  0.40210765  1
  Mn  Mn9  1  0.47449922  0.51587134  0.96667065  1
  Sb  Sb10  1  0.88829176  0.88322230  0.45854988  1
  Sb  Sb11  1  0.11846687  0.97074339  0.54196912  1
  Sb  Sb12  1  0.03767866  0.50937411  0.82692899  1
  Sb  Sb13  1  0.96700738  0.47404184  0.20429533  1
  Sb  Sb14  1  0.40904204  0.57957994  0.46063630  1
  Sb  Sb15  1  0.60294521  0.55629013  0.53562612  1
  Sb  Sb16  1  0.53233342  0.93059438  0.80197278  1
  Sb  Sb17  1  0.46858090  0.97329834  0.18471338  1
  S  S18  1  0.92984073  0.99832383  0.79269950  1
  S  S19  1  0.05810763  0.97732672  0.20184445  1
  S  S20  1  0.41209322  0.00029042  0.97827374  1
  S  S21  1  0.58358224  0.99444677  0.00592240  1
  S  S22  1  0.17278329  0.94351558  0.88921541  1
  S  S23  1  0.83116745  0.03203402  0.11291041  1
  S  S24  1  0.11268692  0.49941851  0.64901267  1
  S  S25  1  0.89293769  0.41301913  0.35282949  1
  S  S26  1  0.73544652  0.98008706  0.31520107  1
  S  S27  1  0.26881052  0.94400467  0.68258877  1
  S  S28  1  0.17636318  0.49116439  0.45437835  1
  S  S29  1  0.81437349  0.49588937  0.54062299  1
  S  S30  1  0.43446780  0.44473220  0.79549975  1
  S  S31  1  0.56360481  0.48516876  0.19205858  1
  S  S32  1  0.91774136  0.51787931  0.99580925  1
  S  S33  1  0.08276136  0.45525757  0.03220231  1
  S  S34  1  0.67820387  0.59059489  0.90861867  1
  S  S35  1  0.32900165  0.42820773  0.10793400  1
  S  S36  1  0.59757494  0.03075099  0.65609794  1
  S  S37  1  0.40381494  0.03004433  0.34461100  1
  S  S38  1  0.24578961  0.54010892  0.33673713  1
  S  S39  1  0.75975193  0.51392498  0.69281971  1
  S  S40  1  0.66615641  0.95841525  0.44843757  1
  S  S41  1  0.33552137  0.90921653  0.55812363  1
