# generated using pymatgen
data_Pr2Mn3(SbS3)4
_symmetry_space_group_name_H-M   'P 1'
_cell_length_a   20.02960800
_cell_length_b   3.90410600
_cell_length_c   14.95364829
_cell_angle_alpha   90.00000000
_cell_angle_beta   126.33350609
_cell_angle_gamma   90.00000000
_symmetry_Int_Tables_number   1
_chemical_formula_structural   Pr2Mn3(SbS3)4
_chemical_formula_sum   'Pr4 Mn6 Sb8 S24'
_cell_volume   942.00006694
_cell_formula_units_Z   2
loop_
 _symmetry_equiv_pos_site_id
 _symmetry_equiv_pos_as_xyz
  1  'x, y, z'
loop_
 _atom_site_type_symbol
 _atom_site_label
 _atom_site_symmetry_multiplicity
 _atom_site_fract_x
 _atom_site_fract_y
 _atom_site_fract_z
 _atom_site_occupancy
  Pr  Pr0  1  0.27666614  0.49607269  0.88310724  1
  Pr  Pr1  1  0.73552749  0.51202920  0.14308900  1
  Pr  Pr2  1  0.76257383  0.06450895  0.87408238  1
  Pr  Pr3  1  0.23482629  0.90110800  0.12288632  1
  Mn  Mn4  1  0.30276574  0.41744959  0.60699555  1
  Mn  Mn5  1  0.69301337  0.49446816  0.36088915  1
  Mn  Mn6  1  0.00715418  0.96678809  0.01989500  1
  Mn  Mn7  1  0.79390998  0.95729342  0.62566209  1
  Mn  Mn8  1  0.21441221  0.04884426  0.40192188  1
  Mn  Mn9  1  0.47454689  0.51643991  0.96682243  1
  Sb  Sb10  1  0.88823293  0.88315203  0.45864382  1
  Sb  Sb11  1  0.11834111  0.97120827  0.54190250  1
  Sb  Sb12  1  0.03766224  0.50945504  0.82687307  1
  Sb  Sb13  1  0.96702109  0.47411412  0.20431725  1
  Sb  Sb14  1  0.40927648  0.57988206  0.46073981  1
  Sb  Sb15  1  0.60278183  0.55666385  0.53533513  1
  Sb  Sb16  1  0.53230683  0.93044541  0.80196320  1
  Sb  Sb17  1  0.46850001  0.97336563  0.18463144  1
  S  S18  1  0.92985827  0.99707237  0.79281574  1
  S  S19  1  0.05844900  0.97608548  0.20229531  1
  S  S20  1  0.41231844  0.00005435  0.97862201  1
  S  S21  1  0.58360737  0.99424726  0.00580452  1
  S  S22  1  0.17262843  0.94425865  0.88909629  1
  S  S23  1  0.83103355  0.03171645  0.11293662  1
  S  S24  1  0.11292946  0.49883792  0.64936640  1
  S  S25  1  0.89294116  0.41399197  0.35296598  1
  S  S26  1  0.73531880  0.98020569  0.31503116  1
  S  S27  1  0.26876703  0.94335381  0.68234884  1
  S  S28  1  0.17647250  0.49075476  0.45460543  1
  S  S29  1  0.81430256  0.49520227  0.54042808  1
  S  S30  1  0.43445693  0.44431157  0.79550070  1
  S  S31  1  0.56356294  0.48543835  0.19150465  1
  S  S32  1  0.91778526  0.51844120  0.99596391  1
  S  S33  1  0.08270952  0.45536308  0.03208025  1
  S  S34  1  0.67837733  0.59055611  0.90865123  1
  S  S35  1  0.32888156  0.42772122  0.10770860  1
  S  S36  1  0.59732892  0.03114673  0.65616385  1
  S  S37  1  0.40424712  0.03132149  0.34491690  1
  S  S38  1  0.24605682  0.53914702  0.33715796  1
  S  S39  1  0.76005797  0.51422878  0.69308076  1
  S  S40  1  0.66598120  0.95981835  0.44817718  1
  S  S41  1  0.33551590  0.90901592  0.55827835  1
