# generated using pymatgen
data_Pr2Mn3(SbS3)4
_symmetry_space_group_name_H-M   'P 1'
_cell_length_a   20.02960800
_cell_length_b   3.90410600
_cell_length_c   14.95364829
_cell_angle_alpha   90.00000000
_cell_angle_beta   126.33350609
_cell_angle_gamma   90.00000000
_symmetry_Int_Tables_number   1
_chemical_formula_structural   Pr2Mn3(SbS3)4
_chemical_formula_sum   'Pr4 Mn6 Sb8 S24'
_cell_volume   942.00006694
_cell_formula_units_Z   2
loop_
 _symmetry_equiv_pos_site_id
 _symmetry_equiv_pos_as_xyz
  1  'x, y, z'
loop_
 _atom_site_type_symbol
 _atom_site_label
 _atom_site_symmetry_multiplicity
 _atom_site_fract_x
 _atom_site_fract_y
 _atom_site_fract_z
 _atom_site_occupancy
  Pr  Pr0  1  0.27678314  0.49629262  0.88320088  1
  Pr  Pr1  1  0.73549715  0.51202670  0.14297394  1
  Pr  Pr2  1  0.76255663  0.06485722  0.87407806  1
  Pr  Pr3  1  0.23483226  0.90097765  0.12278719  1
  Mn  Mn4  1  0.30290326  0.41705591  0.60712334  1
  Mn  Mn5  1  0.69295205  0.49411083  0.36063776  1
  Mn  Mn6  1  0.00725678  0.96702862  0.02018470  1
  Mn  Mn7  1  0.79396290  0.95783646  0.62572547  1
  Mn  Mn8  1  0.21421619  0.04941918  0.40176820  1
  Mn  Mn9  1  0.47453980  0.51722548  0.96697693  1
  Sb  Sb10  1  0.88817465  0.88323468  0.45868639  1
  Sb  Sb11  1  0.11819867  0.97167456  0.54183543  1
  Sb  Sb12  1  0.03755732  0.50926542  0.82677126  1
  Sb  Sb13  1  0.96701834  0.47440147  0.20430413  1
  Sb  Sb14  1  0.40949712  0.58032050  0.46082602  1
  Sb  Sb15  1  0.60269979  0.55703413  0.53517742  1
  Sb  Sb16  1  0.53227942  0.93061492  0.80197144  1
  Sb  Sb17  1  0.46844348  0.97342263  0.18463881  1
  S  S18  1  0.92995367  0.99555815  0.79298090  1
  S  S19  1  0.05878326  0.97510253  0.20276220  1
  S  S20  1  0.41248113  0.99981814  0.97890227  1
  S  S21  1  0.58356820  0.99387744  0.00563069  1
  S  S22  1  0.17254437  0.94529364  0.88914440  1
  S  S23  1  0.83089410  0.03099656  0.11291809  1
  S  S24  1  0.11312721  0.49816803  0.64969081  1
  S  S25  1  0.89309669  0.41503879  0.35333067  1
  S  S26  1  0.73508815  0.98092612  0.31466302  1
  S  S27  1  0.26860413  0.94289679  0.68192039  1
  S  S28  1  0.17661175  0.49106821  0.45491933  1
  S  S29  1  0.81419834  0.49432882  0.54025958  1
  S  S30  1  0.43446138  0.44391506  0.79551168  1
  S  S31  1  0.56342722  0.48584030  0.19099682  1
  S  S32  1  0.91772990  0.51879667  0.99607891  1
  S  S33  1  0.08274449  0.45554126  0.03195304  1
  S  S34  1  0.67864367  0.59021388  0.90884444  1
  S  S35  1  0.32898476  0.42751593  0.10770750  1
  S  S36  1  0.59714980  0.03128549  0.65619334  1
  S  S37  1  0.40478914  0.03228326  0.34534182  1
  S  S38  1  0.24637558  0.53844059  0.33759729  1
  S  S39  1  0.76031595  0.51433876  0.69318428  1
  S  S40  1  0.66571296  0.96041567  0.44783760  1
  S  S41  1  0.33546441  0.90906661  0.55835083  1
