# generated using pymatgen
data_Pr2Mn3(SbS3)4
_symmetry_space_group_name_H-M   'P 1'
_cell_length_a   20.02960800
_cell_length_b   3.90410600
_cell_length_c   14.95364829
_cell_angle_alpha   90.00000000
_cell_angle_beta   126.33350609
_cell_angle_gamma   90.00000000
_symmetry_Int_Tables_number   1
_chemical_formula_structural   Pr2Mn3(SbS3)4
_chemical_formula_sum   'Pr4 Mn6 Sb8 S24'
_cell_volume   942.00006694
_cell_formula_units_Z   2
loop_
 _symmetry_equiv_pos_site_id
 _symmetry_equiv_pos_as_xyz
  1  'x, y, z'
loop_
 _atom_site_type_symbol
 _atom_site_label
 _atom_site_symmetry_multiplicity
 _atom_site_fract_x
 _atom_site_fract_y
 _atom_site_fract_z
 _atom_site_occupancy
  Pr  Pr0  1  0.27683779  0.49653846  0.88323406  1
  Pr  Pr1  1  0.73545311  0.51182819  0.14276338  1
  Pr  Pr2  1  0.76258522  0.06503110  0.87415660  1
  Pr  Pr3  1  0.23478674  0.90119582  0.12270099  1
  Mn  Mn4  1  0.30305319  0.41641845  0.60716921  1
  Mn  Mn5  1  0.69281779  0.49370564  0.36034728  1
  Mn  Mn6  1  0.00731721  0.96737878  0.02032425  1
  Mn  Mn7  1  0.79399756  0.95845208  0.62573143  1
  Mn  Mn8  1  0.21411205  0.04989095  0.40164779  1
  Mn  Mn9  1  0.47444400  0.51750226  0.96707513  1
  Sb  Sb10  1  0.88807737  0.88349410  0.45871995  1
  Sb  Sb11  1  0.11810625  0.97263215  0.54177846  1
  Sb  Sb12  1  0.03750381  0.50904308  0.82664883  1
  Sb  Sb13  1  0.96707603  0.47469558  0.20434488  1
  Sb  Sb14  1  0.40967863  0.58073238  0.46080109  1
  Sb  Sb15  1  0.60264059  0.55747470  0.53508575  1
  Sb  Sb16  1  0.53223458  0.93079209  0.80198600  1
  Sb  Sb17  1  0.46836022  0.97353142  0.18461069  1
  S  S18  1  0.92999573  0.99466235  0.79320151  1
  S  S19  1  0.05901470  0.97413630  0.20312517  1
  S  S20  1  0.41269188  0.00001560  0.97920637  1
  S  S21  1  0.58329527  0.99343107  0.00531306  1
  S  S22  1  0.17234331  0.94604250  0.88916653  1
  S  S23  1  0.83075165  0.03031018  0.11285400  1
  S  S24  1  0.11338127  0.49750125  0.65002085  1
  S  S25  1  0.89315662  0.41609368  0.35352757  1
  S  S26  1  0.73474394  0.98146156  0.31414419  1
  S  S27  1  0.26850930  0.94199457  0.68174902  1
  S  S28  1  0.17685882  0.49104322  0.45531072  1
  S  S29  1  0.81416731  0.49370924  0.54009949  1
  S  S30  1  0.43445342  0.44377901  0.79542287  1
  S  S31  1  0.56337081  0.48578194  0.19072844  1
  S  S32  1  0.91782278  0.51909191  0.99639833  1
  S  S33  1  0.08277126  0.45547700  0.03180065  1
  S  S34  1  0.67878708  0.58982423  0.90894251  1
  S  S35  1  0.32901815  0.42736873  0.10771536  1
  S  S36  1  0.59710484  0.03120286  0.65622540  1
  S  S37  1  0.40522908  0.03339636  0.34556993  1
  S  S38  1  0.24665484  0.53734215  0.33806720  1
  S  S39  1  0.76061998  0.51399170  0.69339230  1
  S  S40  1  0.66551170  0.96009517  0.44757151  1
  S  S41  1  0.33542568  0.90857079  0.55842479  1
