# generated using pymatgen
data_Pr2Mn3(SbS3)4
_symmetry_space_group_name_H-M   'P 1'
_cell_length_a   20.02960800
_cell_length_b   3.90410600
_cell_length_c   14.95364829
_cell_angle_alpha   90.00000000
_cell_angle_beta   126.33350609
_cell_angle_gamma   90.00000000
_symmetry_Int_Tables_number   1
_chemical_formula_structural   Pr2Mn3(SbS3)4
_chemical_formula_sum   'Pr4 Mn6 Sb8 S24'
_cell_volume   942.00006694
_cell_formula_units_Z   2
loop_
 _symmetry_equiv_pos_site_id
 _symmetry_equiv_pos_as_xyz
  1  'x, y, z'
loop_
 _atom_site_type_symbol
 _atom_site_label
 _atom_site_symmetry_multiplicity
 _atom_site_fract_x
 _atom_site_fract_y
 _atom_site_fract_z
 _atom_site_occupancy
  Pr  Pr0  1  0.27689060  0.49706184  0.88327801  1
  Pr  Pr1  1  0.73540129  0.51161205  0.14257197  1
  Pr  Pr2  1  0.76253149  0.06522687  0.87418507  1
  Pr  Pr3  1  0.23474617  0.90118408  0.12262867  1
  Mn  Mn4  1  0.30313281  0.41595473  0.60712501  1
  Mn  Mn5  1  0.69264594  0.49297547  0.36007741  1
  Mn  Mn6  1  0.00734675  0.96785968  0.02045531  1
  Mn  Mn7  1  0.79396674  0.95944106  0.62574196  1
  Mn  Mn8  1  0.21392060  0.05035528  0.40149219  1
  Mn  Mn9  1  0.47422507  0.51768287  0.96708296  1
  Sb  Sb10  1  0.88791249  0.88403652  0.45872542  1
  Sb  Sb11  1  0.11795923  0.97369057  0.54167532  1
  Sb  Sb12  1  0.03741196  0.50869206  0.82650444  1
  Sb  Sb13  1  0.96709162  0.47493510  0.20435466  1
  Sb  Sb14  1  0.40980974  0.58082821  0.46072312  1
  Sb  Sb15  1  0.60251765  0.55783193  0.53500196  1
  Sb  Sb16  1  0.53219559  0.93114378  0.80197716  1
  Sb  Sb17  1  0.46829144  0.97334441  0.18457469  1
  S  S18  1  0.93009951  0.99359027  0.79342464  1
  S  S19  1  0.05930913  0.97248369  0.20358823  1
  S  S20  1  0.41291258  0.00082121  0.97958294  1
  S  S21  1  0.58298456  0.99243317  0.00504123  1
  S  S22  1  0.17203677  0.94649556  0.88906645  1
  S  S23  1  0.83057747  0.02990037  0.11287255  1
  S  S24  1  0.11364056  0.49696576  0.65038534  1
  S  S25  1  0.89310042  0.41726671  0.35365092  1
  S  S26  1  0.73433207  0.98178024  0.31364314  1
  S  S27  1  0.26856657  0.94109803  0.68167648  1
  S  S28  1  0.17703707  0.49070991  0.45564375  1
  S  S29  1  0.81425880  0.49353595  0.54003102  1
  S  S30  1  0.43442287  0.44400348  0.79542110  1
  S  S31  1  0.56330096  0.48587580  0.19050800  1
  S  S32  1  0.91796282  0.51941228  0.99660939  1
  S  S33  1  0.08278509  0.45533378  0.03161154  1
  S  S34  1  0.67886998  0.58861298  0.90892802  1
  S  S35  1  0.32917406  0.42724549  0.10770769  1
  S  S36  1  0.59706617  0.03158431  0.65624930  1
  S  S37  1  0.40550226  0.03423134  0.34572313  1
  S  S38  1  0.24696174  0.53630120  0.33859477  1
  S  S39  1  0.76102547  0.51363131  0.69374065  1
  S  S40  1  0.66526821  0.95977491  0.44731435  1
  S  S41  1  0.33537021  0.90804393  0.55854113  1
