# generated using pymatgen
data_Pr2Mn3(SbS3)4
_symmetry_space_group_name_H-M   'P 1'
_cell_length_a   20.02960800
_cell_length_b   3.90410600
_cell_length_c   14.95364829
_cell_angle_alpha   90.00000000
_cell_angle_beta   126.33350609
_cell_angle_gamma   90.00000000
_symmetry_Int_Tables_number   1
_chemical_formula_structural   Pr2Mn3(SbS3)4
_chemical_formula_sum   'Pr4 Mn6 Sb8 S24'
_cell_volume   942.00006694
_cell_formula_units_Z   2
loop_
 _symmetry_equiv_pos_site_id
 _symmetry_equiv_pos_as_xyz
  1  'x, y, z'
loop_
 _atom_site_type_symbol
 _atom_site_label
 _atom_site_symmetry_multiplicity
 _atom_site_fract_x
 _atom_site_fract_y
 _atom_site_fract_z
 _atom_site_occupancy
  Pr  Pr0  1  0.27702416  0.49741765  0.88337342  1
  Pr  Pr1  1  0.73532826  0.51160693  0.14244132  1
  Pr  Pr2  1  0.76251021  0.06539286  0.87427121  1
  Pr  Pr3  1  0.23472799  0.90154055  0.12261540  1
  Mn  Mn4  1  0.30320554  0.41584566  0.60708128  1
  Mn  Mn5  1  0.69249512  0.49257133  0.35986981  1
  Mn  Mn6  1  0.00735810  0.96872978  0.02056420  1
  Mn  Mn7  1  0.79400799  0.96026565  0.62576520  1
  Mn  Mn8  1  0.21373537  0.05061089  0.40132619  1
  Mn  Mn9  1  0.47405253  0.51786111  0.96705540  1
  Sb  Sb10  1  0.88768581  0.88460503  0.45868522  1
  Sb  Sb11  1  0.11779494  0.97450294  0.54154252  1
  Sb  Sb12  1  0.03727054  0.50819313  0.82634695  1
  Sb  Sb13  1  0.96707651  0.47488697  0.20433647  1
  Sb  Sb14  1  0.40995501  0.58104645  0.46070763  1
  Sb  Sb15  1  0.60239260  0.55821056  0.53491988  1
  Sb  Sb16  1  0.53217411  0.93161693  0.80193902  1
  Sb  Sb17  1  0.46819324  0.97326971  0.18448095  1
  S  S18  1  0.93005031  0.99237849  0.79351284  1
  S  S19  1  0.05961677  0.97058828  0.20395613  1
  S  S20  1  0.41314524  0.00169110  0.97999442  1
  S  S21  1  0.58270219  0.99126723  0.00492681  1
  S  S22  1  0.17180256  0.94648120  0.88893859  1
  S  S23  1  0.83046638  0.02969652  0.11294071  1
  S  S24  1  0.11385388  0.49670376  0.65074843  1
  S  S25  1  0.89297355  0.41823551  0.35362633  1
  S  S26  1  0.73393801  0.98195061  0.31323458  1
  S  S27  1  0.26850800  0.94052272  0.68155505  1
  S  S28  1  0.17725604  0.49070301  0.45584958  1
  S  S29  1  0.81432681  0.49313536  0.54003253  1
  S  S30  1  0.43437155  0.44430297  0.79544518  1
  S  S31  1  0.56330860  0.48605940  0.19020196  1
  S  S32  1  0.91805233  0.51968223  0.99664591  1
  S  S33  1  0.08284730  0.45501034  0.03132835  1
  S  S34  1  0.67883434  0.58766641  0.90895614  1
  S  S35  1  0.32933514  0.42710572  0.10768256  1
  S  S36  1  0.59703178  0.03132966  0.65616699  1
  S  S37  1  0.40583345  0.03494084  0.34592584  1
  S  S38  1  0.24729245  0.53506063  0.33909252  1
  S  S39  1  0.76136372  0.51374522  0.69411111  1
  S  S40  1  0.66517852  0.95976796  0.44730653  1
  S  S41  1  0.33544420  0.90774798  0.55879034  1
