# generated using pymatgen
data_Pr2Mn3(SbS3)4
_symmetry_space_group_name_H-M   'P 1'
_cell_length_a   20.02960800
_cell_length_b   3.90410600
_cell_length_c   14.95364829
_cell_angle_alpha   90.00000000
_cell_angle_beta   126.33350609
_cell_angle_gamma   90.00000000
_symmetry_Int_Tables_number   1
_chemical_formula_structural   Pr2Mn3(SbS3)4
_chemical_formula_sum   'Pr4 Mn6 Sb8 S24'
_cell_volume   942.00006694
_cell_formula_units_Z   2
loop_
 _symmetry_equiv_pos_site_id
 _symmetry_equiv_pos_as_xyz
  1  'x, y, z'
loop_
 _atom_site_type_symbol
 _atom_site_label
 _atom_site_symmetry_multiplicity
 _atom_site_fract_x
 _atom_site_fract_y
 _atom_site_fract_z
 _atom_site_occupancy
  Pr  Pr0  1  0.27708467  0.49763016  0.88340421  1
  Pr  Pr1  1  0.73520337  0.51160699  0.14219265  1
  Pr  Pr2  1  0.76250342  0.06540709  0.87433802  1
  Pr  Pr3  1  0.23468905  0.90204966  0.12256301  1
  Mn  Mn4  1  0.30322349  0.41582789  0.60697067  1
  Mn  Mn5  1  0.69233573  0.49216971  0.35975872  1
  Mn  Mn6  1  0.00739676  0.96936889  0.02073341  1
  Mn  Mn7  1  0.79401960  0.96148679  0.62570812  1
  Mn  Mn8  1  0.21354502  0.05046233  0.40111173  1
  Mn  Mn9  1  0.47389436  0.51761938  0.96693155  1
  Sb  Sb10  1  0.88745834  0.88536662  0.45864036  1
  Sb  Sb11  1  0.11765310  0.97518008  0.54149140  1
  Sb  Sb12  1  0.03707694  0.50740173  0.82610792  1
  Sb  Sb13  1  0.96706757  0.47483472  0.20433177  1
  Sb  Sb14  1  0.41011237  0.58126485  0.46072721  1
  Sb  Sb15  1  0.60225324  0.55866228  0.53487592  1
  Sb  Sb16  1  0.53212952  0.93230741  0.80186242  1
  Sb  Sb17  1  0.46811722  0.97342255  0.18438804  1
  S  S18  1  0.93012009  0.99123715  0.79379662  1
  S  S19  1  0.05991747  0.96919409  0.20428872  1
  S  S20  1  0.41325202  0.00242134  0.98035177  1
  S  S21  1  0.58232209  0.99012711  0.00479793  1
  S  S22  1  0.17162670  0.94648439  0.88890272  1
  S  S23  1  0.83037465  0.02997448  0.11301742  1
  S  S24  1  0.11391738  0.49665710  0.65107876  1
  S  S25  1  0.89285100  0.41953305  0.35350241  1
  S  S26  1  0.73350952  0.98232850  0.31292178  1
  S  S27  1  0.26860794  0.93975665  0.68158735  1
  S  S28  1  0.17750812  0.49098550  0.45601263  1
  S  S29  1  0.81443619  0.49254478  0.54012756  1
  S  S30  1  0.43427956  0.44470447  0.79551233  1
  S  S31  1  0.56322682  0.48639248  0.18989399  1
  S  S32  1  0.91814603  0.51975628  0.99675112  1
  S  S33  1  0.08299042  0.45466852  0.03116827  1
  S  S34  1  0.67881390  0.58655226  0.90907318  1
  S  S35  1  0.32947077  0.42672807  0.10766723  1
  S  S36  1  0.59700433  0.03122067  0.65608366  1
  S  S37  1  0.40613134  0.03632891  0.34615481  1
  S  S38  1  0.24769550  0.53450740  0.33957492  1
  S  S39  1  0.76181653  0.51375547  0.69448248  1
  S  S40  1  0.66515602  0.95932218  0.44734365  1
  S  S41  1  0.33554782  0.90745612  0.55908897  1
