# generated using pymatgen
data_Pr2Mn3(SbS3)4
_symmetry_space_group_name_H-M   'P 1'
_cell_length_a   20.02960800
_cell_length_b   3.90410600
_cell_length_c   14.95364829
_cell_angle_alpha   90.00000000
_cell_angle_beta   126.33350609
_cell_angle_gamma   90.00000000
_symmetry_Int_Tables_number   1
_chemical_formula_structural   Pr2Mn3(SbS3)4
_chemical_formula_sum   'Pr4 Mn6 Sb8 S24'
_cell_volume   942.00006694
_cell_formula_units_Z   2
loop_
 _symmetry_equiv_pos_site_id
 _symmetry_equiv_pos_as_xyz
  1  'x, y, z'
loop_
 _atom_site_type_symbol
 _atom_site_label
 _atom_site_symmetry_multiplicity
 _atom_site_fract_x
 _atom_site_fract_y
 _atom_site_fract_z
 _atom_site_occupancy
  Pr  Pr0  1  0.27713668  0.49785815  0.88348316  1
  Pr  Pr1  1  0.73512159  0.51150799  0.14204117  1
  Pr  Pr2  1  0.76257140  0.06540343  0.87443697  1
  Pr  Pr3  1  0.23472896  0.90262376  0.12266241  1
  Mn  Mn4  1  0.30322611  0.41537488  0.60675828  1
  Mn  Mn5  1  0.69215707  0.49163047  0.35953964  1
  Mn  Mn6  1  0.00741513  0.96960831  0.02085803  1
  Mn  Mn7  1  0.79401432  0.96269497  0.62564974  1
  Mn  Mn8  1  0.21334858  0.05033601  0.40079493  1
  Mn  Mn9  1  0.47377411  0.51733781  0.96688251  1
  Sb  Sb10  1  0.88722300  0.88601384  0.45857248  1
  Sb  Sb11  1  0.11743728  0.97579734  0.54139435  1
  Sb  Sb12  1  0.03699488  0.50659684  0.82592260  1
  Sb  Sb13  1  0.96705980  0.47481849  0.20429854  1
  Sb  Sb14  1  0.41031142  0.58156312  0.46080815  1
  Sb  Sb15  1  0.60214151  0.55930370  0.53481861  1
  Sb  Sb16  1  0.53210052  0.93278607  0.80181460  1
  Sb  Sb17  1  0.46804874  0.97347028  0.18442498  1
  S  S18  1  0.93006240  0.99021245  0.79402001  1
  S  S19  1  0.06010590  0.96791275  0.20452636  1
  S  S20  1  0.41339421  0.00321734  0.98075491  1
  S  S21  1  0.58199588  0.98904853  0.00462218  1
  S  S22  1  0.17150050  0.94605321  0.88890884  1
  S  S23  1  0.83025596  0.03061231  0.11302142  1
  S  S24  1  0.11392761  0.49675500  0.65142493  1
  S  S25  1  0.89263766  0.42108482  0.35328760  1
  S  S26  1  0.73310487  0.98244167  0.31245610  1
  S  S27  1  0.26875971  0.93910819  0.68162714  1
  S  S28  1  0.17771584  0.49075437  0.45602252  1
  S  S29  1  0.81448788  0.49178981  0.54004794  1
  S  S30  1  0.43413050  0.44444195  0.79553863  1
  S  S31  1  0.56319914  0.48658562  0.18963675  1
  S  S32  1  0.91819868  0.51939474  0.99683056  1
  S  S33  1  0.08307453  0.45464207  0.03098666  1
  S  S34  1  0.67872891  0.58568630  0.90902525  1
  S  S35  1  0.32969187  0.42603929  0.10779350  1
  S  S36  1  0.59693625  0.03095015  0.65594107  1
  S  S37  1  0.40657703  0.03747008  0.34636988  1
  S  S38  1  0.24819478  0.53408170  0.34011882  1
  S  S39  1  0.76218051  0.51324469  0.69463011  1
  S  S40  1  0.66513855  0.95886855  0.44732834  1
  S  S41  1  0.33575116  0.90741545  0.55934581  1
