# generated using pymatgen
data_Pr2Mn3(SbS3)4
_symmetry_space_group_name_H-M   'P 1'
_cell_length_a   20.02960800
_cell_length_b   3.90410600
_cell_length_c   14.95364829
_cell_angle_alpha   90.00000000
_cell_angle_beta   126.33350609
_cell_angle_gamma   90.00000000
_symmetry_Int_Tables_number   1
_chemical_formula_structural   Pr2Mn3(SbS3)4
_chemical_formula_sum   'Pr4 Mn6 Sb8 S24'
_cell_volume   942.00006694
_cell_formula_units_Z   2
loop_
 _symmetry_equiv_pos_site_id
 _symmetry_equiv_pos_as_xyz
  1  'x, y, z'
loop_
 _atom_site_type_symbol
 _atom_site_label
 _atom_site_symmetry_multiplicity
 _atom_site_fract_x
 _atom_site_fract_y
 _atom_site_fract_z
 _atom_site_occupancy
  Pr  Pr0  1  0.26445874  0.47240698  0.86911342  1
  Pr  Pr1  1  0.73781419  0.52010105  0.13759538  1
  Pr  Pr2  1  0.76417824  0.01328260  0.86477636  1
  Pr  Pr3  1  0.23670210  0.00473806  0.13867877  1
  Mn  Mn4  1  0.29243894  0.48766408  0.60255401  1
  Mn  Mn5  1  0.69416886  0.52526683  0.38042480  1
  Mn  Mn6  1  0.00643877  0.99478968  0.00638424  1
  Mn  Mn7  1  0.80259601  0.00241599  0.61415590  1
  Mn  Mn8  1  0.19493245  0.97088702  0.37738406  1
  Mn  Mn9  1  0.50010652  0.46111521  0.99115894  1
  Sb  Sb10  1  0.89003845  0.99565864  0.45266827  1
  Sb  Sb11  1  0.11180115  0.96407215  0.55138656  1
  Sb  Sb12  1  0.03967358  0.51485097  0.81796738  1
  Sb  Sb13  1  0.96301298  0.51311766  0.18588354  1
  Sb  Sb14  1  0.39759715  0.50444426  0.45671164  1
  Sb  Sb15  1  0.60639890  0.48487741  0.54685744  1
  Sb  Sb16  1  0.53377833  0.01033717  0.81144992  1
  Sb  Sb17  1  0.46192373  0.01056211  0.18283472  1
  S  S18  1  0.93648496  0.98288508  0.80525930  1
  S  S19  1  0.06537005  0.97393556  0.18541219  1
  S  S20  1  0.41093149  0.01256361  0.97941462  1
  S  S21  1  0.59199368  0.99770925  0.02499317  1
  S  S22  1  0.17237041  0.98833273  0.89401066  1
  S  S23  1  0.82510758  0.01889952  0.09530354  1
  S  S24  1  0.08707931  0.47099399  0.64502140  1
  S  S25  1  0.91001467  0.47554639  0.35602999  1
  S  S26  1  0.73972952  0.95901657  0.29720965  1
  S  S27  1  0.25855629  0.99583504  0.70494551  1
  S  S28  1  0.17139813  0.48638876  0.44526654  1
  S  S29  1  0.82841046  0.49105201  0.55012616  1
  S  S30  1  0.43316814  0.49974236  0.79705818  1
  S  S31  1  0.56125887  0.51184574  0.18343106  1
  S  S32  1  0.91403830  0.50331942  0.99486469  1
  S  S33  1  0.08218862  0.49861206  0.01367967  1
  S  S34  1  0.66556997  0.48418793  0.88752217  1
  S  S35  1  0.32647785  0.51189181  0.09143727  1
  S  S36  1  0.59389862  0.00319755  0.65798842  1
  S  S37  1  0.40677845  0.97257890  0.34624161  1
  S  S38  1  0.24553774  0.45546974  0.31067537  1
  S  S39  1  0.76185469  0.50338558  0.70083699  1
  S  S40  1  0.67620696  0.02158125  0.46062721  1
  S  S41  1  0.32714661  0.98209160  0.54345979  1
