# generated using pymatgen
data_Pr2Mn3(SbS3)4
_symmetry_space_group_name_H-M   'P 1'
_cell_length_a   20.02960800
_cell_length_b   3.90410600
_cell_length_c   14.95364829
_cell_angle_alpha   90.00000000
_cell_angle_beta   126.33350609
_cell_angle_gamma   90.00000000
_symmetry_Int_Tables_number   1
_chemical_formula_structural   Pr2Mn3(SbS3)4
_chemical_formula_sum   'Pr4 Mn6 Sb8 S24'
_cell_volume   942.00006694
_cell_formula_units_Z   2
loop_
 _symmetry_equiv_pos_site_id
 _symmetry_equiv_pos_as_xyz
  1  'x, y, z'
loop_
 _atom_site_type_symbol
 _atom_site_label
 _atom_site_symmetry_multiplicity
 _atom_site_fract_x
 _atom_site_fract_y
 _atom_site_fract_z
 _atom_site_occupancy
  Pr  Pr0  1  0.27717843  0.49815568  0.88355333  1
  Pr  Pr1  1  0.73508024  0.51105012  0.14190977  1
  Pr  Pr2  1  0.76263241  0.06532319  0.87457857  1
  Pr  Pr3  1  0.23470865  0.90316440  0.12267567  1
  Mn  Mn4  1  0.30327129  0.41518078  0.60651853  1
  Mn  Mn5  1  0.69198162  0.49076280  0.35934317  1
  Mn  Mn6  1  0.00742834  0.96984083  0.02104704  1
  Mn  Mn7  1  0.79401773  0.96367400  0.62561766  1
  Mn  Mn8  1  0.21313127  0.05003860  0.40043529  1
  Mn  Mn9  1  0.47360459  0.51706145  0.96675834  1
  Sb  Sb10  1  0.88701277  0.88687064  0.45848416  1
  Sb  Sb11  1  0.11724075  0.97637213  0.54127822  1
  Sb  Sb12  1  0.03690488  0.50561413  0.82573540  1
  Sb  Sb13  1  0.96700756  0.47462200  0.20420739  1
  Sb  Sb14  1  0.41045628  0.58197449  0.46077464  1
  Sb  Sb15  1  0.60200648  0.55968697  0.53482408  1
  Sb  Sb16  1  0.53205287  0.93287859  0.80181608  1
  Sb  Sb17  1  0.46795311  0.97334630  0.18438940  1
  S  S18  1  0.93003771  0.98921722  0.79410144  1
  S  S19  1  0.06022013  0.96711010  0.20456460  1
  S  S20  1  0.41346312  0.00393422  0.98102490  1
  S  S21  1  0.58169454  0.98825058  0.00442312  1
  S  S22  1  0.17142569  0.94520065  0.88883883  1
  S  S23  1  0.83022818  0.03132602  0.11313898  1
  S  S24  1  0.11399582  0.49677385  0.65163490  1
  S  S25  1  0.89244593  0.42214703  0.35304207  1
  S  S26  1  0.73267479  0.98225442  0.31201301  1
  S  S27  1  0.26876569  0.93797537  0.68148046  1
  S  S28  1  0.17781276  0.48999885  0.45603966  1
  S  S29  1  0.81458543  0.49130049  0.54014930  1
  S  S30  1  0.43393196  0.44421063  0.79555452  1
  S  S31  1  0.56313654  0.48696311  0.18938479  1
  S  S32  1  0.91824199  0.51931240  0.99705523  1
  S  S33  1  0.08318637  0.45473004  0.03079823  1
  S  S34  1  0.67864526  0.58510688  0.90903908  1
  S  S35  1  0.32989362  0.42564861  0.10797810  1
  S  S36  1  0.59696695  0.03100718  0.65587205  1
  S  S37  1  0.40688653  0.03802631  0.34647105  1
  S  S38  1  0.24850501  0.53426810  0.34048208  1
  S  S39  1  0.76249630  0.51279788  0.69476388  1
  S  S40  1  0.66513110  0.95828331  0.44745335  1
  S  S41  1  0.33598605  0.90779228  0.55955966  1
