# generated using pymatgen
data_Pr2Mn3(SbS3)4
_symmetry_space_group_name_H-M   'P 1'
_cell_length_a   20.02960800
_cell_length_b   3.90410600
_cell_length_c   14.95364829
_cell_angle_alpha   90.00000000
_cell_angle_beta   126.33350609
_cell_angle_gamma   90.00000000
_symmetry_Int_Tables_number   1
_chemical_formula_structural   Pr2Mn3(SbS3)4
_chemical_formula_sum   'Pr4 Mn6 Sb8 S24'
_cell_volume   942.00006694
_cell_formula_units_Z   2
loop_
 _symmetry_equiv_pos_site_id
 _symmetry_equiv_pos_as_xyz
  1  'x, y, z'
loop_
 _atom_site_type_symbol
 _atom_site_label
 _atom_site_symmetry_multiplicity
 _atom_site_fract_x
 _atom_site_fract_y
 _atom_site_fract_z
 _atom_site_occupancy
  Pr  Pr0  1  0.27710135  0.49859535  0.88353776  1
  Pr  Pr1  1  0.73504785  0.51046196  0.14184298  1
  Pr  Pr2  1  0.76270951  0.06531909  0.87467462  1
  Pr  Pr3  1  0.23471354  0.90375193  0.12275324  1
  Mn  Mn4  1  0.30330731  0.41467657  0.60637720  1
  Mn  Mn5  1  0.69189832  0.48987103  0.35917877  1
  Mn  Mn6  1  0.00741260  0.97034254  0.02108879  1
  Mn  Mn7  1  0.79404542  0.96459740  0.62577540  1
  Mn  Mn8  1  0.21304011  0.04979268  0.40022763  1
  Mn  Mn9  1  0.47341823  0.51693428  0.96667266  1
  Sb  Sb10  1  0.88680696  0.88767830  0.45841210  1
  Sb  Sb11  1  0.11703061  0.97720410  0.54116522  1
  Sb  Sb12  1  0.03678343  0.50487323  0.82551812  1
  Sb  Sb13  1  0.96691255  0.47439025  0.20405533  1
  Sb  Sb14  1  0.41056111  0.58234088  0.46072085  1
  Sb  Sb15  1  0.60192870  0.55999879  0.53487065  1
  Sb  Sb16  1  0.53196075  0.93259644  0.80178682  1
  Sb  Sb17  1  0.46785403  0.97331285  0.18439146  1
  S  S18  1  0.93002749  0.98796003  0.79413470  1
  S  S19  1  0.06040456  0.96648738  0.20453328  1
  S  S20  1  0.41355974  0.00477782  0.98122115  1
  S  S21  1  0.58147675  0.98738379  0.00416879  1
  S  S22  1  0.17141953  0.94482865  0.88880600  1
  S  S23  1  0.83015909  0.03165361  0.11313897  1
  S  S24  1  0.11405603  0.49672990  0.65183053  1
  S  S25  1  0.89219942  0.42296569  0.35270488  1
  S  S26  1  0.73237796  0.98246290  0.31161922  1
  S  S27  1  0.26880208  0.93682844  0.68128098  1
  S  S28  1  0.17792595  0.48924215  0.45615806  1
  S  S29  1  0.81464888  0.49080439  0.54038739  1
  S  S30  1  0.43371268  0.44411071  0.79561607  1
  S  S31  1  0.56316510  0.48770821  0.18924281  1
  S  S32  1  0.91831151  0.51943380  0.99733525  1
  S  S33  1  0.08322180  0.45462326  0.03062472  1
  S  S34  1  0.67857418  0.58488781  0.90917245  1
  S  S35  1  0.33011630  0.42538567  0.10823988  1
  S  S36  1  0.59702358  0.03144072  0.65577791  1
  S  S37  1  0.40708591  0.03851473  0.34654912  1
  S  S38  1  0.24883004  0.53405952  0.34073405  1
  S  S39  1  0.76271044  0.51224796  0.69469528  1
  S  S40  1  0.66507217  0.95789476  0.44754429  1
  S  S41  1  0.33625028  0.90858780  0.55988717  1
