# generated using pymatgen
data_Pr2Mn3(SbS3)4
_symmetry_space_group_name_H-M   'P 1'
_cell_length_a   20.02960800
_cell_length_b   3.90410600
_cell_length_c   14.95364829
_cell_angle_alpha   90.00000000
_cell_angle_beta   126.33350609
_cell_angle_gamma   90.00000000
_symmetry_Int_Tables_number   1
_chemical_formula_structural   Pr2Mn3(SbS3)4
_chemical_formula_sum   'Pr4 Mn6 Sb8 S24'
_cell_volume   942.00006694
_cell_formula_units_Z   2
loop_
 _symmetry_equiv_pos_site_id
 _symmetry_equiv_pos_as_xyz
  1  'x, y, z'
loop_
 _atom_site_type_symbol
 _atom_site_label
 _atom_site_symmetry_multiplicity
 _atom_site_fract_x
 _atom_site_fract_y
 _atom_site_fract_z
 _atom_site_occupancy
  Pr  Pr0  1  0.27698830  0.49884684  0.88351103  1
  Pr  Pr1  1  0.73507013  0.50994829  0.14181684  1
  Pr  Pr2  1  0.76279034  0.06517675  0.87475938  1
  Pr  Pr3  1  0.23466676  0.90467238  0.12272538  1
  Mn  Mn4  1  0.30327888  0.41422740  0.60630468  1
  Mn  Mn5  1  0.69179765  0.48904562  0.35910361  1
  Mn  Mn6  1  0.00736776  0.97091323  0.02112516  1
  Mn  Mn7  1  0.79405177  0.96561874  0.62597903  1
  Mn  Mn8  1  0.21290543  0.05002747  0.40001383  1
  Mn  Mn9  1  0.47331031  0.51679547  0.96669427  1
  Sb  Sb10  1  0.88659797  0.88813214  0.45831067  1
  Sb  Sb11  1  0.11687008  0.97804060  0.54110602  1
  Sb  Sb12  1  0.03668399  0.50434609  0.82531358  1
  Sb  Sb13  1  0.96681545  0.47427744  0.20390035  1
  Sb  Sb14  1  0.41067494  0.58265029  0.46068798  1
  Sb  Sb15  1  0.60183693  0.56034601  0.53483804  1
  Sb  Sb16  1  0.53189012  0.93217775  0.80172807  1
  Sb  Sb17  1  0.46774308  0.97328716  0.18439610  1
  S  S18  1  0.93003705  0.98655355  0.79424971  1
  S  S19  1  0.06046386  0.96583972  0.20431877  1
  S  S20  1  0.41370019  0.00548188  0.98142389  1
  S  S21  1  0.58118368  0.98654836  0.00385015  1
  S  S22  1  0.17130889  0.94459866  0.88869022  1
  S  S23  1  0.83009460  0.03223846  0.11311755  1
  S  S24  1  0.11406266  0.49707610  0.65205850  1
  S  S25  1  0.89194998  0.42349544  0.35220268  1
  S  S26  1  0.73211687  0.98321316  0.31119726  1
  S  S27  1  0.26874777  0.93572520  0.68109469  1
  S  S28  1  0.17803145  0.48838025  0.45636429  1
  S  S29  1  0.81463480  0.49093959  0.54054338  1
  S  S30  1  0.43358227  0.44378343  0.79576172  1
  S  S31  1  0.56324833  0.48843439  0.18920973  1
  S  S32  1  0.91824665  0.51892569  0.99759898  1
  S  S33  1  0.08320084  0.45431031  0.03041639  1
  S  S34  1  0.67857214  0.58511380  0.90953167  1
  S  S35  1  0.33034903  0.42475902  0.10857227  1
  S  S36  1  0.59707510  0.03171612  0.65574010  1
  S  S37  1  0.40729328  0.03885523  0.34656217  1
  S  S38  1  0.24912216  0.53362813  0.34099612  1
  S  S39  1  0.76298651  0.51160834  0.69445949  1
  S  S40  1  0.66497530  0.95764453  0.44749375  1
  S  S41  1  0.33643984  0.90985674  0.56020427  1
