# generated using pymatgen
data_Pr2Mn3(SbS3)4
_symmetry_space_group_name_H-M   'P 1'
_cell_length_a   20.02960800
_cell_length_b   3.90410600
_cell_length_c   14.95364829
_cell_angle_alpha   90.00000000
_cell_angle_beta   126.33350609
_cell_angle_gamma   90.00000000
_symmetry_Int_Tables_number   1
_chemical_formula_structural   Pr2Mn3(SbS3)4
_chemical_formula_sum   'Pr4 Mn6 Sb8 S24'
_cell_volume   942.00006694
_cell_formula_units_Z   2
loop_
 _symmetry_equiv_pos_site_id
 _symmetry_equiv_pos_as_xyz
  1  'x, y, z'
loop_
 _atom_site_type_symbol
 _atom_site_label
 _atom_site_symmetry_multiplicity
 _atom_site_fract_x
 _atom_site_fract_y
 _atom_site_fract_z
 _atom_site_occupancy
  Pr  Pr0  1  0.27691802  0.49905719  0.88349397  1
  Pr  Pr1  1  0.73504765  0.50969139  0.14174683  1
  Pr  Pr2  1  0.76290065  0.06527477  0.87485012  1
  Pr  Pr3  1  0.23467406  0.90536483  0.12283807  1
  Mn  Mn4  1  0.30314811  0.41362121  0.60612361  1
  Mn  Mn5  1  0.69170124  0.48783553  0.35911796  1
  Mn  Mn6  1  0.00725695  0.97122574  0.02121956  1
  Mn  Mn7  1  0.79406797  0.96654950  0.62623615  1
  Mn  Mn8  1  0.21288115  0.05042816  0.39986085  1
  Mn  Mn9  1  0.47320836  0.51639727  0.96669746  1
  Sb  Sb10  1  0.88637423  0.88833595  0.45814238  1
  Sb  Sb11  1  0.11675083  0.97903814  0.54108475  1
  Sb  Sb12  1  0.03661112  0.50400805  0.82515860  1
  Sb  Sb13  1  0.96673952  0.47397494  0.20374343  1
  Sb  Sb14  1  0.41085400  0.58294753  0.46063530  1
  Sb  Sb15  1  0.60174999  0.56072189  0.53487337  1
  Sb  Sb16  1  0.53182633  0.93209844  0.80170619  1
  Sb  Sb17  1  0.46762034  0.97349120  0.18436153  1
  S  S18  1  0.93003098  0.98525441  0.79441371  1
  S  S19  1  0.06048082  0.96503048  0.20412884  1
  S  S20  1  0.41396985  0.00576780  0.98176479  1
  S  S21  1  0.58095849  0.98613370  0.00369861  1
  S  S22  1  0.17127141  0.94423692  0.88880727  1
  S  S23  1  0.82992454  0.03276987  0.11300021  1
  S  S24  1  0.11398750  0.49714749  0.65232496  1
  S  S25  1  0.89178638  0.42421327  0.35185893  1
  S  S26  1  0.73196248  0.98448592  0.31092153  1
  S  S27  1  0.26863360  0.93469617  0.68083064  1
  S  S28  1  0.17807495  0.48764128  0.45643825  1
  S  S29  1  0.81466912  0.49046428  0.54076742  1
  S  S30  1  0.43354317  0.44368823  0.79585725  1
  S  S31  1  0.56335981  0.48931811  0.18914601  1
  S  S32  1  0.91823814  0.51830423  0.99790080  1
  S  S33  1  0.08318243  0.45423733  0.03032703  1
  S  S34  1  0.67849639  0.58554489  0.90970650  1
  S  S35  1  0.33040181  0.42404366  0.10891534  1
  S  S36  1  0.59714244  0.03185505  0.65587414  1
  S  S37  1  0.40747978  0.03955307  0.34661207  1
  S  S38  1  0.24928275  0.53253131  0.34103296  1
  S  S39  1  0.76328761  0.51098077  0.69420020  1
  S  S40  1  0.66486304  0.95731506  0.44742364  1
  S  S41  1  0.33653802  0.91097190  0.56047464  1
