# generated using pymatgen
data_Pr2Mn3(SbS3)4
_symmetry_space_group_name_H-M   'P 1'
_cell_length_a   20.02960800
_cell_length_b   3.90410600
_cell_length_c   14.95364829
_cell_angle_alpha   90.00000000
_cell_angle_beta   126.33350609
_cell_angle_gamma   90.00000000
_symmetry_Int_Tables_number   1
_chemical_formula_structural   Pr2Mn3(SbS3)4
_chemical_formula_sum   'Pr4 Mn6 Sb8 S24'
_cell_volume   942.00006694
_cell_formula_units_Z   2
loop_
 _symmetry_equiv_pos_site_id
 _symmetry_equiv_pos_as_xyz
  1  'x, y, z'
loop_
 _atom_site_type_symbol
 _atom_site_label
 _atom_site_symmetry_multiplicity
 _atom_site_fract_x
 _atom_site_fract_y
 _atom_site_fract_z
 _atom_site_occupancy
  Pr  Pr0  1  0.27686161  0.49909087  0.88352474  1
  Pr  Pr1  1  0.73506380  0.50951442  0.14174244  1
  Pr  Pr2  1  0.76305203  0.06539055  0.87498817  1
  Pr  Pr3  1  0.23463591  0.90599906  0.12293805  1
  Mn  Mn4  1  0.30299494  0.41297727  0.60598316  1
  Mn  Mn5  1  0.69164380  0.48723720  0.35905639  1
  Mn  Mn6  1  0.00709462  0.97130544  0.02134279  1
  Mn  Mn7  1  0.79413365  0.96739144  0.62654676  1
  Mn  Mn8  1  0.21291372  0.05049104  0.39982237  1
  Mn  Mn9  1  0.47313097  0.51563999  0.96664565  1
  Sb  Sb10  1  0.88618084  0.88857062  0.45800103  1
  Sb  Sb11  1  0.11652746  0.97995333  0.54093153  1
  Sb  Sb12  1  0.03651886  0.50373636  0.82503434  1
  Sb  Sb13  1  0.96664576  0.47366168  0.20353817  1
  Sb  Sb14  1  0.41102054  0.58314947  0.46052936  1
  Sb  Sb15  1  0.60173037  0.56084727  0.53495698  1
  Sb  Sb16  1  0.53175373  0.93197274  0.80164227  1
  Sb  Sb17  1  0.46759387  0.97354990  0.18439950  1
  S  S18  1  0.93002703  0.98383289  0.79451282  1
  S  S19  1  0.06052455  0.96452340  0.20395388  1
  S  S20  1  0.41425632  0.00617985  0.98219306  1
  S  S21  1  0.58068351  0.98567016  0.00344295  1
  S  S22  1  0.17109681  0.94321512  0.88886517  1
  S  S23  1  0.82968186  0.03352497  0.11296953  1
  S  S24  1  0.11400016  0.49733526  0.65258460  1
  S  S25  1  0.89163289  0.42483312  0.35150540  1
  S  S26  1  0.73184737  0.98494801  0.31080902  1
  S  S27  1  0.26861064  0.93350664  0.68073276  1
  S  S28  1  0.17795710  0.48723717  0.45647934  1
  S  S29  1  0.81473452  0.48979694  0.54115139  1
  S  S30  1  0.43356600  0.44369976  0.79597556  1
  S  S31  1  0.56357026  0.48965019  0.18916009  1
  S  S32  1  0.91822837  0.51760077  0.99807899  1
  S  S33  1  0.08322301  0.45392655  0.03031164  1
  S  S34  1  0.67837606  0.58622594  0.90980373  1
  S  S35  1  0.33045499  0.42370393  0.10919909  1
  S  S36  1  0.59720374  0.03153162  0.65603606  1
  S  S37  1  0.40771709  0.03995516  0.34663070  1
  S  S38  1  0.24938453  0.53150980  0.34098785  1
  S  S39  1  0.76350733  0.51044264  0.69402150  1
  S  S40  1  0.66459032  0.95723035  0.44714375  1
  S  S41  1  0.33645436  0.91210714  0.56062285  1
