# generated using pymatgen
data_Pr2Mn3(SbS3)4
_symmetry_space_group_name_H-M   'P 1'
_cell_length_a   20.02960800
_cell_length_b   3.90410600
_cell_length_c   14.95364829
_cell_angle_alpha   90.00000000
_cell_angle_beta   126.33350609
_cell_angle_gamma   90.00000000
_symmetry_Int_Tables_number   1
_chemical_formula_structural   Pr2Mn3(SbS3)4
_chemical_formula_sum   'Pr4 Mn6 Sb8 S24'
_cell_volume   942.00006694
_cell_formula_units_Z   2
loop_
 _symmetry_equiv_pos_site_id
 _symmetry_equiv_pos_as_xyz
  1  'x, y, z'
loop_
 _atom_site_type_symbol
 _atom_site_label
 _atom_site_symmetry_multiplicity
 _atom_site_fract_x
 _atom_site_fract_y
 _atom_site_fract_z
 _atom_site_occupancy
  Pr  Pr0  1  0.27683706  0.49886337  0.88360270  1
  Pr  Pr1  1  0.73504234  0.50969734  0.14171402  1
  Pr  Pr2  1  0.76319185  0.06534118  0.87512098  1
  Pr  Pr3  1  0.23462576  0.90640011  0.12302624  1
  Mn  Mn4  1  0.30277635  0.41229201  0.60593384  1
  Mn  Mn5  1  0.69159636  0.48716260  0.35897193  1
  Mn  Mn6  1  0.00701435  0.97112752  0.02153835  1
  Mn  Mn7  1  0.79414290  0.96800396  0.62676800  1
  Mn  Mn8  1  0.21299860  0.05033889  0.39991236  1
  Mn  Mn9  1  0.47298242  0.51484795  0.96660564  1
  Sb  Sb10  1  0.88600772  0.88892055  0.45791020  1
  Sb  Sb11  1  0.11631063  0.98083609  0.54084158  1
  Sb  Sb12  1  0.03644930  0.50343914  0.82499584  1
  Sb  Sb13  1  0.96661713  0.47352343  0.20341485  1
  Sb  Sb14  1  0.41122542  0.58349705  0.46048253  1
  Sb  Sb15  1  0.60168569  0.56082162  0.53502049  1
  Sb  Sb16  1  0.53168430  0.93195628  0.80163300  1
  Sb  Sb17  1  0.46755888  0.97366346  0.18442052  1
  S  S18  1  0.93013453  0.98261234  0.79476489  1
  S  S19  1  0.06061826  0.96407057  0.20391950  1
  S  S20  1  0.41451909  0.00658419  0.98265664  1
  S  S21  1  0.58043107  0.98579716  0.00323427  1
  S  S22  1  0.17092340  0.94248712  0.88887699  1
  S  S23  1  0.82948842  0.03423512  0.11292036  1
  S  S24  1  0.11384478  0.49776808  0.65275118  1
  S  S25  1  0.89144325  0.42516059  0.35132374  1
  S  S26  1  0.73174756  0.98545682  0.31084745  1
  S  S27  1  0.26869606  0.93265008  0.68077210  1
  S  S28  1  0.17784890  0.48686883  0.45651485  1
  S  S29  1  0.81484333  0.48897705  0.54166544  1
  S  S30  1  0.43347008  0.44413600  0.79577427  1
  S  S31  1  0.56384418  0.49088607  0.18922869  1
  S  S32  1  0.91814420  0.51628537  0.99830055  1
  S  S33  1  0.08324209  0.45436159  0.03046112  1
  S  S34  1  0.67837864  0.58650030  0.91006986  1
  S  S35  1  0.33060629  0.42350857  0.10965247  1
  S  S36  1  0.59724643  0.03082718  0.65618454  1
  S  S37  1  0.40789688  0.04036144  0.34660596  1
  S  S38  1  0.24957760  0.53062902  0.34091526  1
  S  S39  1  0.76356197  0.51028438  0.69375947  1
  S  S40  1  0.66439819  0.95672286  0.44707292  1
  S  S41  1  0.33632465  0.91253590  0.56075178  1
