# generated using pymatgen
data_Pr2Mn3(SbS3)4
_symmetry_space_group_name_H-M   'P 1'
_cell_length_a   20.02960800
_cell_length_b   3.90410600
_cell_length_c   14.95364829
_cell_angle_alpha   90.00000000
_cell_angle_beta   126.33350609
_cell_angle_gamma   90.00000000
_symmetry_Int_Tables_number   1
_chemical_formula_structural   Pr2Mn3(SbS3)4
_chemical_formula_sum   'Pr4 Mn6 Sb8 S24'
_cell_volume   942.00006694
_cell_formula_units_Z   2
loop_
 _symmetry_equiv_pos_site_id
 _symmetry_equiv_pos_as_xyz
  1  'x, y, z'
loop_
 _atom_site_type_symbol
 _atom_site_label
 _atom_site_symmetry_multiplicity
 _atom_site_fract_x
 _atom_site_fract_y
 _atom_site_fract_z
 _atom_site_occupancy
  Pr  Pr0  1  0.27686983  0.49868013  0.88367687  1
  Pr  Pr1  1  0.73505368  0.50977965  0.14169600  1
  Pr  Pr2  1  0.76330038  0.06536133  0.87529591  1
  Pr  Pr3  1  0.23462790  0.90682369  0.12303711  1
  Mn  Mn4  1  0.30248062  0.41168759  0.60569179  1
  Mn  Mn5  1  0.69153871  0.48734339  0.35890480  1
  Mn  Mn6  1  0.00695964  0.97088446  0.02167180  1
  Mn  Mn7  1  0.79414848  0.96872703  0.62695809  1
  Mn  Mn8  1  0.21308449  0.04988156  0.39994914  1
  Mn  Mn9  1  0.47288510  0.51408570  0.96667456  1
  Sb  Sb10  1  0.88584998  0.88918194  0.45782024  1
  Sb  Sb11  1  0.11610437  0.98169785  0.54075643  1
  Sb  Sb12  1  0.03643999  0.50323598  0.82502954  1
  Sb  Sb13  1  0.96654753  0.47346343  0.20326788  1
  Sb  Sb14  1  0.41144004  0.58370313  0.46052490  1
  Sb  Sb15  1  0.60161053  0.56084052  0.53510122  1
  Sb  Sb16  1  0.53165547  0.93184428  0.80167241  1
  Sb  Sb17  1  0.46756207  0.97373074  0.18448533  1
  S  S18  1  0.93021144  0.98180728  0.79500641  1
  S  S19  1  0.06055518  0.96438134  0.20361738  1
  S  S20  1  0.41479174  0.00695804  0.98327692  1
  S  S21  1  0.58013879  0.98592584  0.00302902  1
  S  S22  1  0.17075338  0.94187030  0.88888777  1
  S  S23  1  0.82928384  0.03457347  0.11293775  1
  S  S24  1  0.11366372  0.49802072  0.65291409  1
  S  S25  1  0.89128441  0.42536329  0.35116798  1
  S  S26  1  0.73159464  0.98566703  0.31090703  1
  S  S27  1  0.26875891  0.93157566  0.68086719  1
  S  S28  1  0.17774355  0.48671320  0.45649833  1
  S  S29  1  0.81493462  0.48810358  0.54215497  1
  S  S30  1  0.43329737  0.44466573  0.79551026  1
  S  S31  1  0.56407301  0.49208771  0.18932857  1
  S  S32  1  0.91800446  0.51481167  0.99843918  1
  S  S33  1  0.08336342  0.45462127  0.03062123  1
  S  S34  1  0.67837665  0.58660382  0.91035010  1
  S  S35  1  0.33066990  0.42336741  0.11004438  1
  S  S36  1  0.59734003  0.03005955  0.65639600  1
  S  S37  1  0.40809675  0.04095576  0.34663930  1
  S  S38  1  0.24975887  0.52956039  0.34084786  1
  S  S39  1  0.76360887  0.51040380  0.69344651  1
  S  S40  1  0.66421980  0.95629119  0.44698197  1
  S  S41  1  0.33612573  0.91328214  0.56089577  1
