# generated using pymatgen
data_Pr2Mn3(SbS3)4
_symmetry_space_group_name_H-M   'P 1'
_cell_length_a   20.02960800
_cell_length_b   3.90410600
_cell_length_c   14.95364829
_cell_angle_alpha   90.00000000
_cell_angle_beta   126.33350609
_cell_angle_gamma   90.00000000
_symmetry_Int_Tables_number   1
_chemical_formula_structural   Pr2Mn3(SbS3)4
_chemical_formula_sum   'Pr4 Mn6 Sb8 S24'
_cell_volume   942.00006694
_cell_formula_units_Z   2
loop_
 _symmetry_equiv_pos_site_id
 _symmetry_equiv_pos_as_xyz
  1  'x, y, z'
loop_
 _atom_site_type_symbol
 _atom_site_label
 _atom_site_symmetry_multiplicity
 _atom_site_fract_x
 _atom_site_fract_y
 _atom_site_fract_z
 _atom_site_occupancy
  Pr  Pr0  1  0.27690269  0.49843020  0.88365167  1
  Pr  Pr1  1  0.73508211  0.50994299  0.14168255  1
  Pr  Pr2  1  0.76333168  0.06553067  0.87539624  1
  Pr  Pr3  1  0.23466831  0.90712352  0.12307536  1
  Mn  Mn4  1  0.30220370  0.41090120  0.60553584  1
  Mn  Mn5  1  0.69144486  0.48746084  0.35883713  1
  Mn  Mn6  1  0.00688953  0.97060213  0.02173824  1
  Mn  Mn7  1  0.79419378  0.96951437  0.62727032  1
  Mn  Mn8  1  0.21319184  0.04939605  0.40000550  1
  Mn  Mn9  1  0.47278244  0.51350486  0.96682596  1
  Sb  Sb10  1  0.88569866  0.88942200  0.45769136  1
  Sb  Sb11  1  0.11592956  0.98249943  0.54078373  1
  Sb  Sb12  1  0.03639811  0.50286325  0.82502472  1
  Sb  Sb13  1  0.96649468  0.47345914  0.20319982  1
  Sb  Sb14  1  0.41163585  0.58363876  0.46053830  1
  Sb  Sb15  1  0.60144205  0.56089933  0.53502634  1
  Sb  Sb16  1  0.53165562  0.93178444  0.80180274  1
  Sb  Sb17  1  0.46755846  0.97364219  0.18454624  1
  S  S18  1  0.93020547  0.98065881  0.79522519  1
  S  S19  1  0.06055918  0.96480847  0.20339016  1
  S  S20  1  0.41515924  0.00751086  0.98396233  1
  S  S21  1  0.57978239  0.98626987  0.00273414  1
  S  S22  1  0.17049671  0.94089861  0.88878828  1
  S  S23  1  0.82905799  0.03505085  0.11288397  1
  S  S24  1  0.11340293  0.49850036  0.65304441  1
  S  S25  1  0.89101626  0.42558291  0.35075532  1
  S  S26  1  0.73157069  0.98579356  0.31088633  1
  S  S27  1  0.26885720  0.93050990  0.68095610  1
  S  S28  1  0.17762656  0.48647480  0.45643003  1
  S  S29  1  0.81494724  0.48705414  0.54245156  1
  S  S30  1  0.43317454  0.44502532  0.79534893  1
  S  S31  1  0.56425706  0.49320379  0.18948649  1
  S  S32  1  0.91779310  0.51362828  0.99850524  1
  S  S33  1  0.08354832  0.45440295  0.03081819  1
  S  S34  1  0.67832314  0.58678459  0.91048916  1
  S  S35  1  0.33069918  0.42327287  0.11026547  1
  S  S36  1  0.59747837  0.02936557  0.65674070  1
  S  S37  1  0.40818873  0.04161060  0.34664925  1
  S  S38  1  0.24989304  0.52884290  0.34074249  1
  S  S39  1  0.76364803  0.51048451  0.69310141  1
  S  S40  1  0.66406116  0.95567072  0.44683953  1
  S  S41  1  0.33581377  0.91410484  0.56094116  1
