# generated using pymatgen
data_Pr2Mn3(SbS3)4
_symmetry_space_group_name_H-M   'P 1'
_cell_length_a   20.02960800
_cell_length_b   3.90410600
_cell_length_c   14.95364829
_cell_angle_alpha   90.00000000
_cell_angle_beta   126.33350609
_cell_angle_gamma   90.00000000
_symmetry_Int_Tables_number   1
_chemical_formula_structural   Pr2Mn3(SbS3)4
_chemical_formula_sum   'Pr4 Mn6 Sb8 S24'
_cell_volume   942.00006694
_cell_formula_units_Z   2
loop_
 _symmetry_equiv_pos_site_id
 _symmetry_equiv_pos_as_xyz
  1  'x, y, z'
loop_
 _atom_site_type_symbol
 _atom_site_label
 _atom_site_symmetry_multiplicity
 _atom_site_fract_x
 _atom_site_fract_y
 _atom_site_fract_z
 _atom_site_occupancy
  Pr  Pr0  1  0.27694915  0.49785780  0.88362036  1
  Pr  Pr1  1  0.73506953  0.50998707  0.14162808  1
  Pr  Pr2  1  0.76342228  0.06567797  0.87550802  1
  Pr  Pr3  1  0.23466703  0.90754582  0.12307380  1
  Mn  Mn4  1  0.30195684  0.41046377  0.60536817  1
  Mn  Mn5  1  0.69134548  0.48712778  0.35880581  1
  Mn  Mn6  1  0.00680445  0.97015089  0.02188043  1
  Mn  Mn7  1  0.79430672  0.97024793  0.62762816  1
  Mn  Mn8  1  0.21328119  0.04890571  0.40010358  1
  Mn  Mn9  1  0.47272519  0.51301582  0.96704740  1
  Sb  Sb10  1  0.88554609  0.88966950  0.45760143  1
  Sb  Sb11  1  0.11580170  0.98321634  0.54083878  1
  Sb  Sb12  1  0.03636693  0.50248898  0.82510136  1
  Sb  Sb13  1  0.96645015  0.47327432  0.20316056  1
  Sb  Sb14  1  0.41190188  0.58384985  0.46069858  1
  Sb  Sb15  1  0.60129210  0.56112259  0.53483356  1
  Sb  Sb16  1  0.53168649  0.93192221  0.80191537  1
  Sb  Sb17  1  0.46757548  0.97333490  0.18458796  1
  S  S18  1  0.93022377  0.97967608  0.79556561  1
  S  S19  1  0.06064123  0.96548679  0.20319590  1
  S  S20  1  0.41544224  0.00749274  0.98467563  1
  S  S21  1  0.57947971  0.98643023  0.00245288  1
  S  S22  1  0.17043271  0.94028377  0.88882910  1
  S  S23  1  0.82891616  0.03558417  0.11280368  1
  S  S24  1  0.11309695  0.49921579  0.65312844  1
  S  S25  1  0.89079925  0.42547477  0.35026094  1
  S  S26  1  0.73154768  0.98607234  0.31088601  1
  S  S27  1  0.26900612  0.93008487  0.68110223  1
  S  S28  1  0.17751762  0.48625764  0.45627717  1
  S  S29  1  0.81486741  0.48644219  0.54266757  1
  S  S30  1  0.43302490  0.44564643  0.79531260  1
  S  S31  1  0.56439340  0.49424180  0.18963825  1
  S  S32  1  0.91753519  0.51294265  0.99851536  1
  S  S33  1  0.08359882  0.45461445  0.03085274  1
  S  S34  1  0.67830445  0.58675221  0.91065827  1
  S  S35  1  0.33080031  0.42338328  0.11047743  1
  S  S36  1  0.59758785  0.02840011  0.65710402  1
  S  S37  1  0.40816825  0.04183503  0.34649849  1
  S  S38  1  0.24995275  0.52842275  0.34054880  1
  S  S39  1  0.76370031  0.51060087  0.69289499  1
  S  S40  1  0.66398807  0.95525196  0.44694141  1
  S  S41  1  0.33546750  0.91471512  0.56095214  1
