# generated using pymatgen
data_Pr2Mn3(SbS3)4
_symmetry_space_group_name_H-M   'P 1'
_cell_length_a   20.02960800
_cell_length_b   3.90410600
_cell_length_c   14.95364829
_cell_angle_alpha   90.00000000
_cell_angle_beta   126.33350609
_cell_angle_gamma   90.00000000
_symmetry_Int_Tables_number   1
_chemical_formula_structural   Pr2Mn3(SbS3)4
_chemical_formula_sum   'Pr4 Mn6 Sb8 S24'
_cell_volume   942.00006694
_cell_formula_units_Z   2
loop_
 _symmetry_equiv_pos_site_id
 _symmetry_equiv_pos_as_xyz
  1  'x, y, z'
loop_
 _atom_site_type_symbol
 _atom_site_label
 _atom_site_symmetry_multiplicity
 _atom_site_fract_x
 _atom_site_fract_y
 _atom_site_fract_z
 _atom_site_occupancy
  Pr  Pr0  1  0.27697091  0.49747881  0.88355252  1
  Pr  Pr1  1  0.73506756  0.51015129  0.14151958  1
  Pr  Pr2  1  0.76343582  0.06553486  0.87562042  1
  Pr  Pr3  1  0.23460816  0.90790046  0.12302142  1
  Mn  Mn4  1  0.30159113  0.40982844  0.60517936  1
  Mn  Mn5  1  0.69118532  0.48681139  0.35864268  1
  Mn  Mn6  1  0.00675757  0.96999647  0.02212194  1
  Mn  Mn7  1  0.79430680  0.97097274  0.62795994  1
  Mn  Mn8  1  0.21339611  0.04837491  0.40016514  1
  Mn  Mn9  1  0.47264122  0.51231986  0.96715845  1
  Sb  Sb10  1  0.88539454  0.88981624  0.45755062  1
  Sb  Sb11  1  0.11566758  0.98391749  0.54091954  1
  Sb  Sb12  1  0.03625030  0.50217288  0.82505910  1
  Sb  Sb13  1  0.96640856  0.47308040  0.20309388  1
  Sb  Sb14  1  0.41217767  0.58375954  0.46081418  1
  Sb  Sb15  1  0.60115805  0.56113739  0.53465962  1
  Sb  Sb16  1  0.53168218  0.93205000  0.80202672  1
  Sb  Sb17  1  0.46760077  0.97305911  0.18459002  1
  S  S18  1  0.93028713  0.97900810  0.79599478  1
  S  S19  1  0.06075703  0.96563151  0.20305767  1
  S  S20  1  0.41570841  0.00699415  0.98535094  1
  S  S21  1  0.57925818  0.98673042  0.00230056  1
  S  S22  1  0.17033916  0.93973047  0.88894797  1
  S  S23  1  0.82874858  0.03622866  0.11281380  1
  S  S24  1  0.11275769  0.49998807  0.65332834  1
  S  S25  1  0.89062278  0.42532822  0.34988427  1
  S  S26  1  0.73148405  0.98632057  0.31083296  1
  S  S27  1  0.26911006  0.93008622  0.68125462  1
  S  S28  1  0.17730793  0.48597954  0.45608241  1
  S  S29  1  0.81481508  0.48577032  0.54277445  1
  S  S30  1  0.43305139  0.44657295  0.79541950  1
  S  S31  1  0.56452963  0.49512937  0.18969111  1
  S  S32  1  0.91754805  0.51230897  0.99868868  1
  S  S33  1  0.08361948  0.45497349  0.03092493  1
  S  S34  1  0.67827470  0.58683992  0.91085408  1
  S  S35  1  0.33084363  0.42416514  0.11068204  1
  S  S36  1  0.59780847  0.02749906  0.65762902  1
  S  S37  1  0.40820822  0.04213924  0.34640652  1
  S  S38  1  0.25014280  0.52868911  0.34044709  1
  S  S39  1  0.76369665  0.51078404  0.69277834  1
  S  S40  1  0.66392107  0.95487613  0.44694076  1
  S  S41  1  0.33508868  0.91467496  0.56081979  1
