# generated using pymatgen
data_Pr2Mn3(SbS3)4
_symmetry_space_group_name_H-M   'P 1'
_cell_length_a   20.02960800
_cell_length_b   3.90410600
_cell_length_c   14.95364829
_cell_angle_alpha   90.00000000
_cell_angle_beta   126.33350609
_cell_angle_gamma   90.00000000
_symmetry_Int_Tables_number   1
_chemical_formula_structural   Pr2Mn3(SbS3)4
_chemical_formula_sum   'Pr4 Mn6 Sb8 S24'
_cell_volume   942.00006694
_cell_formula_units_Z   2
loop_
 _symmetry_equiv_pos_site_id
 _symmetry_equiv_pos_as_xyz
  1  'x, y, z'
loop_
 _atom_site_type_symbol
 _atom_site_label
 _atom_site_symmetry_multiplicity
 _atom_site_fract_x
 _atom_site_fract_y
 _atom_site_fract_z
 _atom_site_occupancy
  Pr  Pr0  1  0.26447219  0.47210818  0.86904189  1
  Pr  Pr1  1  0.73778581  0.52106937  0.13775180  1
  Pr  Pr2  1  0.76418494  0.01302300  0.86473491  1
  Pr  Pr3  1  0.23673223  0.00489322  0.13859118  1
  Mn  Mn4  1  0.29249980  0.48763118  0.60247240  1
  Mn  Mn5  1  0.69416910  0.52442399  0.38050257  1
  Mn  Mn6  1  0.00663919  0.99517151  0.00685940  1
  Mn  Mn7  1  0.80292977  0.00344910  0.61434819  1
  Mn  Mn8  1  0.19498139  0.97163060  0.37738976  1
  Mn  Mn9  1  0.49993764  0.45972155  0.99095326  1
  Sb  Sb10  1  0.89010551  0.99546054  0.45270570  1
  Sb  Sb11  1  0.11181154  0.96465345  0.55125650  1
  Sb  Sb12  1  0.03961277  0.51511457  0.81798509  1
  Sb  Sb13  1  0.96317458  0.51266906  0.18597283  1
  Sb  Sb14  1  0.39741472  0.50520180  0.45645936  1
  Sb  Sb15  1  0.60643774  0.48451538  0.54687056  1
  Sb  Sb16  1  0.53388134  0.00999282  0.81149051  1
  Sb  Sb17  1  0.46197095  0.01112779  0.18289153  1
  S  S18  1  0.93633975  0.98413733  0.80517945  1
  S  S19  1  0.06537972  0.97366341  0.18528272  1
  S  S20  1  0.41081965  0.01188836  0.97935688  1
  S  S21  1  0.59179593  0.99737320  0.02466658  1
  S  S22  1  0.17225321  0.98863749  0.89418707  1
  S  S23  1  0.82508182  0.01884817  0.09516355  1
  S  S24  1  0.08727538  0.47307373  0.64489593  1
  S  S25  1  0.90965443  0.47458558  0.35552044  1
  S  S26  1  0.73958200  0.95906102  0.29721180  1
  S  S27  1  0.25857838  0.99651843  0.70495934  1
  S  S28  1  0.17124250  0.48548115  0.44486141  1
  S  S29  1  0.82850278  0.49076986  0.55013178  1
  S  S30  1  0.43337527  0.49977733  0.79691645  1
  S  S31  1  0.56117385  0.51069433  0.18293740  1
  S  S32  1  0.91441282  0.50357591  0.99496549  1
  S  S33  1  0.08199827  0.49767399  0.01344353  1
  S  S34  1  0.66568093  0.48405214  0.88775007  1
  S  S35  1  0.32653173  0.51157949  0.09130448  1
  S  S36  1  0.59426051  0.00274822  0.65852312  1
  S  S37  1  0.40688805  0.97248037  0.34642902  1
  S  S38  1  0.24580511  0.45405313  0.31127835  1
  S  S39  1  0.76189663  0.50341291  0.70085221  1
  S  S40  1  0.67650593  0.02150792  0.46083225  1
  S  S41  1  0.32706658  0.98115499  0.54368488  1
