# generated using pymatgen
data_Pr2Mn3(SbS3)4
_symmetry_space_group_name_H-M   'P 1'
_cell_length_a   20.02960800
_cell_length_b   3.90410600
_cell_length_c   14.95364829
_cell_angle_alpha   90.00000000
_cell_angle_beta   126.33350609
_cell_angle_gamma   90.00000000
_symmetry_Int_Tables_number   1
_chemical_formula_structural   Pr2Mn3(SbS3)4
_chemical_formula_sum   'Pr4 Mn6 Sb8 S24'
_cell_volume   942.00006694
_cell_formula_units_Z   2
loop_
 _symmetry_equiv_pos_site_id
 _symmetry_equiv_pos_as_xyz
  1  'x, y, z'
loop_
 _atom_site_type_symbol
 _atom_site_label
 _atom_site_symmetry_multiplicity
 _atom_site_fract_x
 _atom_site_fract_y
 _atom_site_fract_z
 _atom_site_occupancy
  Pr  Pr0  1  0.27701468  0.49709933  0.88350877  1
  Pr  Pr1  1  0.73511997  0.51015017  0.14151952  1
  Pr  Pr2  1  0.76347285  0.06517258  0.87576042  1
  Pr  Pr3  1  0.23451498  0.90829335  0.12300180  1
  Mn  Mn4  1  0.30126783  0.40919165  0.60498602  1
  Mn  Mn5  1  0.69097759  0.48619447  0.35864155  1
  Mn  Mn6  1  0.00671414  0.97001676  0.02236615  1
  Mn  Mn7  1  0.79431092  0.97189842  0.62825342  1
  Mn  Mn8  1  0.21351504  0.04818730  0.40026133  1
  Mn  Mn9  1  0.47259889  0.51161432  0.96730018  1
  Sb  Sb10  1  0.88524654  0.88984978  0.45744930  1
  Sb  Sb11  1  0.11550110  0.98445093  0.54096570  1
  Sb  Sb12  1  0.03611926  0.50192823  0.82500599  1
  Sb  Sb13  1  0.96637439  0.47281834  0.20310727  1
  Sb  Sb14  1  0.41241372  0.58367940  0.46092024  1
  Sb  Sb15  1  0.60104040  0.56144808  0.53451827  1
  Sb  Sb16  1  0.53171865  0.93227228  0.80219337  1
  Sb  Sb17  1  0.46760547  0.97280216  0.18461690  1
  S  S18  1  0.93042031  0.97854386  0.79648507  1
  S  S19  1  0.06069774  0.96614969  0.20288703  1
  S  S20  1  0.41589417  0.00677161  0.98592178  1
  S  S21  1  0.57902956  0.98703356  0.00210266  1
  S  S22  1  0.17031400  0.93903767  0.88914668  1
  S  S23  1  0.82860401  0.03647021  0.11287483  1
  S  S24  1  0.11247621  0.50043203  0.65359723  1
  S  S25  1  0.89054328  0.42485692  0.34954949  1
  S  S26  1  0.73142891  0.98628477  0.31083740  1
  S  S27  1  0.26915335  0.92969617  0.68123309  1
  S  S28  1  0.17702893  0.48557112  0.45579951  1
  S  S29  1  0.81493696  0.48548036  0.54301038  1
  S  S30  1  0.43307795  0.44762310  0.79549261  1
  S  S31  1  0.56463039  0.49581097  0.18980942  1
  S  S32  1  0.91762518  0.51164941  0.99889426  1
  S  S33  1  0.08359473  0.45495525  0.03101784  1
  S  S34  1  0.67829528  0.58692605  0.91119278  1
  S  S35  1  0.33085846  0.42523170  0.11087212  1
  S  S36  1  0.59792026  0.02692142  0.65810098  1
  S  S37  1  0.40833656  0.04263967  0.34655315  1
  S  S38  1  0.25022743  0.52877009  0.34028924  1
  S  S39  1  0.76370589  0.51091733  0.69254583  1
  S  S40  1  0.66396280  0.95429074  0.44702855  1
  S  S41  1  0.33457226  0.91493475  0.56052180  1
