# generated using pymatgen
data_Pr2Mn3(SbS3)4
_symmetry_space_group_name_H-M   'P 1'
_cell_length_a   20.02960800
_cell_length_b   3.90410600
_cell_length_c   14.95364829
_cell_angle_alpha   90.00000000
_cell_angle_beta   126.33350609
_cell_angle_gamma   90.00000000
_symmetry_Int_Tables_number   1
_chemical_formula_structural   Pr2Mn3(SbS3)4
_chemical_formula_sum   'Pr4 Mn6 Sb8 S24'
_cell_volume   942.00006694
_cell_formula_units_Z   2
loop_
 _symmetry_equiv_pos_site_id
 _symmetry_equiv_pos_as_xyz
  1  'x, y, z'
loop_
 _atom_site_type_symbol
 _atom_site_label
 _atom_site_symmetry_multiplicity
 _atom_site_fract_x
 _atom_site_fract_y
 _atom_site_fract_z
 _atom_site_occupancy
  Pr  Pr0  1  0.27703651  0.49684231  0.88342867  1
  Pr  Pr1  1  0.73511342  0.51027487  0.14150501  1
  Pr  Pr2  1  0.76352731  0.06479210  0.87594573  1
  Pr  Pr3  1  0.23447551  0.90889287  0.12304147  1
  Mn  Mn4  1  0.30100137  0.40859107  0.60486432  1
  Mn  Mn5  1  0.69081104  0.48592968  0.35867319  1
  Mn  Mn6  1  0.00673662  0.96989322  0.02265316  1
  Mn  Mn7  1  0.79439747  0.97285185  0.62860830  1
  Mn  Mn8  1  0.21364306  0.04820714  0.40030351  1
  Mn  Mn9  1  0.47255926  0.51131314  0.96750016  1
  Sb  Sb10  1  0.88509174  0.88974773  0.45735242  1
  Sb  Sb11  1  0.11541763  0.98479587  0.54101201  1
  Sb  Sb12  1  0.03595460  0.50178808  0.82489389  1
  Sb  Sb13  1  0.96631820  0.47265513  0.20303298  1
  Sb  Sb14  1  0.41257490  0.58326573  0.46099039  1
  Sb  Sb15  1  0.60093553  0.56164169  0.53436774  1
  Sb  Sb16  1  0.53177947  0.93238326  0.80234449  1
  Sb  Sb17  1  0.46762795  0.97243212  0.18459571  1
  S  S18  1  0.93053180  0.97804820  0.79679082  1
  S  S19  1  0.06072919  0.96660318  0.20279042  1
  S  S20  1  0.41604658  0.00650863  0.98639109  1
  S  S21  1  0.57877266  0.98755336  0.00194965  1
  S  S22  1  0.17013204  0.93853460  0.88922265  1
  S  S23  1  0.82832720  0.03667433  0.11272658  1
  S  S24  1  0.11229040  0.50116340  0.65406156  1
  S  S25  1  0.89054482  0.42469386  0.34919140  1
  S  S26  1  0.73135576  0.98579835  0.31071073  1
  S  S27  1  0.26915338  0.92922821  0.68128292  1
  S  S28  1  0.17679444  0.48511766  0.45550847  1
  S  S29  1  0.81510620  0.48565493  0.54327558  1
  S  S30  1  0.43302161  0.44856406  0.79557824  1
  S  S31  1  0.56482268  0.49633821  0.18995384  1
  S  S32  1  0.91765841  0.51144462  0.99911428  1
  S  S33  1  0.08355007  0.45531802  0.03112347  1
  S  S34  1  0.67835644  0.58678495  0.91159310  1
  S  S35  1  0.33091167  0.42666994  0.11114914  1
  S  S36  1  0.59806999  0.02585507  0.65854540  1
  S  S37  1  0.40834570  0.04259698  0.34646474  1
  S  S38  1  0.25019059  0.52843783  0.34003957  1
  S  S39  1  0.76379180  0.51134001  0.69235634  1
  S  S40  1  0.66404764  0.95396284  0.44727325  1
  S  S41  1  0.33414574  0.91501258  0.56030338  1
