# generated using pymatgen
data_Pr2Mn3(SbS3)4
_symmetry_space_group_name_H-M   'P 1'
_cell_length_a   20.02960800
_cell_length_b   3.90410600
_cell_length_c   14.95364829
_cell_angle_alpha   90.00000000
_cell_angle_beta   126.33350609
_cell_angle_gamma   90.00000000
_symmetry_Int_Tables_number   1
_chemical_formula_structural   Pr2Mn3(SbS3)4
_chemical_formula_sum   'Pr4 Mn6 Sb8 S24'
_cell_volume   942.00006694
_cell_formula_units_Z   2
loop_
 _symmetry_equiv_pos_site_id
 _symmetry_equiv_pos_as_xyz
  1  'x, y, z'
loop_
 _atom_site_type_symbol
 _atom_site_label
 _atom_site_symmetry_multiplicity
 _atom_site_fract_x
 _atom_site_fract_y
 _atom_site_fract_z
 _atom_site_occupancy
  Pr  Pr0  1  0.27710510  0.49653853  0.88338566  1
  Pr  Pr1  1  0.73505069  0.51023050  0.14142154  1
  Pr  Pr2  1  0.76361025  0.06451482  0.87610178  1
  Pr  Pr3  1  0.23438648  0.90953792  0.12296496  1
  Mn  Mn4  1  0.30075630  0.40795691  0.60476483  1
  Mn  Mn5  1  0.69070108  0.48570843  0.35871913  1
  Mn  Mn6  1  0.00682226  0.96954752  0.02279079  1
  Mn  Mn7  1  0.79444862  0.97362303  0.62901321  1
  Mn  Mn8  1  0.21376863  0.04828807  0.40029095  1
  Mn  Mn9  1  0.47259602  0.51074899  0.96769739  1
  Sb  Sb10  1  0.88493353  0.88965877  0.45731758  1
  Sb  Sb11  1  0.11529622  0.98508012  0.54107232  1
  Sb  Sb12  1  0.03582860  0.50159549  0.82487221  1
  Sb  Sb13  1  0.96627187  0.47257872  0.20290760  1
  Sb  Sb14  1  0.41268742  0.58317991  0.46097727  1
  Sb  Sb15  1  0.60086340  0.56169496  0.53423795  1
  Sb  Sb16  1  0.53192107  0.93256394  0.80256494  1
  Sb  Sb17  1  0.46766062  0.97200325  0.18455115  1
  S  S18  1  0.93062606  0.97763147  0.79705786  1
  S  S19  1  0.06064566  0.96707077  0.20267539  1
  S  S20  1  0.41621127  0.00659700  0.98689768  1
  S  S21  1  0.57851601  0.98783207  0.00190542  1
  S  S22  1  0.17000320  0.93785271  0.88929566  1
  S  S23  1  0.82811665  0.03719488  0.11270639  1
  S  S24  1  0.11205657  0.50132127  0.65446422  1
  S  S25  1  0.89066561  0.42480828  0.34904853  1
  S  S26  1  0.73132865  0.98568266  0.31064248  1
  S  S27  1  0.26904181  0.92854407  0.68112686  1
  S  S28  1  0.17662410  0.48468759  0.45532959  1
  S  S29  1  0.81520611  0.48589855  0.54338760  1
  S  S30  1  0.43295466  0.44912856  0.79574692  1
  S  S31  1  0.56498730  0.49666727  0.19011064  1
  S  S32  1  0.91776762  0.51134235  0.99945880  1
  S  S33  1  0.08352132  0.45591007  0.03117576  1
  S  S34  1  0.67832179  0.58641522  0.91194341  1
  S  S35  1  0.33078389  0.42842049  0.11110037  1
  S  S36  1  0.59823265  0.02494927  0.65909642  1
  S  S37  1  0.40829513  0.04265796  0.34630746  1
  S  S38  1  0.25022684  0.52834112  0.33981684  1
  S  S39  1  0.76377764  0.51133018  0.69203066  1
  S  S40  1  0.66405833  0.95406110  0.44738128  1
  S  S41  1  0.33378455  0.91519925  0.56013018  1
