# generated using pymatgen
data_Pr2Mn3(SbS3)4
_symmetry_space_group_name_H-M   'P 1'
_cell_length_a   20.02960800
_cell_length_b   3.90410600
_cell_length_c   14.95364829
_cell_angle_alpha   90.00000000
_cell_angle_beta   126.33350609
_cell_angle_gamma   90.00000000
_symmetry_Int_Tables_number   1
_chemical_formula_structural   Pr2Mn3(SbS3)4
_chemical_formula_sum   'Pr4 Mn6 Sb8 S24'
_cell_volume   942.00006694
_cell_formula_units_Z   2
loop_
 _symmetry_equiv_pos_site_id
 _symmetry_equiv_pos_as_xyz
  1  'x, y, z'
loop_
 _atom_site_type_symbol
 _atom_site_label
 _atom_site_symmetry_multiplicity
 _atom_site_fract_x
 _atom_site_fract_y
 _atom_site_fract_z
 _atom_site_occupancy
  Pr  Pr0  1  0.27716360  0.49644426  0.88332736  1
  Pr  Pr1  1  0.73499130  0.51016061  0.14130234  1
  Pr  Pr2  1  0.76366758  0.06416354  0.87621281  1
  Pr  Pr3  1  0.23432527  0.90992024  0.12288395  1
  Mn  Mn4  1  0.30060829  0.40782934  0.60471141  1
  Mn  Mn5  1  0.69070036  0.48507138  0.35881285  1
  Mn  Mn6  1  0.00684865  0.96950774  0.02296040  1
  Mn  Mn7  1  0.79449442  0.97448362  0.62938725  1
  Mn  Mn8  1  0.21385212  0.04844661  0.40028275  1
  Mn  Mn9  1  0.47270241  0.51000725  0.96798596  1
  Sb  Sb10  1  0.88471107  0.88953471  0.45723652  1
  Sb  Sb11  1  0.11508638  0.98531435  0.54105932  1
  Sb  Sb12  1  0.03569085  0.50107490  0.82484727  1
  Sb  Sb13  1  0.96620670  0.47208829  0.20279989  1
  Sb  Sb14  1  0.41280956  0.58302417  0.46099748  1
  Sb  Sb15  1  0.60084004  0.56200825  0.53416431  1
  Sb  Sb16  1  0.53201033  0.93265495  0.80276566  1
  Sb  Sb17  1  0.46770834  0.97149889  0.18453128  1
  S  S18  1  0.93076363  0.97701869  0.79739978  1
  S  S19  1  0.06050615  0.96804932  0.20241068  1
  S  S20  1  0.41628305  0.00679454  0.98727865  1
  S  S21  1  0.57842367  0.98848137  0.00204961  1
  S  S22  1  0.16998202  0.93745992  0.88950090  1
  S  S23  1  0.82793686  0.03800264  0.11266874  1
  S  S24  1  0.11182318  0.50087386  0.65481404  1
  S  S25  1  0.89094347  0.42493918  0.34914528  1
  S  S26  1  0.73129869  0.98519044  0.31052018  1
  S  S27  1  0.26885537  0.92776261  0.68106138  1
  S  S28  1  0.17641834  0.48403700  0.45512326  1
  S  S29  1  0.81518236  0.48625186  0.54347507  1
  S  S30  1  0.43284392  0.45014983  0.79587489  1
  S  S31  1  0.56516453  0.49680383  0.19032536  1
  S  S32  1  0.91778993  0.51119952  0.99977304  1
  S  S33  1  0.08346779  0.45620394  0.03112970  1
  S  S34  1  0.67830080  0.58549402  0.91218839  1
  S  S35  1  0.33062492  0.42991780  0.11101385  1
  S  S36  1  0.59833891  0.02415554  0.65955955  1
  S  S37  1  0.40826958  0.04278427  0.34612548  1
  S  S38  1  0.25033626  0.52831959  0.33961026  1
  S  S39  1  0.76376954  0.51143903  0.69177082  1
  S  S40  1  0.66403090  0.95417529  0.44757203  1
  S  S41  1  0.33342292  0.91560310  0.55990791  1
