# generated using pymatgen
data_Pr2Mn3(SbS3)4
_symmetry_space_group_name_H-M   'P 1'
_cell_length_a   20.02960800
_cell_length_b   3.90410600
_cell_length_c   14.95364829
_cell_angle_alpha   90.00000000
_cell_angle_beta   126.33350609
_cell_angle_gamma   90.00000000
_symmetry_Int_Tables_number   1
_chemical_formula_structural   Pr2Mn3(SbS3)4
_chemical_formula_sum   'Pr4 Mn6 Sb8 S24'
_cell_volume   942.00006694
_cell_formula_units_Z   2
loop_
 _symmetry_equiv_pos_site_id
 _symmetry_equiv_pos_as_xyz
  1  'x, y, z'
loop_
 _atom_site_type_symbol
 _atom_site_label
 _atom_site_symmetry_multiplicity
 _atom_site_fract_x
 _atom_site_fract_y
 _atom_site_fract_z
 _atom_site_occupancy
  Pr  Pr0  1  0.27719009  0.49603799  0.88326280  1
  Pr  Pr1  1  0.73489676  0.51018140  0.14114788  1
  Pr  Pr2  1  0.76370049  0.06378155  0.87625260  1
  Pr  Pr3  1  0.23433565  0.91010680  0.12287629  1
  Mn  Mn4  1  0.30048671  0.40817919  0.60468655  1
  Mn  Mn5  1  0.69071923  0.48430659  0.35878722  1
  Mn  Mn6  1  0.00688403  0.96954087  0.02302235  1
  Mn  Mn7  1  0.79457072  0.97511148  0.62976108  1
  Mn  Mn8  1  0.21399931  0.04892884  0.40027122  1
  Mn  Mn9  1  0.47274771  0.50910396  0.96822351  1
  Sb  Sb10  1  0.88453983  0.88936775  0.45717067  1
  Sb  Sb11  1  0.11486569  0.98541961  0.54104888  1
  Sb  Sb12  1  0.03554544  0.50043849  0.82480029  1
  Sb  Sb13  1  0.96615049  0.47152798  0.20271478  1
  Sb  Sb14  1  0.41297291  0.58298969  0.46113622  1
  Sb  Sb15  1  0.60081326  0.56232511  0.53413884  1
  Sb  Sb16  1  0.53211545  0.93268786  0.80301072  1
  Sb  Sb17  1  0.46779786  0.97072747  0.18447789  1
  S  S18  1  0.93089106  0.97630031  0.79782379  1
  S  S19  1  0.06037782  0.96898794  0.20217494  1
  S  S20  1  0.41640151  0.00696768  0.98767350  1
  S  S21  1  0.57832961  0.98867633  0.00212673  1
  S  S22  1  0.16992740  0.93710993  0.88969013  1
  S  S23  1  0.82780984  0.03838478  0.11255110  1
  S  S24  1  0.11155296  0.50024215  0.65509575  1
  S  S25  1  0.89122711  0.42483688  0.34920685  1
  S  S26  1  0.73125513  0.98439046  0.31044727  1
  S  S27  1  0.26864750  0.92642483  0.68093409  1
  S  S28  1  0.17610496  0.48378824  0.45481441  1
  S  S29  1  0.81521345  0.48662583  0.54355328  1
  S  S30  1  0.43263442  0.45122132  0.79583512  1
  S  S31  1  0.56521046  0.49697338  0.19052184  1
  S  S32  1  0.91781731  0.51119854  0.00003885  1
  S  S33  1  0.08343082  0.45668981  0.03121067  1
  S  S34  1  0.67818706  0.58413107  0.91234812  1
  S  S35  1  0.33064499  0.43097604  0.11114566  1
  S  S36  1  0.59841294  0.02373633  0.66005890  1
  S  S37  1  0.40825738  0.04343197  0.34595974  1
  S  S38  1  0.25044601  0.52849509  0.33937410  1
  S  S39  1  0.76389288  0.51139065  0.69154550  1
  S  S40  1  0.66415724  0.95446982  0.44788679  1
  S  S41  1  0.33309747  0.91624765  0.55972113  1
