# generated using pymatgen
data_Pr2Mn3(SbS3)4
_symmetry_space_group_name_H-M   'P 1'
_cell_length_a   20.02960800
_cell_length_b   3.90410600
_cell_length_c   14.95364829
_cell_angle_alpha   90.00000000
_cell_angle_beta   126.33350609
_cell_angle_gamma   90.00000000
_symmetry_Int_Tables_number   1
_chemical_formula_structural   Pr2Mn3(SbS3)4
_chemical_formula_sum   'Pr4 Mn6 Sb8 S24'
_cell_volume   942.00006694
_cell_formula_units_Z   2
loop_
 _symmetry_equiv_pos_site_id
 _symmetry_equiv_pos_as_xyz
  1  'x, y, z'
loop_
 _atom_site_type_symbol
 _atom_site_label
 _atom_site_symmetry_multiplicity
 _atom_site_fract_x
 _atom_site_fract_y
 _atom_site_fract_z
 _atom_site_occupancy
  Pr  Pr0  1  0.27724134  0.49538509  0.88324172  1
  Pr  Pr1  1  0.73481850  0.51004099  0.14098241  1
  Pr  Pr2  1  0.76376228  0.06326138  0.87629996  1
  Pr  Pr3  1  0.23436072  0.91044910  0.12292627  1
  Mn  Mn4  1  0.30031386  0.40832188  0.60463092  1
  Mn  Mn5  1  0.69061911  0.48355604  0.35867739  1
  Mn  Mn6  1  0.00680704  0.96960493  0.02295055  1
  Mn  Mn7  1  0.79471171  0.97575390  0.63021508  1
  Mn  Mn8  1  0.21413112  0.04927746  0.40024606  1
  Mn  Mn9  1  0.47279406  0.50814348  0.96833276  1
  Sb  Sb10  1  0.88436669  0.88891622  0.45707524  1
  Sb  Sb11  1  0.11466348  0.98550359  0.54098574  1
  Sb  Sb12  1  0.03539153  0.49987685  0.82475625  1
  Sb  Sb13  1  0.96613738  0.47131718  0.20256892  1
  Sb  Sb14  1  0.41311805  0.58267895  0.46132544  1
  Sb  Sb15  1  0.60080657  0.56261746  0.53415236  1
  Sb  Sb16  1  0.53219510  0.93292276  0.80322192  1
  Sb  Sb17  1  0.46789010  0.97002567  0.18439724  1
  S  S18  1  0.93110317  0.97548719  0.79839141  1
  S  S19  1  0.06025461  0.97004808  0.20204002  1
  S  S20  1  0.41643092  0.00718114  0.98793394  1
  S  S21  1  0.57829800  0.98842182  0.00223894  1
  S  S22  1  0.16992010  0.93662547  0.88985500  1
  S  S23  1  0.82764523  0.03890926  0.11258970  1
  S  S24  1  0.11129319  0.49913939  0.65534014  1
  S  S25  1  0.89152808  0.42499819  0.34929589  1
  S  S26  1  0.73126864  0.98380402  0.31035503  1
  S  S27  1  0.26846787  0.92551130  0.68089240  1
  S  S28  1  0.17580112  0.48313011  0.45455423  1
  S  S29  1  0.81518364  0.48690207  0.54363013  1
  S  S30  1  0.43242794  0.45212122  0.79578423  1
  S  S31  1  0.56521884  0.49718935  0.19078613  1
  S  S32  1  0.91796454  0.51162273  0.00037048  1
  S  S33  1  0.08334534  0.45673727  0.03134231  1
  S  S34  1  0.67810014  0.58304038  0.91258381  1
  S  S35  1  0.33071206  0.43170918  0.11135256  1
  S  S36  1  0.59843478  0.02297644  0.66042792  1
  S  S37  1  0.40818855  0.04393479  0.34577405  1
  S  S38  1  0.25066950  0.52849260  0.33917068  1
  S  S39  1  0.76391876  0.51138263  0.69118276  1
  S  S40  1  0.66430067  0.95499239  0.44828721  1
  S  S41  1  0.33271225  0.91687495  0.55949380  1
