# generated using pymatgen
data_Pr2Mn3(SbS3)4
_symmetry_space_group_name_H-M   'P 1'
_cell_length_a   20.02960800
_cell_length_b   3.90410600
_cell_length_c   14.95364829
_cell_angle_alpha   90.00000000
_cell_angle_beta   126.33350609
_cell_angle_gamma   90.00000000
_symmetry_Int_Tables_number   1
_chemical_formula_structural   Pr2Mn3(SbS3)4
_chemical_formula_sum   'Pr4 Mn6 Sb8 S24'
_cell_volume   942.00006694
_cell_formula_units_Z   2
loop_
 _symmetry_equiv_pos_site_id
 _symmetry_equiv_pos_as_xyz
  1  'x, y, z'
loop_
 _atom_site_type_symbol
 _atom_site_label
 _atom_site_symmetry_multiplicity
 _atom_site_fract_x
 _atom_site_fract_y
 _atom_site_fract_z
 _atom_site_occupancy
  Pr  Pr0  1  0.27729374  0.49466752  0.88324658  1
  Pr  Pr1  1  0.73471518  0.51001420  0.14079392  1
  Pr  Pr2  1  0.76386183  0.06295207  0.87641376  1
  Pr  Pr3  1  0.23433404  0.91069569  0.12298642  1
  Mn  Mn4  1  0.30009726  0.40854588  0.60453032  1
  Mn  Mn5  1  0.69058040  0.48254586  0.35868319  1
  Mn  Mn6  1  0.00678331  0.96985329  0.02283102  1
  Mn  Mn7  1  0.79486003  0.97645685  0.63054245  1
  Mn  Mn8  1  0.21421420  0.04999656  0.40018936  1
  Mn  Mn9  1  0.47281025  0.50702705  0.96843221  1
  Sb  Sb10  1  0.88413936  0.88837023  0.45685570  1
  Sb  Sb11  1  0.11455423  0.98556741  0.54100312  1
  Sb  Sb12  1  0.03529521  0.49903010  0.82475262  1
  Sb  Sb13  1  0.96617641  0.47075150  0.20248742  1
  Sb  Sb14  1  0.41323666  0.58241309  0.46147865  1
  Sb  Sb15  1  0.60080606  0.56301689  0.53414027  1
  Sb  Sb16  1  0.53221612  0.93306756  0.80339656  1
  Sb  Sb17  1  0.46799363  0.96944668  0.18434010  1
  S  S18  1  0.93129073  0.97437870  0.79878391  1
  S  S19  1  0.06022165  0.97136076  0.20191184  1
  S  S20  1  0.41649432  0.00733718  0.98827015  1
  S  S21  1  0.57831710  0.98829021  0.00228049  1
  S  S22  1  0.16999660  0.93618648  0.89011436  1
  S  S23  1  0.82738141  0.03924773  0.11253997  1
  S  S24  1  0.11099789  0.49804750  0.65542638  1
  S  S25  1  0.89190422  0.42529031  0.34952861  1
  S  S26  1  0.73120953  0.98321391  0.31037035  1
  S  S27  1  0.26834327  0.92503972  0.68090966  1
  S  S28  1  0.17557152  0.48229786  0.45449123  1
  S  S29  1  0.81517505  0.48740509  0.54375238  1
  S  S30  1  0.43232068  0.45321647  0.79569963  1
  S  S31  1  0.56513552  0.49805079  0.19097218  1
  S  S32  1  0.91819144  0.51164362  0.00083094  1
  S  S33  1  0.08331201  0.45673039  0.03163661  1
  S  S34  1  0.67803541  0.58185192  0.91292315  1
  S  S35  1  0.33084505  0.43218504  0.11162735  1
  S  S36  1  0.59857886  0.02171798  0.66089503  1
  S  S37  1  0.40807863  0.04383990  0.34547279  1
  S  S38  1  0.25086236  0.52830439  0.33893627  1
  S  S39  1  0.76386035  0.51137915  0.69087035  1
  S  S40  1  0.66450773  0.95546435  0.44870749  1
  S  S41  1  0.33238586  0.91730316  0.55913943  1
