# generated using pymatgen
data_Pr2Mn3(SbS3)4
_symmetry_space_group_name_H-M   'P 1'
_cell_length_a   20.02960800
_cell_length_b   3.90410600
_cell_length_c   14.95364829
_cell_angle_alpha   90.00000000
_cell_angle_beta   126.33350609
_cell_angle_gamma   90.00000000
_symmetry_Int_Tables_number   1
_chemical_formula_structural   Pr2Mn3(SbS3)4
_chemical_formula_sum   'Pr4 Mn6 Sb8 S24'
_cell_volume   942.00006694
_cell_formula_units_Z   2
loop_
 _symmetry_equiv_pos_site_id
 _symmetry_equiv_pos_as_xyz
  1  'x, y, z'
loop_
 _atom_site_type_symbol
 _atom_site_label
 _atom_site_symmetry_multiplicity
 _atom_site_fract_x
 _atom_site_fract_y
 _atom_site_fract_z
 _atom_site_occupancy
  Pr  Pr0  1  0.27729729  0.49421521  0.88321540  1
  Pr  Pr1  1  0.73466111  0.51016654  0.14063752  1
  Pr  Pr2  1  0.76396196  0.06271948  0.87653619  1
  Pr  Pr3  1  0.23428111  0.91091875  0.12301785  1
  Mn  Mn4  1  0.29976804  0.40867336  0.60432970  1
  Mn  Mn5  1  0.69052399  0.48174290  0.35873703  1
  Mn  Mn6  1  0.00677872  0.97026420  0.02276901  1
  Mn  Mn7  1  0.79501795  0.97715709  0.63085093  1
  Mn  Mn8  1  0.21428311  0.05054326  0.40007400  1
  Mn  Mn9  1  0.47285399  0.50600226  0.96848646  1
  Sb  Sb10  1  0.88391525  0.88802701  0.45667747  1
  Sb  Sb11  1  0.11446224  0.98577868  0.54094689  1
  Sb  Sb12  1  0.03523607  0.49818977  0.82480270  1
  Sb  Sb13  1  0.96614664  0.47000428  0.20241882  1
  Sb  Sb14  1  0.41331830  0.58187610  0.46158202  1
  Sb  Sb15  1  0.60079057  0.56346726  0.53413766  1
  Sb  Sb16  1  0.53221888  0.93303972  0.80353937  1
  Sb  Sb17  1  0.46812975  0.96863217  0.18435345  1
  S  S18  1  0.93151098  0.97308457  0.79919928  1
  S  S19  1  0.06020324  0.97282766  0.20181213  1
  S  S20  1  0.41648835  0.00771106  0.98847900  1
  S  S21  1  0.57829648  0.98846527  0.00218051  1
  S  S22  1  0.16999781  0.93585068  0.89035407  1
  S  S23  1  0.82718083  0.03980137  0.11251545  1
  S  S24  1  0.11063324  0.49726638  0.65546250  1
  S  S25  1  0.89233741  0.42541546  0.34980533  1
  S  S26  1  0.73119734  0.98245159  0.31038269  1
  S  S27  1  0.26811957  0.92477359  0.68089864  1
  S  S28  1  0.17537082  0.48124260  0.45445495  1
  S  S29  1  0.81517309  0.48846723  0.54373801  1
  S  S30  1  0.43215402  0.45437616  0.79551412  1
  S  S31  1  0.56512650  0.49828775  0.19109543  1
  S  S32  1  0.91834787  0.51139644  0.00113653  1
  S  S33  1  0.08321729  0.45692373  0.03189902  1
  S  S34  1  0.67802227  0.58063330  0.91335079  1
  S  S35  1  0.33095889  0.43233323  0.11178750  1
  S  S36  1  0.59876916  0.02116435  0.66145383  1
  S  S37  1  0.40812136  0.04450959  0.34540324  1
  S  S38  1  0.25088416  0.52827159  0.33850095  1
  S  S39  1  0.76370419  0.51115127  0.69043566  1
  S  S40  1  0.66467872  0.95596665  0.44899943  1
  S  S41  1  0.33201491  0.91758216  0.55881162  1
