# generated using pymatgen
data_Pr2Mn3(SbS3)4
_symmetry_space_group_name_H-M   'P 1'
_cell_length_a   20.02960800
_cell_length_b   3.90410600
_cell_length_c   14.95364829
_cell_angle_alpha   90.00000000
_cell_angle_beta   126.33350609
_cell_angle_gamma   90.00000000
_symmetry_Int_Tables_number   1
_chemical_formula_structural   Pr2Mn3(SbS3)4
_chemical_formula_sum   'Pr4 Mn6 Sb8 S24'
_cell_volume   942.00006694
_cell_formula_units_Z   2
loop_
 _symmetry_equiv_pos_site_id
 _symmetry_equiv_pos_as_xyz
  1  'x, y, z'
loop_
 _atom_site_type_symbol
 _atom_site_label
 _atom_site_symmetry_multiplicity
 _atom_site_fract_x
 _atom_site_fract_y
 _atom_site_fract_z
 _atom_site_occupancy
  Pr  Pr0  1  0.27728433  0.49383042  0.88316766  1
  Pr  Pr1  1  0.73460410  0.50998252  0.14045818  1
  Pr  Pr2  1  0.76408572  0.06241852  0.87667289  1
  Pr  Pr3  1  0.23424467  0.91109026  0.12304508  1
  Mn  Mn4  1  0.29947063  0.40846419  0.60402726  1
  Mn  Mn5  1  0.69038578  0.48074490  0.35870162  1
  Mn  Mn6  1  0.00672254  0.97064566  0.02272489  1
  Mn  Mn7  1  0.79519006  0.97775399  0.63119443  1
  Mn  Mn8  1  0.21425646  0.05114852  0.39992632  1
  Mn  Mn9  1  0.47283922  0.50498862  0.96843630  1
  Sb  Sb10  1  0.88364340  0.88778875  0.45648250  1
  Sb  Sb11  1  0.11440948  0.98608971  0.54086622  1
  Sb  Sb12  1  0.03526554  0.49746771  0.82499481  1
  Sb  Sb13  1  0.96610492  0.46935958  0.20234497  1
  Sb  Sb14  1  0.41340517  0.58142065  0.46172107  1
  Sb  Sb15  1  0.60075177  0.56411702  0.53411610  1
  Sb  Sb16  1  0.53226400  0.93320037  0.80363079  1
  Sb  Sb17  1  0.46823377  0.96784906  0.18431457  1
  S  S18  1  0.93175505  0.97205111  0.79958126  1
  S  S19  1  0.06018827  0.97478690  0.20170462  1
  S  S20  1  0.41646378  0.00765431  0.98869509  1
  S  S21  1  0.57825683  0.98896543  0.00203472  1
  S  S22  1  0.17002404  0.93545438  0.89037897  1
  S  S23  1  0.82697124  0.04004121  0.11249173  1
  S  S24  1  0.11037823  0.49633957  0.65552223  1
  S  S25  1  0.89267756  0.42515371  0.34997454  1
  S  S26  1  0.73109785  0.98134376  0.31035152  1
  S  S27  1  0.26785378  0.92427359  0.68085671  1
  S  S28  1  0.17514097  0.48049098  0.45445703  1
  S  S29  1  0.81501797  0.48966994  0.54380142  1
  S  S30  1  0.43205245  0.45535273  0.79528788  1
  S  S31  1  0.56525118  0.49832952  0.19138001  1
  S  S32  1  0.91848398  0.51096860  0.00128310  1
  S  S33  1  0.08315647  0.45636048  0.03223807  1
  S  S34  1  0.67795261  0.57973835  0.91370567  1
  S  S35  1  0.33120023  0.43211758  0.11196574  1
  S  S36  1  0.59890647  0.02044898  0.66184644  1
  S  S37  1  0.40814343  0.04485012  0.34535661  1
  S  S38  1  0.25067999  0.52779578  0.33784837  1
  S  S39  1  0.76356900  0.51120577  0.69003594  1
  S  S40  1  0.66474770  0.95669974  0.44918842  1
  S  S41  1  0.33159972  0.91788609  0.55854858  1
