# generated using pymatgen
data_Pr2Mn3(SbS3)4
_symmetry_space_group_name_H-M   'P 1'
_cell_length_a   20.02960800
_cell_length_b   3.90410600
_cell_length_c   14.95364829
_cell_angle_alpha   90.00000000
_cell_angle_beta   126.33350609
_cell_angle_gamma   90.00000000
_symmetry_Int_Tables_number   1
_chemical_formula_structural   Pr2Mn3(SbS3)4
_chemical_formula_sum   'Pr4 Mn6 Sb8 S24'
_cell_volume   942.00006694
_cell_formula_units_Z   2
loop_
 _symmetry_equiv_pos_site_id
 _symmetry_equiv_pos_as_xyz
  1  'x, y, z'
loop_
 _atom_site_type_symbol
 _atom_site_label
 _atom_site_symmetry_multiplicity
 _atom_site_fract_x
 _atom_site_fract_y
 _atom_site_fract_z
 _atom_site_occupancy
  Pr  Pr0  1  0.27725719  0.49339982  0.88309666  1
  Pr  Pr1  1  0.73457101  0.50994241  0.14027554  1
  Pr  Pr2  1  0.76416915  0.06234261  0.87678548  1
  Pr  Pr3  1  0.23427147  0.91133677  0.12310849  1
  Mn  Mn4  1  0.29922733  0.40777160  0.60391039  1
  Mn  Mn5  1  0.69024453  0.48017450  0.35865596  1
  Mn  Mn6  1  0.00675448  0.97084319  0.02285202  1
  Mn  Mn7  1  0.79527449  0.97801269  0.63147304  1
  Mn  Mn8  1  0.21418129  0.05192054  0.39973775  1
  Mn  Mn9  1  0.47283361  0.50401342  0.96848685  1
  Sb  Sb10  1  0.88336686  0.88748111  0.45626148  1
  Sb  Sb11  1  0.11436158  0.98666806  0.54079068  1
  Sb  Sb12  1  0.03531875  0.49666189  0.82516010  1
  Sb  Sb13  1  0.96601124  0.46859989  0.20224602  1
  Sb  Sb14  1  0.41343593  0.58103665  0.46176200  1
  Sb  Sb15  1  0.60069925  0.56475148  0.53412886  1
  Sb  Sb16  1  0.53227519  0.93346281  0.80366751  1
  Sb  Sb17  1  0.46831576  0.96711913  0.18428412  1
  S  S18  1  0.93188399  0.97115472  0.79975442  1
  S  S19  1  0.06029997  0.97634870  0.20170594  1
  S  S20  1  0.41637682  0.00745424  0.98883341  1
  S  S21  1  0.57812797  0.98942175  0.00183199  1
  S  S22  1  0.16998977  0.93548490  0.89045085  1
  S  S23  1  0.82682288  0.04038117  0.11244288  1
  S  S24  1  0.11014523  0.49496811  0.65554176  1
  S  S25  1  0.89298115  0.42487374  0.35008656  1
  S  S26  1  0.73097865  0.98013154  0.31022027  1
  S  S27  1  0.26762868  0.92374553  0.68083674  1
  S  S28  1  0.17488359  0.47953639  0.45452095  1
  S  S29  1  0.81485362  0.49043923  0.54388448  1
  S  S30  1  0.43187188  0.45615950  0.79505156  1
  S  S31  1  0.56527872  0.49822876  0.19157792  1
  S  S32  1  0.91855917  0.51093827  0.00121209  1
  S  S33  1  0.08305531  0.45587775  0.03249448  1
  S  S34  1  0.67791707  0.57915443  0.91414847  1
  S  S35  1  0.33149269  0.43196505  0.11227003  1
  S  S36  1  0.59908111  0.02016934  0.66227289  1
  S  S37  1  0.40809596  0.04533247  0.34533399  1
  S  S38  1  0.25047690  0.52717470  0.33729968  1
  S  S39  1  0.76346586  0.51156873  0.68962949  1
  S  S40  1  0.66489640  0.95732846  0.44956001  1
  S  S41  1  0.33122746  0.91791761  0.55819270  1
