# generated using pymatgen
data_Pr2Mn3(SbS3)4
_symmetry_space_group_name_H-M   'P 1'
_cell_length_a   20.02960800
_cell_length_b   3.90410600
_cell_length_c   14.95364829
_cell_angle_alpha   90.00000000
_cell_angle_beta   126.33350609
_cell_angle_gamma   90.00000000
_symmetry_Int_Tables_number   1
_chemical_formula_structural   Pr2Mn3(SbS3)4
_chemical_formula_sum   'Pr4 Mn6 Sb8 S24'
_cell_volume   942.00006694
_cell_formula_units_Z   2
loop_
 _symmetry_equiv_pos_site_id
 _symmetry_equiv_pos_as_xyz
  1  'x, y, z'
loop_
 _atom_site_type_symbol
 _atom_site_label
 _atom_site_symmetry_multiplicity
 _atom_site_fract_x
 _atom_site_fract_y
 _atom_site_fract_z
 _atom_site_occupancy
  Pr  Pr0  1  0.26443957  0.47155913  0.86888062  1
  Pr  Pr1  1  0.73772908  0.52201288  0.13787879  1
  Pr  Pr2  1  0.76418110  0.01256922  0.86466842  1
  Pr  Pr3  1  0.23678270  0.00498312  0.13852581  1
  Mn  Mn4  1  0.29254000  0.48712724  0.60232824  1
  Mn  Mn5  1  0.69409675  0.52349286  0.38055882  1
  Mn  Mn6  1  0.00685978  0.99543812  0.00734991  1
  Mn  Mn7  1  0.80312753  0.00479776  0.61441674  1
  Mn  Mn8  1  0.19505517  0.97226500  0.37735670  1
  Mn  Mn9  1  0.49974799  0.45863682  0.99069725  1
  Sb  Sb10  1  0.89015949  0.99504181  0.45269604  1
  Sb  Sb11  1  0.11181784  0.96515042  0.55111247  1
  Sb  Sb12  1  0.03953479  0.51545994  0.81797409  1
  Sb  Sb13  1  0.96332974  0.51233743  0.18602999  1
  Sb  Sb14  1  0.39720453  0.50603969  0.45624323  1
  Sb  Sb15  1  0.60646238  0.48411855  0.54693748  1
  Sb  Sb16  1  0.53404689  0.00980782  0.81156051  1
  Sb  Sb17  1  0.46196287  0.01153773  0.18291707  1
  S  S18  1  0.93608822  0.98520487  0.80513028  1
  S  S19  1  0.06538223  0.97345248  0.18510767  1
  S  S20  1  0.41084596  0.01114190  0.97945955  1
  S  S21  1  0.59153633  0.99694173  0.02431274  1
  S  S22  1  0.17212486  0.98950489  0.89441874  1
  S  S23  1  0.82513819  0.01924775  0.09495289  1
  S  S24  1  0.08747279  0.47496619  0.64482275  1
  S  S25  1  0.90928843  0.47389596  0.35511837  1
  S  S26  1  0.73955656  0.95904001  0.29725265  1
  S  S27  1  0.25862400  0.99761599  0.70497992  1
  S  S28  1  0.17113323  0.48419317  0.44442470  1
  S  S29  1  0.82865883  0.49068961  0.55018704  1
  S  S30  1  0.43350120  0.49976992  0.79670983  1
  S  S31  1  0.56114282  0.51011396  0.18252589  1
  S  S32  1  0.91472822  0.50354416  0.99494358  1
  S  S33  1  0.08183802  0.49671601  0.01314687  1
  S  S34  1  0.66575832  0.48393830  0.88785487  1
  S  S35  1  0.32648463  0.51057594  0.09110656  1
  S  S36  1  0.59457316  0.00200236  0.65898620  1
  S  S37  1  0.40694228  0.97266871  0.34670026  1
  S  S38  1  0.24596384  0.45236742  0.31187693  1
  S  S39  1  0.76198821  0.50354587  0.70096209  1
  S  S40  1  0.67677310  0.02175855  0.46103979  1
  S  S41  1  0.32696345  0.98000292  0.54403651  1
