# generated using pymatgen
data_Pr2Mn3(SbS3)4
_symmetry_space_group_name_H-M   'P 1'
_cell_length_a   20.02960800
_cell_length_b   3.90410600
_cell_length_c   14.95364829
_cell_angle_alpha   90.00000000
_cell_angle_beta   126.33350609
_cell_angle_gamma   90.00000000
_symmetry_Int_Tables_number   1
_chemical_formula_structural   Pr2Mn3(SbS3)4
_chemical_formula_sum   'Pr4 Mn6 Sb8 S24'
_cell_volume   942.00006694
_cell_formula_units_Z   2
loop_
 _symmetry_equiv_pos_site_id
 _symmetry_equiv_pos_as_xyz
  1  'x, y, z'
loop_
 _atom_site_type_symbol
 _atom_site_label
 _atom_site_symmetry_multiplicity
 _atom_site_fract_x
 _atom_site_fract_y
 _atom_site_fract_z
 _atom_site_occupancy
  Pr  Pr0  1  0.27728003  0.49284828  0.88301460  1
  Pr  Pr1  1  0.73448408  0.51002547  0.14001517  1
  Pr  Pr2  1  0.76418691  0.06230508  0.87686504  1
  Pr  Pr3  1  0.23424089  0.91143301  0.12309008  1
  Mn  Mn4  1  0.29894043  0.40680492  0.60379641  1
  Mn  Mn5  1  0.69011811  0.47975731  0.35864464  1
  Mn  Mn6  1  0.00679726  0.97087000  0.02289958  1
  Mn  Mn7  1  0.79536341  0.97834525  0.63177401  1
  Mn  Mn8  1  0.21407766  0.05236986  0.39960221  1
  Mn  Mn9  1  0.47287573  0.50327628  0.96854545  1
  Sb  Sb10  1  0.88312148  0.88708115  0.45603642  1
  Sb  Sb11  1  0.11428364  0.98696898  0.54069522  1
  Sb  Sb12  1  0.03534010  0.49594267  0.82528805  1
  Sb  Sb13  1  0.96592032  0.46790107  0.20217614  1
  Sb  Sb14  1  0.41349926  0.58074328  0.46177915  1
  Sb  Sb15  1  0.60058442  0.56519111  0.53405157  1
  Sb  Sb16  1  0.53228519  0.93375277  0.80374410  1
  Sb  Sb17  1  0.46834493  0.96675702  0.18421114  1
  S  S18  1  0.93201864  0.96981000  0.79993809  1
  S  S19  1  0.06038473  0.97825011  0.20167706  1
  S  S20  1  0.41625938  0.00759576  0.98870801  1
  S  S21  1  0.57812413  0.98987265  0.00168572  1
  S  S22  1  0.16994771  0.93526056  0.89052339  1
  S  S23  1  0.82676096  0.04017531  0.11235736  1
  S  S24  1  0.10993328  0.49374749  0.65548114  1
  S  S25  1  0.89301501  0.42502965  0.35002655  1
  S  S26  1  0.73084735  0.97948949  0.30997745  1
  S  S27  1  0.26734784  0.92333079  0.68075278  1
  S  S28  1  0.17459102  0.47875920  0.45455603  1
  S  S29  1  0.81471906  0.49108789  0.54383141  1
  S  S30  1  0.43172783  0.45679821  0.79476586  1
  S  S31  1  0.56535808  0.49812210  0.19186925  1
  S  S32  1  0.91858274  0.51062419  0.00097647  1
  S  S33  1  0.08306872  0.45549644  0.03291089  1
  S  S34  1  0.67794842  0.57801902  0.91467078  1
  S  S35  1  0.33170960  0.43228629  0.11245129  1
  S  S36  1  0.59935728  0.01982404  0.66285754  1
  S  S37  1  0.40797870  0.04595167  0.34515355  1
  S  S38  1  0.25018464  0.52668522  0.33673100  1
  S  S39  1  0.76339004  0.51163514  0.68918990  1
  S  S40  1  0.66506972  0.95791390  0.44969291  1
  S  S41  1  0.33085546  0.91783221  0.55785558  1
