# generated using pymatgen
data_Pr2Mn3(SbS3)4
_symmetry_space_group_name_H-M   'P 1'
_cell_length_a   20.02960800
_cell_length_b   3.90410600
_cell_length_c   14.95364829
_cell_angle_alpha   90.00000000
_cell_angle_beta   126.33350609
_cell_angle_gamma   90.00000000
_symmetry_Int_Tables_number   1
_chemical_formula_structural   Pr2Mn3(SbS3)4
_chemical_formula_sum   'Pr4 Mn6 Sb8 S24'
_cell_volume   942.00006694
_cell_formula_units_Z   2
loop_
 _symmetry_equiv_pos_site_id
 _symmetry_equiv_pos_as_xyz
  1  'x, y, z'
loop_
 _atom_site_type_symbol
 _atom_site_label
 _atom_site_symmetry_multiplicity
 _atom_site_fract_x
 _atom_site_fract_y
 _atom_site_fract_z
 _atom_site_occupancy
  Pr  Pr0  1  0.27729294  0.49220159  0.88289688  1
  Pr  Pr1  1  0.73443106  0.51010320  0.13974423  1
  Pr  Pr2  1  0.76412916  0.06228734  0.87684885  1
  Pr  Pr3  1  0.23427769  0.91147198  0.12313442  1
  Mn  Mn4  1  0.29872121  0.40549350  0.60376094  1
  Mn  Mn5  1  0.69002988  0.47956376  0.35854393  1
  Mn  Mn6  1  0.00690902  0.97056758  0.02291791  1
  Mn  Mn7  1  0.79545041  0.97881505  0.63212541  1
  Mn  Mn8  1  0.21398377  0.05278073  0.39945406  1
  Mn  Mn9  1  0.47292869  0.50269994  0.96878515  1
  Sb  Sb10  1  0.88290384  0.88669960  0.45588283  1
  Sb  Sb11  1  0.11420943  0.98743705  0.54058786  1
  Sb  Sb12  1  0.03538590  0.49547671  0.82547069  1
  Sb  Sb13  1  0.96574290  0.46718507  0.20199814  1
  Sb  Sb14  1  0.41365869  0.58046283  0.46189475  1
  Sb  Sb15  1  0.60048164  0.56570103  0.53388789  1
  Sb  Sb16  1  0.53232269  0.93412697  0.80382152  1
  Sb  Sb17  1  0.46845792  0.96629623  0.18417810  1
  S  S18  1  0.93223732  0.96905734  0.80028640  1
  S  S19  1  0.06031175  0.98046247  0.20159341  1
  S  S20  1  0.41618258  0.00774027  0.98856376  1
  S  S21  1  0.57811460  0.99041118  0.00170865  1
  S  S22  1  0.16987259  0.93502025  0.89062320  1
  S  S23  1  0.82675465  0.03982661  0.11234107  1
  S  S24  1  0.10973114  0.49248352  0.65545598  1
  S  S25  1  0.89303799  0.42514369  0.35010950  1
  S  S26  1  0.73067896  0.97898118  0.30965345  1
  S  S27  1  0.26699660  0.92346837  0.68061659  1
  S  S28  1  0.17425688  0.47847229  0.45443372  1
  S  S29  1  0.81459093  0.49231995  0.54360623  1
  S  S30  1  0.43166068  0.45716914  0.79447584  1
  S  S31  1  0.56546912  0.49808111  0.19216914  1
  S  S32  1  0.91848291  0.51028160  0.00067252  1
  S  S33  1  0.08307630  0.45559881  0.03323374  1
  S  S34  1  0.67802135  0.57719994  0.91512820  1
  S  S35  1  0.33191036  0.43279925  0.11256708  1
  S  S36  1  0.59965753  0.02012793  0.66344049  1
  S  S37  1  0.40788944  0.04692669  0.34506360  1
  S  S38  1  0.24984783  0.52710265  0.33616107  1
  S  S39  1  0.76328083  0.51220482  0.68871375  1
  S  S40  1  0.66524387  0.95836060  0.44974478  1
  S  S41  1  0.33063745  0.91767987  0.55747647  1
