# generated using pymatgen
data_Pr2Mn3(SbS3)4
_symmetry_space_group_name_H-M   'P 1'
_cell_length_a   20.02960800
_cell_length_b   3.90410600
_cell_length_c   14.95364829
_cell_angle_alpha   90.00000000
_cell_angle_beta   126.33350609
_cell_angle_gamma   90.00000000
_symmetry_Int_Tables_number   1
_chemical_formula_structural   Pr2Mn3(SbS3)4
_chemical_formula_sum   'Pr4 Mn6 Sb8 S24'
_cell_volume   942.00006694
_cell_formula_units_Z   2
loop_
 _symmetry_equiv_pos_site_id
 _symmetry_equiv_pos_as_xyz
  1  'x, y, z'
loop_
 _atom_site_type_symbol
 _atom_site_label
 _atom_site_symmetry_multiplicity
 _atom_site_fract_x
 _atom_site_fract_y
 _atom_site_fract_z
 _atom_site_occupancy
  Pr  Pr0  1  0.27731107  0.49126707  0.88280022  1
  Pr  Pr1  1  0.73438755  0.51006852  0.13947770  1
  Pr  Pr2  1  0.76411210  0.06226495  0.87679750  1
  Pr  Pr3  1  0.23431640  0.91148973  0.12320781  1
  Mn  Mn4  1  0.29855529  0.40362593  0.60379779  1
  Mn  Mn5  1  0.68997605  0.47929257  0.35856775  1
  Mn  Mn6  1  0.00701812  0.97025997  0.02300349  1
  Mn  Mn7  1  0.79549715  0.97935881  0.63246517  1
  Mn  Mn8  1  0.21395848  0.05289313  0.39940424  1
  Mn  Mn9  1  0.47283910  0.50244074  0.96880621  1
  Sb  Sb10  1  0.88274990  0.88621674  0.45576249  1
  Sb  Sb11  1  0.11411976  0.98792793  0.54044053  1
  Sb  Sb12  1  0.03537718  0.49513353  0.82558460  1
  Sb  Sb13  1  0.96557143  0.46677056  0.20184562  1
  Sb  Sb14  1  0.41379044  0.58031892  0.46201973  1
  Sb  Sb15  1  0.60042396  0.56655388  0.53378792  1
  Sb  Sb16  1  0.53238925  0.93426822  0.80391267  1
  Sb  Sb17  1  0.46852465  0.96571218  0.18408326  1
  S  S18  1  0.93236448  0.96797275  0.80041966  1
  S  S19  1  0.06041249  0.98278809  0.20162005  1
  S  S20  1  0.41618415  0.00734587  0.98846917  1
  S  S21  1  0.57808442  0.99089681  0.00173383  1
  S  S22  1  0.16975306  0.93504288  0.89067310  1
  S  S23  1  0.82668819  0.03948376  0.11234992  1
  S  S24  1  0.10958214  0.49115535  0.65529936  1
  S  S25  1  0.89307416  0.42505816  0.35024459  1
  S  S26  1  0.73066364  0.97878938  0.30951851  1
  S  S27  1  0.26663666  0.92398595  0.68049411  1
  S  S28  1  0.17409631  0.47821381  0.45442273  1
  S  S29  1  0.81444128  0.49329014  0.54340338  1
  S  S30  1  0.43153889  0.45748375  0.79422682  1
  S  S31  1  0.56563098  0.49867980  0.19234387  1
  S  S32  1  0.91841093  0.51054903  0.00040799  1
  S  S33  1  0.08314874  0.45571661  0.03360448  1
  S  S34  1  0.67794696  0.57634122  0.91530603  1
  S  S35  1  0.33198956  0.43331099  0.11253629  1
  S  S36  1  0.59999499  0.01995611  0.66403419  1
  S  S37  1  0.40771884  0.04772026  0.34488128  1
  S  S38  1  0.24950328  0.52720483  0.33559628  1
  S  S39  1  0.76310070  0.51183437  0.68828988  1
  S  S40  1  0.66546523  0.95898828  0.44988160  1
  S  S41  1  0.33048624  0.91773844  0.55725552  1
