# generated using pymatgen
data_Pr2Mn3(SbS3)4
_symmetry_space_group_name_H-M   'P 1'
_cell_length_a   20.02960800
_cell_length_b   3.90410600
_cell_length_c   14.95364829
_cell_angle_alpha   90.00000000
_cell_angle_beta   126.33350609
_cell_angle_gamma   90.00000000
_symmetry_Int_Tables_number   1
_chemical_formula_structural   Pr2Mn3(SbS3)4
_chemical_formula_sum   'Pr4 Mn6 Sb8 S24'
_cell_volume   942.00006694
_cell_formula_units_Z   2
loop_
 _symmetry_equiv_pos_site_id
 _symmetry_equiv_pos_as_xyz
  1  'x, y, z'
loop_
 _atom_site_type_symbol
 _atom_site_label
 _atom_site_symmetry_multiplicity
 _atom_site_fract_x
 _atom_site_fract_y
 _atom_site_fract_z
 _atom_site_occupancy
  Pr  Pr0  1  0.27730494  0.49049257  0.88262353  1
  Pr  Pr1  1  0.73434561  0.51008878  0.13923906  1
  Pr  Pr2  1  0.76408885  0.06232641  0.87678811  1
  Pr  Pr3  1  0.23437870  0.91122163  0.12330702  1
  Mn  Mn4  1  0.29837554  0.40214975  0.60372606  1
  Mn  Mn5  1  0.68986286  0.47933594  0.35857324  1
  Mn  Mn6  1  0.00709690  0.97023217  0.02304819  1
  Mn  Mn7  1  0.79553069  0.98030905  0.63266876  1
  Mn  Mn8  1  0.21396280  0.05319792  0.39937125  1
  Mn  Mn9  1  0.47284644  0.50228875  0.96888863  1
  Sb  Sb10  1  0.88260466  0.88592465  0.45567291  1
  Sb  Sb11  1  0.11394389  0.98821701  0.54025156  1
  Sb  Sb12  1  0.03532251  0.49478215  0.82566171  1
  Sb  Sb13  1  0.96546123  0.46649850  0.20177335  1
  Sb  Sb14  1  0.41391491  0.58006927  0.46216576  1
  Sb  Sb15  1  0.60032358  0.56739108  0.53365618  1
  Sb  Sb16  1  0.53245525  0.93455946  0.80395217  1
  Sb  Sb17  1  0.46861159  0.96514402  0.18410024  1
  S  S18  1  0.93247875  0.96693735  0.80050852  1
  S  S19  1  0.06045590  0.98464834  0.20156713  1
  S  S20  1  0.41620224  0.00614546  0.98823533  1
  S  S21  1  0.57805037  0.99142728  0.00171087  1
  S  S22  1  0.16953423  0.93500658  0.89070014  1
  S  S23  1  0.82673692  0.03923682  0.11237057  1
  S  S24  1  0.10951333  0.48968727  0.65518309  1
  S  S25  1  0.89310530  0.42514589  0.35049000  1
  S  S26  1  0.73067080  0.97876241  0.30936808  1
  S  S27  1  0.26625803  0.92505353  0.68035218  1
  S  S28  1  0.17381991  0.47771613  0.45426549  1
  S  S29  1  0.81437957  0.49478175  0.54319339  1
  S  S30  1  0.43144779  0.45812723  0.79403084  1
  S  S31  1  0.56584515  0.49925053  0.19269265  1
  S  S32  1  0.91827608  0.51020225  0.99998235  1
  S  S33  1  0.08326992  0.45578231  0.03396722  1
  S  S34  1  0.67781209  0.57567063  0.91542905  1
  S  S35  1  0.33204729  0.43343975  0.11247041  1
  S  S36  1  0.60040443  0.01954262  0.66474390  1
  S  S37  1  0.40769354  0.04883324  0.34485171  1
  S  S38  1  0.24922049  0.52732912  0.33518351  1
  S  S39  1  0.76287122  0.51216292  0.68776505  1
  S  S40  1  0.66561779  0.95978934  0.45008032  1
  S  S41  1  0.33045544  0.91806399  0.55715363  1
