# generated using pymatgen
data_Pr2Mn3(SbS3)4
_symmetry_space_group_name_H-M   'P 1'
_cell_length_a   20.02960800
_cell_length_b   3.90410600
_cell_length_c   14.95364829
_cell_angle_alpha   90.00000000
_cell_angle_beta   126.33350609
_cell_angle_gamma   90.00000000
_symmetry_Int_Tables_number   1
_chemical_formula_structural   Pr2Mn3(SbS3)4
_chemical_formula_sum   'Pr4 Mn6 Sb8 S24'
_cell_volume   942.00006694
_cell_formula_units_Z   2
loop_
 _symmetry_equiv_pos_site_id
 _symmetry_equiv_pos_as_xyz
  1  'x, y, z'
loop_
 _atom_site_type_symbol
 _atom_site_label
 _atom_site_symmetry_multiplicity
 _atom_site_fract_x
 _atom_site_fract_y
 _atom_site_fract_z
 _atom_site_occupancy
  Pr  Pr0  1  0.27727602  0.48969838  0.88246702  1
  Pr  Pr1  1  0.73416751  0.51011561  0.13893205  1
  Pr  Pr2  1  0.76404207  0.06269096  0.87684343  1
  Pr  Pr3  1  0.23441538  0.91112597  0.12331886  1
  Mn  Mn4  1  0.29817169  0.40092651  0.60365327  1
  Mn  Mn5  1  0.68971725  0.47924604  0.35862575  1
  Mn  Mn6  1  0.00724219  0.97052153  0.02321553  1
  Mn  Mn7  1  0.79555220  0.98100711  0.63291073  1
  Mn  Mn8  1  0.21391916  0.05325789  0.39928561  1
  Mn  Mn9  1  0.47290737  0.50205635  0.96907695  1
  Sb  Sb10  1  0.88251129  0.88564037  0.45562827  1
  Sb  Sb11  1  0.11375343  0.98851274  0.54010509  1
  Sb  Sb12  1  0.03524961  0.49431380  0.82574771  1
  Sb  Sb13  1  0.96535514  0.46605479  0.20166608  1
  Sb  Sb14  1  0.41398321  0.57980339  0.46222336  1
  Sb  Sb15  1  0.60026775  0.56823828  0.53356666  1
  Sb  Sb16  1  0.53250427  0.93465897  0.80395377  1
  Sb  Sb17  1  0.46868533  0.96455945  0.18411037  1
  S  S18  1  0.93256233  0.96621386  0.80059081  1
  S  S19  1  0.06052651  0.98672614  0.20153854  1
  S  S20  1  0.41627292  0.00556776  0.98809890  1
  S  S21  1  0.57797300  0.99178762  0.00174458  1
  S  S22  1  0.16923094  0.93512025  0.89067398  1
  S  S23  1  0.82685232  0.03902444  0.11231140  1
  S  S24  1  0.10945516  0.48826511  0.65505094  1
  S  S25  1  0.89312016  0.42553192  0.35051542  1
  S  S26  1  0.73077167  0.97878960  0.30922397  1
  S  S27  1  0.26592168  0.92594653  0.68026234  1
  S  S28  1  0.17342846  0.47750336  0.45402728  1
  S  S29  1  0.81438722  0.49627529  0.54307548  1
  S  S30  1  0.43141682  0.45854925  0.79394289  1
  S  S31  1  0.56597496  0.49960722  0.19304691  1
  S  S32  1  0.91815792  0.50973262  0.99966406  1
  S  S33  1  0.08342035  0.45579970  0.03432345  1
  S  S34  1  0.67764177  0.57539372  0.91553083  1
  S  S35  1  0.33204621  0.43363246  0.11235919  1
  S  S36  1  0.60077536  0.01892495  0.66539509  1
  S  S37  1  0.40776471  0.05011337  0.34491729  1
  S  S38  1  0.24900694  0.52714967  0.33472728  1
  S  S39  1  0.76270127  0.51232509  0.68740114  1
  S  S40  1  0.66573610  0.95974204  0.45025617  1
  S  S41  1  0.33037431  0.91806883  0.55695428  1
