# generated using pymatgen
data_Pr2Mn3(SbS3)4
_symmetry_space_group_name_H-M   'P 1'
_cell_length_a   20.02960800
_cell_length_b   3.90410600
_cell_length_c   14.95364829
_cell_angle_alpha   90.00000000
_cell_angle_beta   126.33350609
_cell_angle_gamma   90.00000000
_symmetry_Int_Tables_number   1
_chemical_formula_structural   Pr2Mn3(SbS3)4
_chemical_formula_sum   'Pr4 Mn6 Sb8 S24'
_cell_volume   942.00006694
_cell_formula_units_Z   2
loop_
 _symmetry_equiv_pos_site_id
 _symmetry_equiv_pos_as_xyz
  1  'x, y, z'
loop_
 _atom_site_type_symbol
 _atom_site_label
 _atom_site_symmetry_multiplicity
 _atom_site_fract_x
 _atom_site_fract_y
 _atom_site_fract_z
 _atom_site_occupancy
  Pr  Pr0  1  0.27724639  0.48889002  0.88228783  1
  Pr  Pr1  1  0.73405866  0.50997191  0.13857358  1
  Pr  Pr2  1  0.76405030  0.06307375  0.87697218  1
  Pr  Pr3  1  0.23449101  0.91118178  0.12338381  1
  Mn  Mn4  1  0.29797948  0.39970767  0.60357813  1
  Mn  Mn5  1  0.68962314  0.47920072  0.35874410  1
  Mn  Mn6  1  0.00737899  0.97082675  0.02324071  1
  Mn  Mn7  1  0.79559330  0.98164625  0.63312268  1
  Mn  Mn8  1  0.21399818  0.05343934  0.39915883  1
  Mn  Mn9  1  0.47308869  0.50165174  0.96928048  1
  Sb  Sb10  1  0.88249008  0.88505918  0.45563737  1
  Sb  Sb11  1  0.11355126  0.98886583  0.54000352  1
  Sb  Sb12  1  0.03518501  0.49406856  0.82576991  1
  Sb  Sb13  1  0.96526537  0.46553973  0.20163373  1
  Sb  Sb14  1  0.41404259  0.57963219  0.46232532  1
  Sb  Sb15  1  0.60018396  0.56915353  0.53337070  1
  Sb  Sb16  1  0.53255581  0.93479627  0.80398510  1
  Sb  Sb17  1  0.46876222  0.96432602  0.18411363  1
  S  S18  1  0.93255049  0.96579156  0.80073364  1
  S  S19  1  0.06072827  0.98847331  0.20168393  1
  S  S20  1  0.41640598  0.00457680  0.98798945  1
  S  S21  1  0.57783082  0.99199078  0.00165141  1
  S  S22  1  0.16896772  0.93547983  0.89072721  1
  S  S23  1  0.82710649  0.03896739  0.11229678  1
  S  S24  1  0.10939543  0.48671660  0.65495377  1
  S  S25  1  0.89310569  0.42580487  0.35048846  1
  S  S26  1  0.73087724  0.97847491  0.30912608  1
  S  S27  1  0.26554925  0.92635983  0.68006012  1
  S  S28  1  0.17315988  0.47760382  0.45406059  1
  S  S29  1  0.81439961  0.49764466  0.54285035  1
  S  S30  1  0.43124616  0.45915641  0.79372898  1
  S  S31  1  0.56595288  0.50035554  0.19318754  1
  S  S32  1  0.91818836  0.50900873  0.99938887  1
  S  S33  1  0.08363451  0.45586327  0.03473465  1
  S  S34  1  0.67743878  0.57510230  0.91557700  1
  S  S35  1  0.33207631  0.43407334  0.11222431  1
  S  S36  1  0.60111026  0.01817014  0.66598135  1
  S  S37  1  0.40789925  0.05154244  0.34509084  1
  S  S38  1  0.24880583  0.52694260  0.33432110  1
  S  S39  1  0.76259681  0.51317852  0.68712882  1
  S  S40  1  0.66581945  0.96013324  0.45044730  1
  S  S41  1  0.33033997  0.91870423  0.55683078  1
