# generated using pymatgen
data_Pr2Mn3(SbS3)4
_symmetry_space_group_name_H-M   'P 1'
_cell_length_a   20.02960800
_cell_length_b   3.90410600
_cell_length_c   14.95364829
_cell_angle_alpha   90.00000000
_cell_angle_beta   126.33350609
_cell_angle_gamma   90.00000000
_symmetry_Int_Tables_number   1
_chemical_formula_structural   Pr2Mn3(SbS3)4
_chemical_formula_sum   'Pr4 Mn6 Sb8 S24'
_cell_volume   942.00006694
_cell_formula_units_Z   2
loop_
 _symmetry_equiv_pos_site_id
 _symmetry_equiv_pos_as_xyz
  1  'x, y, z'
loop_
 _atom_site_type_symbol
 _atom_site_label
 _atom_site_symmetry_multiplicity
 _atom_site_fract_x
 _atom_site_fract_y
 _atom_site_fract_z
 _atom_site_occupancy
  Pr  Pr0  1  0.27723257  0.48817878  0.88214754  1
  Pr  Pr1  1  0.73391326  0.51005223  0.13821880  1
  Pr  Pr2  1  0.76408785  0.06332045  0.87704572  1
  Pr  Pr3  1  0.23457702  0.91113631  0.12348347  1
  Mn  Mn4  1  0.29773748  0.39859920  0.60339917  1
  Mn  Mn5  1  0.68956152  0.47911447  0.35884851  1
  Mn  Mn6  1  0.00752841  0.97114374  0.02323565  1
  Mn  Mn7  1  0.79562345  0.98212955  0.63330715  1
  Mn  Mn8  1  0.21396298  0.05368863  0.39889267  1
  Mn  Mn9  1  0.47332912  0.50147663  0.96954029  1
  Sb  Sb10  1  0.88245915  0.88433429  0.45565229  1
  Sb  Sb11  1  0.11335772  0.98914851  0.53989365  1
  Sb  Sb12  1  0.03508711  0.49369625  0.82574273  1
  Sb  Sb13  1  0.96523401  0.46479601  0.20169762  1
  Sb  Sb14  1  0.41404087  0.57936915  0.46240433  1
  Sb  Sb15  1  0.60013292  0.56995460  0.53327256  1
  Sb  Sb16  1  0.53265670  0.93488070  0.80401726  1
  Sb  Sb17  1  0.46883636  0.96412144  0.18408233  1
  S  S18  1  0.93248525  0.96549147  0.80075598  1
  S  S19  1  0.06087859  0.98982155  0.20200633  1
  S  S20  1  0.41650972  0.00365849  0.98789554  1
  S  S21  1  0.57759614  0.99266011  0.00156259  1
  S  S22  1  0.16858629  0.93579705  0.89066485  1
  S  S23  1  0.82730200  0.03920026  0.11224367  1
  S  S24  1  0.10942902  0.48535807  0.65497490  1
  S  S25  1  0.89305502  0.42598248  0.35038461  1
  S  S26  1  0.73098645  0.97831831  0.30910256  1
  S  S27  1  0.26528704  0.92657395  0.67982112  1
  S  S28  1  0.17285884  0.47803633  0.45403152  1
  S  S29  1  0.81436121  0.49856201  0.54252203  1
  S  S30  1  0.43111965  0.46007287  0.79355076  1
  S  S31  1  0.56596827  0.50110706  0.19331713  1
  S  S32  1  0.91835911  0.50857233  0.99934095  1
  S  S33  1  0.08393174  0.45589470  0.03528058  1
  S  S34  1  0.67742426  0.57503514  0.91586684  1
  S  S35  1  0.33219001  0.43437626  0.11218370  1
  S  S36  1  0.60141942  0.01752144  0.66650083  1
  S  S37  1  0.40806631  0.05250228  0.34516302  1
  S  S38  1  0.24851681  0.52688934  0.33393529  1
  S  S39  1  0.76249412  0.51373479  0.68682477  1
  S  S40  1  0.66584300  0.96083945  0.45052331  1
  S  S41  1  0.33037891  0.91953247  0.55659560  1
