# generated using pymatgen
data_Pr2Mn3(SbS3)4
_symmetry_space_group_name_H-M   'P 1'
_cell_length_a   20.02960800
_cell_length_b   3.90410600
_cell_length_c   14.95364829
_cell_angle_alpha   90.00000000
_cell_angle_beta   126.33350609
_cell_angle_gamma   90.00000000
_symmetry_Int_Tables_number   1
_chemical_formula_structural   Pr2Mn3(SbS3)4
_chemical_formula_sum   'Pr4 Mn6 Sb8 S24'
_cell_volume   942.00006694
_cell_formula_units_Z   2
loop_
 _symmetry_equiv_pos_site_id
 _symmetry_equiv_pos_as_xyz
  1  'x, y, z'
loop_
 _atom_site_type_symbol
 _atom_site_label
 _atom_site_symmetry_multiplicity
 _atom_site_fract_x
 _atom_site_fract_y
 _atom_site_fract_z
 _atom_site_occupancy
  Pr  Pr0  1  0.27721449  0.48749392  0.88199671  1
  Pr  Pr1  1  0.73376871  0.51027908  0.13786466  1
  Pr  Pr2  1  0.76415763  0.06364090  0.87717461  1
  Pr  Pr3  1  0.23463586  0.91089267  0.12351094  1
  Mn  Mn4  1  0.29755621  0.39771522  0.60328094  1
  Mn  Mn5  1  0.68960181  0.47905062  0.35902254  1
  Mn  Mn6  1  0.00764107  0.97160646  0.02321897  1
  Mn  Mn7  1  0.79562713  0.98302059  0.63346537  1
  Mn  Mn8  1  0.21393994  0.05399591  0.39861608  1
  Mn  Mn9  1  0.47357331  0.50151717  0.96987639  1
  Sb  Sb10  1  0.88240686  0.88363911  0.45566218  1
  Sb  Sb11  1  0.11321153  0.98919051  0.53980143  1
  Sb  Sb12  1  0.03500083  0.49345220  0.82574146  1
  Sb  Sb13  1  0.96515810  0.46424055  0.20175442  1
  Sb  Sb14  1  0.41404516  0.57913246  0.46249884  1
  Sb  Sb15  1  0.60015072  0.57062662  0.53319935  1
  Sb  Sb16  1  0.53278610  0.93467752  0.80406001  1
  Sb  Sb17  1  0.46897370  0.96427452  0.18408779  1
  S  S18  1  0.93250176  0.96553287  0.80080334  1
  S  S19  1  0.06103937  0.99159478  0.20239724  1
  S  S20  1  0.41651925  0.00289129  0.98782738  1
  S  S21  1  0.57735018  0.99366036  0.00160977  1
  S  S22  1  0.16810521  0.93627589  0.89061205  1
  S  S23  1  0.82744367  0.03951110  0.11217705  1
  S  S24  1  0.10940695  0.48432654  0.65487685  1
  S  S25  1  0.89300678  0.42590284  0.35023924  1
  S  S26  1  0.73104145  0.97775287  0.30903346  1
  S  S27  1  0.26501190  0.92635897  0.67967709  1
  S  S28  1  0.17256516  0.47799213  0.45414441  1
  S  S29  1  0.81443501  0.49942493  0.54225776  1
  S  S30  1  0.43101191  0.46110523  0.79349413  1
  S  S31  1  0.56607571  0.50239532  0.19362118  1
  S  S32  1  0.91860430  0.50762698  0.99935489  1
  S  S33  1  0.08434351  0.45692431  0.03572888  1
  S  S34  1  0.67746346  0.57524989  0.91610789  1
  S  S35  1  0.33237819  0.43491354  0.11232332  1
  S  S36  1  0.60177876  0.01655502  0.66697989  1
  S  S37  1  0.40810634  0.05385235  0.34509560  1
  S  S38  1  0.24821530  0.52734591  0.33357488  1
  S  S39  1  0.76233387  0.51368549  0.68665109  1
  S  S40  1  0.66587826  0.96220930  0.45072230  1
  S  S41  1  0.33041561  0.92043973  0.55635759  1
