# generated using pymatgen
data_Pr2Mn3(SbS3)4
_symmetry_space_group_name_H-M   'P 1'
_cell_length_a   20.02960800
_cell_length_b   3.90410600
_cell_length_c   14.95364829
_cell_angle_alpha   90.00000000
_cell_angle_beta   126.33350609
_cell_angle_gamma   90.00000000
_symmetry_Int_Tables_number   1
_chemical_formula_structural   Pr2Mn3(SbS3)4
_chemical_formula_sum   'Pr4 Mn6 Sb8 S24'
_cell_volume   942.00006694
_cell_formula_units_Z   2
loop_
 _symmetry_equiv_pos_site_id
 _symmetry_equiv_pos_as_xyz
  1  'x, y, z'
loop_
 _atom_site_type_symbol
 _atom_site_label
 _atom_site_symmetry_multiplicity
 _atom_site_fract_x
 _atom_site_fract_y
 _atom_site_fract_z
 _atom_site_occupancy
  Pr  Pr0  1  0.27717753  0.48678397  0.88186791  1
  Pr  Pr1  1  0.73365121  0.51034005  0.13760514  1
  Pr  Pr2  1  0.76423100  0.06403112  0.87734364  1
  Pr  Pr3  1  0.23464489  0.91081359  0.12351049  1
  Mn  Mn4  1  0.29738560  0.39709813  0.60309763  1
  Mn  Mn5  1  0.68965389  0.47893740  0.35917298  1
  Mn  Mn6  1  0.00768277  0.97194993  0.02309645  1
  Mn  Mn7  1  0.79568879  0.98418973  0.63368278  1
  Mn  Mn8  1  0.21387940  0.05420186  0.39847260  1
  Mn  Mn9  1  0.47377543  0.50150149  0.97006575  1
  Sb  Sb10  1  0.88240016  0.88334736  0.45572134  1
  Sb  Sb11  1  0.11306752  0.98907280  0.53973928  1
  Sb  Sb12  1  0.03484523  0.49350646  0.82562821  1
  Sb  Sb13  1  0.96511476  0.46379585  0.20180902  1
  Sb  Sb14  1  0.41406720  0.57899391  0.46261086  1
  Sb  Sb15  1  0.60017318  0.57127065  0.53308523  1
  Sb  Sb16  1  0.53286423  0.93448876  0.80409129  1
  Sb  Sb17  1  0.46910785  0.96445977  0.18410936  1
  S  S18  1  0.93240182  0.96580452  0.80082111  1
  S  S19  1  0.06111738  0.99306238  0.20275541  1
  S  S20  1  0.41649932  0.00244489  0.98773210  1
  S  S21  1  0.57697415  0.99475861  0.00142221  1
  S  S22  1  0.16765272  0.93668485  0.89050673  1
  S  S23  1  0.82739135  0.03950766  0.11192686  1
  S  S24  1  0.10934132  0.48359208  0.65478957  1
  S  S25  1  0.89302911  0.42623511  0.35027801  1
  S  S26  1  0.73119445  0.97699829  0.30897674  1
  S  S27  1  0.26472820  0.92628294  0.67946359  1
  S  S28  1  0.17226544  0.47689520  0.45416458  1
  S  S29  1  0.81452591  0.50044105  0.54195373  1
  S  S30  1  0.43098405  0.46203227  0.79319548  1
  S  S31  1  0.56610629  0.50349575  0.19367613  1
  S  S32  1  0.91883300  0.50678334  0.99927907  1
  S  S33  1  0.08473563  0.45786768  0.03623081  1
  S  S34  1  0.67751781  0.57484187  0.91634889  1
  S  S35  1  0.33247954  0.43568482  0.11228247  1
  S  S36  1  0.60218226  0.01581246  0.66742304  1
  S  S37  1  0.40809423  0.05486874  0.34511971  1
  S  S38  1  0.24790614  0.52652882  0.33316957  1
  S  S39  1  0.76232595  0.51282695  0.68669479  1
  S  S40  1  0.66596452  0.96328165  0.45092271  1
  S  S41  1  0.33044952  0.92129833  0.55589194  1
