# generated using pymatgen
data_Pr2Mn3(SbS3)4
_symmetry_space_group_name_H-M   'P 1'
_cell_length_a   20.02960800
_cell_length_b   3.90410600
_cell_length_c   14.95364829
_cell_angle_alpha   90.00000000
_cell_angle_beta   126.33350609
_cell_angle_gamma   90.00000000
_symmetry_Int_Tables_number   1
_chemical_formula_structural   Pr2Mn3(SbS3)4
_chemical_formula_sum   'Pr4 Mn6 Sb8 S24'
_cell_volume   942.00006694
_cell_formula_units_Z   2
loop_
 _symmetry_equiv_pos_site_id
 _symmetry_equiv_pos_as_xyz
  1  'x, y, z'
loop_
 _atom_site_type_symbol
 _atom_site_label
 _atom_site_symmetry_multiplicity
 _atom_site_fract_x
 _atom_site_fract_y
 _atom_site_fract_z
 _atom_site_occupancy
  Pr  Pr0  1  0.27715424  0.48589750  0.88173988  1
  Pr  Pr1  1  0.73358200  0.51014381  0.13740552  1
  Pr  Pr2  1  0.76422630  0.06464146  0.87748294  1
  Pr  Pr3  1  0.23462203  0.91073634  0.12347474  1
  Mn  Mn4  1  0.29722919  0.39679475  0.60279616  1
  Mn  Mn5  1  0.68968319  0.47876160  0.35928721  1
  Mn  Mn6  1  0.00775415  0.97193113  0.02300965  1
  Mn  Mn7  1  0.79582959  0.98551457  0.63398825  1
  Mn  Mn8  1  0.21385505  0.05459530  0.39837968  1
  Mn  Mn9  1  0.47393247  0.50159583  0.97027190  1
  Sb  Sb10  1  0.88244314  0.88323499  0.45578528  1
  Sb  Sb11  1  0.11292897  0.98892589  0.53967663  1
  Sb  Sb12  1  0.03470318  0.49344948  0.82545541  1
  Sb  Sb13  1  0.96508891  0.46334673  0.20181447  1
  Sb  Sb14  1  0.41414492  0.57884361  0.46278383  1
  Sb  Sb15  1  0.60019110  0.57193957  0.53303718  1
  Sb  Sb16  1  0.53296885  0.93424319  0.80418325  1
  Sb  Sb17  1  0.46927120  0.96480442  0.18414905  1
  S  S18  1  0.93230594  0.96610876  0.80074620  1
  S  S19  1  0.06125471  0.99435349  0.20322948  1
  S  S20  1  0.41637366  0.00207753  0.98743993  1
  S  S21  1  0.57667509  0.99581071  0.00122773  1
  S  S22  1  0.16731283  0.93699561  0.89043740  1
  S  S23  1  0.82732521  0.03938790  0.11160305  1
  S  S24  1  0.10919744  0.48347666  0.65468620  1
  S  S25  1  0.89296675  0.42660613  0.35023467  1
  S  S26  1  0.73124706  0.97661408  0.30891034  1
  S  S27  1  0.26445643  0.92632210  0.67928727  1
  S  S28  1  0.17201296  0.47582312  0.45410891  1
  S  S29  1  0.81456090  0.50083361  0.54172171  1
  S  S30  1  0.43094494  0.46296702  0.79276320  1
  S  S31  1  0.56616373  0.50454383  0.19373143  1
  S  S32  1  0.91909999  0.50541275  0.99916773  1
  S  S33  1  0.08508935  0.45912191  0.03664021  1
  S  S34  1  0.67757374  0.57447895  0.91658660  1
  S  S35  1  0.33246906  0.43621951  0.11224260  1
  S  S36  1  0.60261483  0.01505487  0.66778490  1
  S  S37  1  0.40817275  0.05537581  0.34530281  1
  S  S38  1  0.24745069  0.52613719  0.33259511  1
  S  S39  1  0.76227236  0.51184350  0.68667374  1
  S  S40  1  0.66597075  0.96443094  0.45105455  1
  S  S41  1  0.33049521  0.92220155  0.55554644  1
