# generated using pymatgen
data_Pr2Mn3(SbS3)4
_symmetry_space_group_name_H-M   'P 1'
_cell_length_a   20.02960800
_cell_length_b   3.90410600
_cell_length_c   14.95364829
_cell_angle_alpha   90.00000000
_cell_angle_beta   126.33350609
_cell_angle_gamma   90.00000000
_symmetry_Int_Tables_number   1
_chemical_formula_structural   Pr2Mn3(SbS3)4
_chemical_formula_sum   'Pr4 Mn6 Sb8 S24'
_cell_volume   942.00006694
_cell_formula_units_Z   2
loop_
 _symmetry_equiv_pos_site_id
 _symmetry_equiv_pos_as_xyz
  1  'x, y, z'
loop_
 _atom_site_type_symbol
 _atom_site_label
 _atom_site_symmetry_multiplicity
 _atom_site_fract_x
 _atom_site_fract_y
 _atom_site_fract_z
 _atom_site_occupancy
  Pr  Pr0  1  0.26444005  0.47121753  0.86872587  1
  Pr  Pr1  1  0.73763585  0.52289612  0.13796650  1
  Pr  Pr2  1  0.76416211  0.01224501  0.86459950  1
  Pr  Pr3  1  0.23680710  0.00513138  0.13844658  1
  Mn  Mn4  1  0.29256469  0.48655434  0.60215610  1
  Mn  Mn5  1  0.69402813  0.52254950  0.38063703  1
  Mn  Mn6  1  0.00709753  0.99520089  0.00795386  1
  Mn  Mn7  1  0.80334420  0.00618650  0.61449080  1
  Mn  Mn8  1  0.19515679  0.97274954  0.37735868  1
  Mn  Mn9  1  0.49952928  0.45748847  0.99043354  1
  Sb  Sb10  1  0.89013937  0.99476108  0.45259152  1
  Sb  Sb11  1  0.11175022  0.96557367  0.55091690  1
  Sb  Sb12  1  0.03941651  0.51598878  0.81787652  1
  Sb  Sb13  1  0.96344101  0.51194143  0.18611620  1
  Sb  Sb14  1  0.39697520  0.50676245  0.45599385  1
  Sb  Sb15  1  0.60646480  0.48382684  0.54701758  1
  Sb  Sb16  1  0.53420871  0.00972113  0.81163744  1
  Sb  Sb17  1  0.46192985  0.01213997  0.18299681  1
  S  S18  1  0.93579746  0.98616602  0.80509049  1
  S  S19  1  0.06537443  0.97387358  0.18492871  1
  S  S20  1  0.41085819  0.01066875  0.97947002  1
  S  S21  1  0.59128880  0.99649257  0.02382787  1
  S  S22  1  0.17198962  0.99041940  0.89465967  1
  S  S23  1  0.82514440  0.01954862  0.09486083  1
  S  S24  1  0.08744734  0.47668459  0.64463293  1
  S  S25  1  0.90905660  0.47383623  0.35477256  1
  S  S26  1  0.73961356  0.95924788  0.29740587  1
  S  S27  1  0.25864553  0.99819904  0.70508434  1
  S  S28  1  0.17106023  0.48309913  0.44401650  1
  S  S29  1  0.82880469  0.49040303  0.55008569  1
  S  S30  1  0.43354089  0.49987601  0.79646001  1
  S  S31  1  0.56114374  0.50977346  0.18225208  1
  S  S32  1  0.91496344  0.50344949  0.99490464  1
  S  S33  1  0.08174239  0.49581002  0.01294705  1
  S  S34  1  0.66595399  0.48414331  0.88809715  1
  S  S35  1  0.32639280  0.51020257  0.09104125  1
  S  S36  1  0.59483881  0.00105346  0.65941547  1
  S  S37  1  0.40691589  0.97287781  0.34690951  1
  S  S38  1  0.24621444  0.45099139  0.31250197  1
  S  S39  1  0.76212892  0.50393844  0.70097345  1
  S  S40  1  0.67693749  0.02212054  0.46107901  1
  S  S41  1  0.32672289  0.97874877  0.54436829  1
