# generated using pymatgen
data_Pr2Mn3(SbS3)4
_symmetry_space_group_name_H-M   'P 1'
_cell_length_a   20.02960800
_cell_length_b   3.90410600
_cell_length_c   14.95364829
_cell_angle_alpha   90.00000000
_cell_angle_beta   126.33350609
_cell_angle_gamma   90.00000000
_symmetry_Int_Tables_number   1
_chemical_formula_structural   Pr2Mn3(SbS3)4
_chemical_formula_sum   'Pr4 Mn6 Sb8 S24'
_cell_volume   942.00006694
_cell_formula_units_Z   2
loop_
 _symmetry_equiv_pos_site_id
 _symmetry_equiv_pos_as_xyz
  1  'x, y, z'
loop_
 _atom_site_type_symbol
 _atom_site_label
 _atom_site_symmetry_multiplicity
 _atom_site_fract_x
 _atom_site_fract_y
 _atom_site_fract_z
 _atom_site_occupancy
  Pr  Pr0  1  0.27706850  0.48525334  0.88163901  1
  Pr  Pr1  1  0.73355152  0.51004745  0.13727430  1
  Pr  Pr2  1  0.76426219  0.06528342  0.87767653  1
  Pr  Pr3  1  0.23461832  0.91097529  0.12343226  1
  Mn  Mn4  1  0.29708945  0.39679725  0.60261745  1
  Mn  Mn5  1  0.68969690  0.47865052  0.35937921  1
  Mn  Mn6  1  0.00781045  0.97194261  0.02288769  1
  Mn  Mn7  1  0.79591570  0.98663398  0.63418897  1
  Mn  Mn8  1  0.21388891  0.05493376  0.39837152  1
  Mn  Mn9  1  0.47402488  0.50176683  0.97032640  1
  Sb  Sb10  1  0.88251279  0.88293883  0.45586576  1
  Sb  Sb11  1  0.11280574  0.98866496  0.53963748  1
  Sb  Sb12  1  0.03450081  0.49354398  0.82523841  1
  Sb  Sb13  1  0.96503199  0.46308302  0.20179632  1
  Sb  Sb14  1  0.41419906  0.57870080  0.46287984  1
  Sb  Sb15  1  0.60020692  0.57268110  0.53296997  1
  Sb  Sb16  1  0.53308680  0.93412206  0.80430454  1
  Sb  Sb17  1  0.46947272  0.96514544  0.18415835  1
  S  S18  1  0.93224611  0.96618285  0.80079868  1
  S  S19  1  0.06142126  0.99574252  0.20366931  1
  S  S20  1  0.41625740  0.00216537  0.98733385  1
  S  S21  1  0.57634864  0.99639749  0.00122789  1
  S  S22  1  0.16694579  0.93775173  0.89030543  1
  S  S23  1  0.82732756  0.03944041  0.11134720  1
  S  S24  1  0.10898945  0.48303595  0.65438020  1
  S  S25  1  0.89307579  0.42636364  0.35039569  1
  S  S26  1  0.73123655  0.97613290  0.30871293  1
  S  S27  1  0.26416118  0.92606898  0.67911815  1
  S  S28  1  0.17170791  0.47492532  0.45408495  1
  S  S29  1  0.81452813  0.50151233  0.54147138  1
  S  S30  1  0.43101713  0.46358304  0.79260558  1
  S  S31  1  0.56619995  0.50572719  0.19380892  1
  S  S32  1  0.91942979  0.50409086  0.99916022  1
  S  S33  1  0.08529868  0.46078895  0.03683469  1
  S  S34  1  0.67766984  0.57460078  0.91675711  1
  S  S35  1  0.33251902  0.43649825  0.11225182  1
  S  S36  1  0.60294378  0.01445677  0.66798185  1
  S  S37  1  0.40819230  0.05570763  0.34544791  1
  S  S38  1  0.24693394  0.52553005  0.33198188  1
  S  S39  1  0.76237412  0.51127653  0.68674395  1
  S  S40  1  0.66599404  0.96552537  0.45121755  1
  S  S41  1  0.33059227  0.92277633  0.55532356  1
