# generated using pymatgen
data_Pr2Mn3(SbS3)4
_symmetry_space_group_name_H-M   'P 1'
_cell_length_a   20.02960800
_cell_length_b   3.90410600
_cell_length_c   14.95364829
_cell_angle_alpha   90.00000000
_cell_angle_beta   126.33350609
_cell_angle_gamma   90.00000000
_symmetry_Int_Tables_number   1
_chemical_formula_structural   Pr2Mn3(SbS3)4
_chemical_formula_sum   'Pr4 Mn6 Sb8 S24'
_cell_volume   942.00006694
_cell_formula_units_Z   2
loop_
 _symmetry_equiv_pos_site_id
 _symmetry_equiv_pos_as_xyz
  1  'x, y, z'
loop_
 _atom_site_type_symbol
 _atom_site_label
 _atom_site_symmetry_multiplicity
 _atom_site_fract_x
 _atom_site_fract_y
 _atom_site_fract_z
 _atom_site_occupancy
  Pr  Pr0  1  0.27699697  0.48458764  0.88155368  1
  Pr  Pr1  1  0.73362058  0.51019249  0.13720471  1
  Pr  Pr2  1  0.76432126  0.06592133  0.87789637  1
  Pr  Pr3  1  0.23465614  0.91113616  0.12338465  1
  Mn  Mn4  1  0.29695315  0.39655658  0.60235070  1
  Mn  Mn5  1  0.68954811  0.47868702  0.35936015  1
  Mn  Mn6  1  0.00787633  0.97174562  0.02289161  1
  Mn  Mn7  1  0.79598844  0.98701802  0.63441098  1
  Mn  Mn8  1  0.21389006  0.05534991  0.39835582  1
  Mn  Mn9  1  0.47417663  0.50196588  0.97035280  1
  Sb  Sb10  1  0.88251408  0.88268152  0.45583540  1
  Sb  Sb11  1  0.11268745  0.98825858  0.53959225  1
  Sb  Sb12  1  0.03434565  0.49393042  0.82495904  1
  Sb  Sb13  1  0.96502380  0.46302002  0.20184644  1
  Sb  Sb14  1  0.41424926  0.57859912  0.46301291  1
  Sb  Sb15  1  0.60020421  0.57323324  0.53287125  1
  Sb  Sb16  1  0.53315639  0.93383352  0.80436021  1
  Sb  Sb17  1  0.46962098  0.96534816  0.18415994  1
  S  S18  1  0.93214182  0.96604070  0.80091676  1
  S  S19  1  0.06149685  0.99724782  0.20408828  1
  S  S20  1  0.41605809  0.00242894  0.98710777  1
  S  S21  1  0.57614557  0.99704340  0.00132417  1
  S  S22  1  0.16665193  0.93868175  0.89014851  1
  S  S23  1  0.82737224  0.03930907  0.11124014  1
  S  S24  1  0.10872238  0.48226137  0.65408019  1
  S  S25  1  0.89316650  0.42600195  0.35046395  1
  S  S26  1  0.73128104  0.97531615  0.30865462  1
  S  S27  1  0.26390970  0.92602087  0.67909115  1
  S  S28  1  0.17140925  0.47472557  0.45406609  1
  S  S29  1  0.81454254  0.50219267  0.54133639  1
  S  S30  1  0.43096888  0.46473469  0.79241338  1
  S  S31  1  0.56623050  0.50648855  0.19382587  1
  S  S32  1  0.91968708  0.50314752  0.99909904  1
  S  S33  1  0.08541734  0.46258219  0.03714396  1
  S  S34  1  0.67767252  0.57440488  0.91683993  1
  S  S35  1  0.33264221  0.43658093  0.11230523  1
  S  S36  1  0.60322888  0.01373060  0.66821328  1
  S  S37  1  0.40823404  0.05593808  0.34549699  1
  S  S38  1  0.24653400  0.52525973  0.33154325  1
  S  S39  1  0.76257029  0.51071815  0.68685450  1
  S  S40  1  0.66609591  0.96700444  0.45140466  1
  S  S41  1  0.33068826  0.92293431  0.55507116  1
