# generated using pymatgen
data_Pr2Mn3(SbS3)4
_symmetry_space_group_name_H-M   'P 1'
_cell_length_a   20.02960800
_cell_length_b   3.90410600
_cell_length_c   14.95364829
_cell_angle_alpha   90.00000000
_cell_angle_beta   126.33350609
_cell_angle_gamma   90.00000000
_symmetry_Int_Tables_number   1
_chemical_formula_structural   Pr2Mn3(SbS3)4
_chemical_formula_sum   'Pr4 Mn6 Sb8 S24'
_cell_volume   942.00006694
_cell_formula_units_Z   2
loop_
 _symmetry_equiv_pos_site_id
 _symmetry_equiv_pos_as_xyz
  1  'x, y, z'
loop_
 _atom_site_type_symbol
 _atom_site_label
 _atom_site_symmetry_multiplicity
 _atom_site_fract_x
 _atom_site_fract_y
 _atom_site_fract_z
 _atom_site_occupancy
  Pr  Pr0  1  0.27689827  0.48377413  0.88143631  1
  Pr  Pr1  1  0.73369372  0.51025647  0.13719859  1
  Pr  Pr2  1  0.76442960  0.06624759  0.87816165  1
  Pr  Pr3  1  0.23472692  0.91107281  0.12338025  1
  Mn  Mn4  1  0.29694397  0.39657717  0.60212578  1
  Mn  Mn5  1  0.68942191  0.47863654  0.35924135  1
  Mn  Mn6  1  0.00794931  0.97140148  0.02286015  1
  Mn  Mn7  1  0.79608451  0.98715267  0.63465919  1
  Mn  Mn8  1  0.21372096  0.05561413  0.39824087  1
  Mn  Mn9  1  0.47429659  0.50246458  0.97037446  1
  Sb  Sb10  1  0.88253081  0.88248692  0.45583037  1
  Sb  Sb11  1  0.11260777  0.98809556  0.53957248  1
  Sb  Sb12  1  0.03421245  0.49413513  0.82475357  1
  Sb  Sb13  1  0.96497088  0.46292887  0.20192479  1
  Sb  Sb14  1  0.41433933  0.57866022  0.46314813  1
  Sb  Sb15  1  0.60028789  0.57372800  0.53285526  1
  Sb  Sb16  1  0.53321599  0.93355282  0.80438616  1
  Sb  Sb17  1  0.46967237  0.96558868  0.18415227  1
  S  S18  1  0.93206025  0.96569974  0.80093305  1
  S  S19  1  0.06152374  0.99896208  0.20451329  1
  S  S20  1  0.41583727  0.00276496  0.98678759  1
  S  S21  1  0.57602893  0.99801418  0.00149411  1
  S  S22  1  0.16634969  0.93960625  0.88992849  1
  S  S23  1  0.82741339  0.03914116  0.11105308  1
  S  S24  1  0.10843563  0.48122195  0.65369256  1
  S  S25  1  0.89313992  0.42544767  0.35050200  1
  S  S26  1  0.73127035  0.97492088  0.30853592  1
  S  S27  1  0.26373002  0.92599211  0.67911135  1
  S  S28  1  0.17115137  0.47506571  0.45401466  1
  S  S29  1  0.81450603  0.50217014  0.54128685  1
  S  S30  1  0.43092617  0.46629318  0.79218967  1
  S  S31  1  0.56614298  0.50719407  0.19381347  1
  S  S32  1  0.91993558  0.50204598  0.99916067  1
  S  S33  1  0.08549484  0.46460249  0.03734487  1
  S  S34  1  0.67760797  0.57402175  0.91686213  1
  S  S35  1  0.33272574  0.43636871  0.11240978  1
  S  S36  1  0.60352136  0.01337977  0.66839321  1
  S  S37  1  0.40830799  0.05656349  0.34568848  1
  S  S38  1  0.24625239  0.52498849  0.33127503  1
  S  S39  1  0.76286123  0.51006040  0.68705567  1
  S  S40  1  0.66627112  0.96894755  0.45167106  1
  S  S41  1  0.33064173  0.92344878  0.55489492  1
