# generated using pymatgen
data_Pr2Mn3(SbS3)4
_symmetry_space_group_name_H-M   'P 1'
_cell_length_a   20.02960800
_cell_length_b   3.90410600
_cell_length_c   14.95364829
_cell_angle_alpha   90.00000000
_cell_angle_beta   126.33350609
_cell_angle_gamma   90.00000000
_symmetry_Int_Tables_number   1
_chemical_formula_structural   Pr2Mn3(SbS3)4
_chemical_formula_sum   'Pr4 Mn6 Sb8 S24'
_cell_volume   942.00006694
_cell_formula_units_Z   2
loop_
 _symmetry_equiv_pos_site_id
 _symmetry_equiv_pos_as_xyz
  1  'x, y, z'
loop_
 _atom_site_type_symbol
 _atom_site_label
 _atom_site_symmetry_multiplicity
 _atom_site_fract_x
 _atom_site_fract_y
 _atom_site_fract_z
 _atom_site_occupancy
  Pr  Pr0  1  0.27680535  0.48282812  0.88133584  1
  Pr  Pr1  1  0.73381316  0.51023541  0.13720157  1
  Pr  Pr2  1  0.76457745  0.06672941  0.87844052  1
  Pr  Pr3  1  0.23477188  0.91086429  0.12337094  1
  Mn  Mn4  1  0.29681450  0.39659436  0.60183255  1
  Mn  Mn5  1  0.68926870  0.47854930  0.35906618  1
  Mn  Mn6  1  0.00805328  0.97110377  0.02286178  1
  Mn  Mn7  1  0.79617703  0.98724537  0.63489625  1
  Mn  Mn8  1  0.21352280  0.05565975  0.39816994  1
  Mn  Mn9  1  0.47437022  0.50295984  0.97036794  1
  Sb  Sb10  1  0.88254123  0.88217953  0.45580405  1
  Sb  Sb11  1  0.11253527  0.98793023  0.53960568  1
  Sb  Sb12  1  0.03406737  0.49452215  0.82455409  1
  Sb  Sb13  1  0.96488776  0.46286899  0.20198151  1
  Sb  Sb14  1  0.41434148  0.57864110  0.46321784  1
  Sb  Sb15  1  0.60029726  0.57416751  0.53276531  1
  Sb  Sb16  1  0.53328804  0.93344963  0.80436974  1
  Sb  Sb17  1  0.46970518  0.96598052  0.18408629  1
  S  S18  1  0.93209314  0.96574890  0.80112701  1
  S  S19  1  0.06165879  0.00085612  0.20501216  1
  S  S20  1  0.41568061  0.00257725  0.98630676  1
  S  S21  1  0.57593909  0.99890174  0.00170457  1
  S  S22  1  0.16603677  0.94072169  0.88968550  1
  S  S23  1  0.82737703  0.03912790  0.11071723  1
  S  S24  1  0.10808064  0.48043516  0.65326282  1
  S  S25  1  0.89314279  0.42454458  0.35049445  1
  S  S26  1  0.73120190  0.97436937  0.30830488  1
  S  S27  1  0.26356053  0.92564780  0.67922571  1
  S  S28  1  0.17094221  0.47539780  0.45403646  1
  S  S29  1  0.81461574  0.50261410  0.54147485  1
  S  S30  1  0.43103009  0.46760582  0.79215876  1
  S  S31  1  0.56592746  0.50809743  0.19373567  1
  S  S32  1  0.91998061  0.50105521  0.99907721  1
  S  S33  1  0.08545479  0.46644775  0.03740131  1
  S  S34  1  0.67745111  0.57371912  0.91680288  1
  S  S35  1  0.33284586  0.43582166  0.11243968  1
  S  S36  1  0.60389640  0.01288249  0.66863881  1
  S  S37  1  0.40834959  0.05737909  0.34576151  1
  S  S38  1  0.24604698  0.52517086  0.33094663  1
  S  S39  1  0.76308034  0.50953331  0.68723880  1
  S  S40  1  0.66639285  0.97080523  0.45186452  1
  S  S41  1  0.33057034  0.92334442  0.55447718  1
