# generated using pymatgen
data_Pr2Mn3(SbS3)4
_symmetry_space_group_name_H-M   'P 1'
_cell_length_a   20.02960800
_cell_length_b   3.90410600
_cell_length_c   14.95364829
_cell_angle_alpha   90.00000000
_cell_angle_beta   126.33350609
_cell_angle_gamma   90.00000000
_symmetry_Int_Tables_number   1
_chemical_formula_structural   Pr2Mn3(SbS3)4
_chemical_formula_sum   'Pr4 Mn6 Sb8 S24'
_cell_volume   942.00006694
_cell_formula_units_Z   2
loop_
 _symmetry_equiv_pos_site_id
 _symmetry_equiv_pos_as_xyz
  1  'x, y, z'
loop_
 _atom_site_type_symbol
 _atom_site_label
 _atom_site_symmetry_multiplicity
 _atom_site_fract_x
 _atom_site_fract_y
 _atom_site_fract_z
 _atom_site_occupancy
  Pr  Pr0  1  0.27673999  0.48190085  0.88123180  1
  Pr  Pr1  1  0.73394204  0.51035923  0.13728078  1
  Pr  Pr2  1  0.76475169  0.06730019  0.87871735  1
  Pr  Pr3  1  0.23474287  0.91069254  0.12330444  1
  Mn  Mn4  1  0.29671070  0.39680217  0.60153785  1
  Mn  Mn5  1  0.68917627  0.47845178  0.35897978  1
  Mn  Mn6  1  0.00822628  0.97063587  0.02290913  1
  Mn  Mn7  1  0.79619715  0.98786402  0.63501412  1
  Mn  Mn8  1  0.21328962  0.05556145  0.39815534  1
  Mn  Mn9  1  0.47446186  0.50347326  0.97040111  1
  Sb  Sb10  1  0.88259354  0.88164884  0.45586106  1
  Sb  Sb11  1  0.11245132  0.98782672  0.53961597  1
  Sb  Sb12  1  0.03400058  0.49480762  0.82443372  1
  Sb  Sb13  1  0.96485466  0.46270373  0.20201834  1
  Sb  Sb14  1  0.41429543  0.57830999  0.46319912  1
  Sb  Sb15  1  0.60036737  0.57460937  0.53276720  1
  Sb  Sb16  1  0.53334022  0.93304119  0.80428810  1
  Sb  Sb17  1  0.46980632  0.96640174  0.18412461  1
  S  S18  1  0.93217832  0.96614247  0.80134890  1
  S  S19  1  0.06168672  0.00284656  0.20545793  1
  S  S20  1  0.41547923  0.00245867  0.98575276  1
  S  S21  1  0.57590030  0.99936695  0.00190881  1
  S  S22  1  0.16576377  0.94179154  0.88939296  1
  S  S23  1  0.82724427  0.03923567  0.11040561  1
  S  S24  1  0.10765766  0.47899111  0.65281125  1
  S  S25  1  0.89323527  0.42402991  0.35060969  1
  S  S26  1  0.73106810  0.97371554  0.30802786  1
  S  S27  1  0.26345908  0.92565281  0.67942733  1
  S  S28  1  0.17077054  0.47576179  0.45407339  1
  S  S29  1  0.81471653  0.50233210  0.54162773  1
  S  S30  1  0.43103334  0.46856442  0.79190620  1
  S  S31  1  0.56572166  0.50923621  0.19350327  1
  S  S32  1  0.92005580  0.49979161  0.99906820  1
  S  S33  1  0.08538744  0.46742397  0.03733698  1
  S  S34  1  0.67738569  0.57348462  0.91678123  1
  S  S35  1  0.33290454  0.43525719  0.11235568  1
  S  S36  1  0.60434510  0.01254461  0.66891963  1
  S  S37  1  0.40844137  0.05875112  0.34600097  1
  S  S38  1  0.24588905  0.52563215  0.33061986  1
  S  S39  1  0.76319260  0.50881025  0.68739551  1
  S  S40  1  0.66648987  0.97232042  0.45204537  1
  S  S41  1  0.33054453  0.92277847  0.55407831  1
