# generated using pymatgen
data_Pr2Mn3(SbS3)4
_symmetry_space_group_name_H-M   'P 1'
_cell_length_a   20.02960800
_cell_length_b   3.90410600
_cell_length_c   14.95364829
_cell_angle_alpha   90.00000000
_cell_angle_beta   126.33350609
_cell_angle_gamma   90.00000000
_symmetry_Int_Tables_number   1
_chemical_formula_structural   Pr2Mn3(SbS3)4
_chemical_formula_sum   'Pr4 Mn6 Sb8 S24'
_cell_volume   942.00006694
_cell_formula_units_Z   2
loop_
 _symmetry_equiv_pos_site_id
 _symmetry_equiv_pos_as_xyz
  1  'x, y, z'
loop_
 _atom_site_type_symbol
 _atom_site_label
 _atom_site_symmetry_multiplicity
 _atom_site_fract_x
 _atom_site_fract_y
 _atom_site_fract_z
 _atom_site_occupancy
  Pr  Pr0  1  0.27666893  0.48117144  0.88112095  1
  Pr  Pr1  1  0.73409213  0.51055324  0.13742336  1
  Pr  Pr2  1  0.76492958  0.06795492  0.87893457  1
  Pr  Pr3  1  0.23472406  0.91052266  0.12323081  1
  Mn  Mn4  1  0.29662884  0.39717226  0.60123099  1
  Mn  Mn5  1  0.68913734  0.47856483  0.35895999  1
  Mn  Mn6  1  0.00829649  0.96995166  0.02293765  1
  Mn  Mn7  1  0.79616297  0.98831457  0.63511739  1
  Mn  Mn8  1  0.21297987  0.05582969  0.39802365  1
  Mn  Mn9  1  0.47455006  0.50393630  0.97037264  1
  Sb  Sb10  1  0.88264897  0.88110675  0.45587557  1
  Sb  Sb11  1  0.11242421  0.98763760  0.53969747  1
  Sb  Sb12  1  0.03393611  0.49499221  0.82425676  1
  Sb  Sb13  1  0.96480254  0.46236725  0.20203148  1
  Sb  Sb14  1  0.41428576  0.57820928  0.46323582  1
  Sb  Sb15  1  0.60041388  0.57510401  0.53277823  1
  Sb  Sb16  1  0.53339292  0.93260582  0.80421173  1
  Sb  Sb17  1  0.46987367  0.96683593  0.18415978  1
  S  S18  1  0.93230128  0.96655350  0.80167767  1
  S  S19  1  0.06173536  0.00441414  0.20599724  1
  S  S20  1  0.41529092  0.00176049  0.98516068  1
  S  S21  1  0.57573766  0.99968998  0.00196501  1
  S  S22  1  0.16557010  0.94277604  0.88915693  1
  S  S23  1  0.82723714  0.03975788  0.11026262  1
  S  S24  1  0.10729362  0.47813081  0.65235316  1
  S  S25  1  0.89352224  0.42358267  0.35085392  1
  S  S26  1  0.73097283  0.97300947  0.30779922  1
  S  S27  1  0.26347983  0.92600955  0.67967712  1
  S  S28  1  0.17066905  0.47677082  0.45420410  1
  S  S29  1  0.81495568  0.50175803  0.54188452  1
  S  S30  1  0.43116564  0.46982545  0.79165979  1
  S  S31  1  0.56554999  0.51042381  0.19320839  1
  S  S32  1  0.92021630  0.49896428  0.99916107  1
  S  S33  1  0.08541780  0.46857968  0.03739963  1
  S  S34  1  0.67732600  0.57316834  0.91680423  1
  S  S35  1  0.33295871  0.43476305  0.11213850  1
  S  S36  1  0.60469045  0.01230631  0.66911592  1
  S  S37  1  0.40857204  0.05974684  0.34621597  1
  S  S38  1  0.24591692  0.52633414  0.33043576  1
  S  S39  1  0.76340545  0.50768731  0.68763439  1
  S  S40  1  0.66654051  0.97360417  0.45208139  1
  S  S41  1  0.33067754  0.92233773  0.55379975  1
