# generated using pymatgen
data_Pr2Mn3(SbS3)4
_symmetry_space_group_name_H-M   'P 1'
_cell_length_a   20.02960800
_cell_length_b   3.90410600
_cell_length_c   14.95364829
_cell_angle_alpha   90.00000000
_cell_angle_beta   126.33350609
_cell_angle_gamma   90.00000000
_symmetry_Int_Tables_number   1
_chemical_formula_structural   Pr2Mn3(SbS3)4
_chemical_formula_sum   'Pr4 Mn6 Sb8 S24'
_cell_volume   942.00006694
_cell_formula_units_Z   2
loop_
 _symmetry_equiv_pos_site_id
 _symmetry_equiv_pos_as_xyz
  1  'x, y, z'
loop_
 _atom_site_type_symbol
 _atom_site_label
 _atom_site_symmetry_multiplicity
 _atom_site_fract_x
 _atom_site_fract_y
 _atom_site_fract_z
 _atom_site_occupancy
  Pr  Pr0  1  0.27657591  0.48063260  0.88101578  1
  Pr  Pr1  1  0.73415885  0.51039550  0.13745269  1
  Pr  Pr2  1  0.76513200  0.06849976  0.87916431  1
  Pr  Pr3  1  0.23469656  0.91022476  0.12314796  1
  Mn  Mn4  1  0.29650135  0.39784002  0.60090237  1
  Mn  Mn5  1  0.68910875  0.47898707  0.35889265  1
  Mn  Mn6  1  0.00839758  0.96925400  0.02305851  1
  Mn  Mn7  1  0.79619718  0.98846173  0.63526692  1
  Mn  Mn8  1  0.21271612  0.05589442  0.39784280  1
  Mn  Mn9  1  0.47471947  0.50453235  0.97047699  1
  Sb  Sb10  1  0.88271571  0.88055177  0.45589674  1
  Sb  Sb11  1  0.11241196  0.98760530  0.53980475  1
  Sb  Sb12  1  0.03383148  0.49524845  0.82409377  1
  Sb  Sb13  1  0.96474545  0.46212540  0.20202029  1
  Sb  Sb14  1  0.41432537  0.57777389  0.46322859  1
  Sb  Sb15  1  0.60048194  0.57550795  0.53280462  1
  Sb  Sb16  1  0.53339458  0.93217428  0.80406063  1
  Sb  Sb17  1  0.46995747  0.96725045  0.18411684  1
  S  S18  1  0.93235951  0.96720383  0.80198662  1
  S  S19  1  0.06184469  0.00567966  0.20644611  1
  S  S20  1  0.41511935  0.00109040  0.98460361  1
  S  S21  1  0.57563478  0.00010449  0.00199119  1
  S  S22  1  0.16535402  0.94349464  0.88895619  1
  S  S23  1  0.82720343  0.04036451  0.11036076  1
  S  S24  1  0.10690220  0.47737162  0.65193221  1
  S  S25  1  0.89369820  0.42287376  0.35105305  1
  S  S26  1  0.73105265  0.97262369  0.30771651  1
  S  S27  1  0.26351784  0.92582525  0.67992526  1
  S  S28  1  0.17063244  0.47767617  0.45441974  1
  S  S29  1  0.81507843  0.50105329  0.54209093  1
  S  S30  1  0.43129698  0.47108487  0.79135643  1
  S  S31  1  0.56532007  0.51075726  0.19295516  1
  S  S32  1  0.92030788  0.49810335  0.99932257  1
  S  S33  1  0.08542723  0.46921540  0.03730500  1
  S  S34  1  0.67739349  0.57255043  0.91675865  1
  S  S35  1  0.33303978  0.43469570  0.11193975  1
  S  S36  1  0.60504556  0.01195381  0.66915534  1
  S  S37  1  0.40869611  0.06058351  0.34651922  1
  S  S38  1  0.24582939  0.52661081  0.33023111  1
  S  S39  1  0.76355968  0.50640535  0.68777463  1
  S  S40  1  0.66648415  0.97499775  0.45191676  1
  S  S41  1  0.33068862  0.92238102  0.55342710  1
