# generated using pymatgen
data_Pr2Mn3(SbS3)4
_symmetry_space_group_name_H-M   'P 1'
_cell_length_a   20.02960800
_cell_length_b   3.90410600
_cell_length_c   14.95364829
_cell_angle_alpha   90.00000000
_cell_angle_beta   126.33350609
_cell_angle_gamma   90.00000000
_symmetry_Int_Tables_number   1
_chemical_formula_structural   Pr2Mn3(SbS3)4
_chemical_formula_sum   'Pr4 Mn6 Sb8 S24'
_cell_volume   942.00006694
_cell_formula_units_Z   2
loop_
 _symmetry_equiv_pos_site_id
 _symmetry_equiv_pos_as_xyz
  1  'x, y, z'
loop_
 _atom_site_type_symbol
 _atom_site_label
 _atom_site_symmetry_multiplicity
 _atom_site_fract_x
 _atom_site_fract_y
 _atom_site_fract_z
 _atom_site_occupancy
  Pr  Pr0  1  0.27650624  0.48026521  0.88094378  1
  Pr  Pr1  1  0.73421324  0.51034519  0.13743697  1
  Pr  Pr2  1  0.76533842  0.06900701  0.87944400  1
  Pr  Pr3  1  0.23466286  0.90992055  0.12306806  1
  Mn  Mn4  1  0.29630042  0.39773549  0.60051392  1
  Mn  Mn5  1  0.68906358  0.47897207  0.35872034  1
  Mn  Mn6  1  0.00850072  0.96851379  0.02320986  1
  Mn  Mn7  1  0.79623926  0.98850015  0.63539570  1
  Mn  Mn8  1  0.21247510  0.05550962  0.39774880  1
  Mn  Mn9  1  0.47494918  0.50445760  0.97057947  1
  Sb  Sb10  1  0.88273864  0.88000636  0.45584688  1
  Sb  Sb11  1  0.11240709  0.98753598  0.53991968  1
  Sb  Sb12  1  0.03374828  0.49576367  0.82398293  1
  Sb  Sb13  1  0.96469672  0.46183587  0.20200864  1
  Sb  Sb14  1  0.41431144  0.57715251  0.46326961  1
  Sb  Sb15  1  0.60053535  0.57563233  0.53281246  1
  Sb  Sb16  1  0.53340183  0.93190736  0.80390563  1
  Sb  Sb17  1  0.47008434  0.96747775  0.18411238  1
  S  S18  1  0.93231968  0.96766416  0.80227627  1
  S  S19  1  0.06186852  0.00703891  0.20669042  1
  S  S20  1  0.41499276  0.00065776  0.98403454  1
  S  S21  1  0.57553411  0.00030567  0.00212901  1
  S  S22  1  0.16512461  0.94360854  0.88879905  1
  S  S23  1  0.82719679  0.04145368  0.11048208  1
  S  S24  1  0.10646060  0.47707057  0.65141019  1
  S  S25  1  0.89397382  0.42279776  0.35143118  1
  S  S26  1  0.73112349  0.97242554  0.30766024  1
  S  S27  1  0.26341191  0.92585664  0.68011970  1
  S  S28  1  0.17055275  0.47826657  0.45446560  1
  S  S29  1  0.81531324  0.50013620  0.54233606  1
  S  S30  1  0.43140256  0.47239521  0.79113763  1
  S  S31  1  0.56509442  0.51105378  0.19285472  1
  S  S32  1  0.92040762  0.49753665  0.99949091  1
  S  S33  1  0.08537769  0.46999627  0.03714512  1
  S  S34  1  0.67756329  0.57200898  0.91671991  1
  S  S35  1  0.33303096  0.43482554  0.11159891  1
  S  S36  1  0.60540488  0.01157128  0.66911076  1
  S  S37  1  0.40888821  0.06114817  0.34704070  1
  S  S38  1  0.24579970  0.52685474  0.33008986  1
  S  S39  1  0.76369436  0.50518956  0.68788355  1
  S  S40  1  0.66635792  0.97668832  0.45157501  1
  S  S41  1  0.33065619  0.92222770  0.55307716  1
