# generated using pymatgen
data_Pr2Mn3(SbS3)4
_symmetry_space_group_name_H-M   'P 1'
_cell_length_a   20.02960800
_cell_length_b   3.90410600
_cell_length_c   14.95364829
_cell_angle_alpha   90.00000000
_cell_angle_beta   126.33350609
_cell_angle_gamma   90.00000000
_symmetry_Int_Tables_number   1
_chemical_formula_structural   Pr2Mn3(SbS3)4
_chemical_formula_sum   'Pr4 Mn6 Sb8 S24'
_cell_volume   942.00006694
_cell_formula_units_Z   2
loop_
 _symmetry_equiv_pos_site_id
 _symmetry_equiv_pos_as_xyz
  1  'x, y, z'
loop_
 _atom_site_type_symbol
 _atom_site_label
 _atom_site_symmetry_multiplicity
 _atom_site_fract_x
 _atom_site_fract_y
 _atom_site_fract_z
 _atom_site_occupancy
  Pr  Pr0  1  0.27639296  0.47976205  0.88080086  1
  Pr  Pr1  1  0.73427225  0.51051016  0.13742250  1
  Pr  Pr2  1  0.76556937  0.06939042  0.87981127  1
  Pr  Pr3  1  0.23465907  0.90956597  0.12303174  1
  Mn  Mn4  1  0.29616694  0.39739087  0.60022213  1
  Mn  Mn5  1  0.68902355  0.47905691  0.35856809  1
  Mn  Mn6  1  0.00846045  0.96813443  0.02323899  1
  Mn  Mn7  1  0.79632614  0.98866932  0.63563265  1
  Mn  Mn8  1  0.21229305  0.05492150  0.39763085  1
  Mn  Mn9  1  0.47525116  0.50432849  0.97078865  1
  Sb  Sb10  1  0.88276083  0.87942015  0.45583481  1
  Sb  Sb11  1  0.11233184  0.98774013  0.53994691  1
  Sb  Sb12  1  0.03368544  0.49608202  0.82390936  1
  Sb  Sb13  1  0.96468214  0.46163360  0.20205111  1
  Sb  Sb14  1  0.41426986  0.57644108  0.46323151  1
  Sb  Sb15  1  0.60050620  0.57551025  0.53282998  1
  Sb  Sb16  1  0.53346393  0.93167183  0.80376290  1
  Sb  Sb17  1  0.47019732  0.96781231  0.18414373  1
  S  S18  1  0.93226962  0.96842287  0.80251732  1
  S  S19  1  0.06177272  0.00812596  0.20674471  1
  S  S20  1  0.41498911  0.00018728  0.98356468  1
  S  S21  1  0.57544435  0.00012097  0.00223743  1
  S  S22  1  0.16495829  0.94307764  0.88863151  1
  S  S23  1  0.82725943  0.04194553  0.11065663  1
  S  S24  1  0.10594698  0.47719434  0.65096962  1
  S  S25  1  0.89431328  0.42309371  0.35181062  1
  S  S26  1  0.73111049  0.97240478  0.30752660  1
  S  S27  1  0.26337367  0.92572974  0.68034799  1
  S  S28  1  0.17045010  0.47876292  0.45449874  1
  S  S29  1  0.81559282  0.49925949  0.54263242  1
  S  S30  1  0.43150434  0.47358126  0.79111404  1
  S  S31  1  0.56486628  0.51125598  0.19267692  1
  S  S32  1  0.92040426  0.49698011  0.99959275  1
  S  S33  1  0.08532254  0.47064006  0.03692772  1
  S  S34  1  0.67756467  0.57164822  0.91656405  1
  S  S35  1  0.33307118  0.43520387  0.11113023  1
  S  S36  1  0.60572599  0.01133509  0.66924743  1
  S  S37  1  0.40902470  0.06205759  0.34745559  1
  S  S38  1  0.24589786  0.52723353  0.33018142  1
  S  S39  1  0.76382750  0.50386547  0.68793215  1
  S  S40  1  0.66625601  0.97774449  0.45126681  1
  S  S41  1  0.33060857  0.92174480  0.55290242  1
