# generated using pymatgen
data_Pr2Mn3(SbS3)4
_symmetry_space_group_name_H-M   'P 1'
_cell_length_a   20.02960800
_cell_length_b   3.90410600
_cell_length_c   14.95364829
_cell_angle_alpha   90.00000000
_cell_angle_beta   126.33350609
_cell_angle_gamma   90.00000000
_symmetry_Int_Tables_number   1
_chemical_formula_structural   Pr2Mn3(SbS3)4
_chemical_formula_sum   'Pr4 Mn6 Sb8 S24'
_cell_volume   942.00006694
_cell_formula_units_Z   2
loop_
 _symmetry_equiv_pos_site_id
 _symmetry_equiv_pos_as_xyz
  1  'x, y, z'
loop_
 _atom_site_type_symbol
 _atom_site_label
 _atom_site_symmetry_multiplicity
 _atom_site_fract_x
 _atom_site_fract_y
 _atom_site_fract_z
 _atom_site_occupancy
  Pr  Pr0  1  0.27627327  0.47943089  0.88061577  1
  Pr  Pr1  1  0.73435300  0.51071828  0.13744908  1
  Pr  Pr2  1  0.76584063  0.06985064  0.88021949  1
  Pr  Pr3  1  0.23467828  0.90920483  0.12303161  1
  Mn  Mn4  1  0.29599426  0.39705878  0.59992587  1
  Mn  Mn5  1  0.68894993  0.47908880  0.35841637  1
  Mn  Mn6  1  0.00842101  0.96765412  0.02316141  1
  Mn  Mn7  1  0.79641948  0.98929567  0.63584269  1
  Mn  Mn8  1  0.21217581  0.05428729  0.39768437  1
  Mn  Mn9  1  0.47551318  0.50460274  0.97090832  1
  Sb  Sb10  1  0.88279381  0.87872891  0.45583233  1
  Sb  Sb11  1  0.11229471  0.98756500  0.54002584  1
  Sb  Sb12  1  0.03358961  0.49633355  0.82381616  1
  Sb  Sb13  1  0.96464301  0.46144069  0.20206716  1
  Sb  Sb14  1  0.41431807  0.57598128  0.46326373  1
  Sb  Sb15  1  0.60051906  0.57528248  0.53279998  1
  Sb  Sb16  1  0.53352553  0.93147511  0.80365444  1
  Sb  Sb17  1  0.47033712  0.96810790  0.18426333  1
  S  S18  1  0.93222732  0.96896672  0.80273946  1
  S  S19  1  0.06171352  0.00916133  0.20692711  1
  S  S20  1  0.41499262  0.99982149  0.98313939  1
  S  S21  1  0.57539838  0.99991628  0.00235598  1
  S  S22  1  0.16476579  0.94216020  0.88846926  1
  S  S23  1  0.82721622  0.04267658  0.11080636  1
  S  S24  1  0.10551089  0.47702056  0.65067005  1
  S  S25  1  0.89462790  0.42339849  0.35213325  1
  S  S26  1  0.73100533  0.97227747  0.30736668  1
  S  S27  1  0.26324121  0.92546943  0.68048428  1
  S  S28  1  0.17027661  0.47938225  0.45446239  1
  S  S29  1  0.81583916  0.49861293  0.54289602  1
  S  S30  1  0.43157107  0.47435907  0.79109128  1
  S  S31  1  0.56467115  0.51119611  0.19241706  1
  S  S32  1  0.92043208  0.49623041  0.99964986  1
  S  S33  1  0.08539170  0.47123684  0.03670225  1
  S  S34  1  0.67759925  0.57108039  0.91642181  1
  S  S35  1  0.33316340  0.43578720  0.11075141  1
  S  S36  1  0.60602078  0.01093839  0.66939824  1
  S  S37  1  0.40912699  0.06302546  0.34780316  1
  S  S38  1  0.24584097  0.52795832  0.33006332  1
  S  S39  1  0.76407475  0.50259442  0.68815873  1
  S  S40  1  0.66620131  0.97888718  0.45107884  1
  S  S41  1  0.33059343  0.92057924  0.55277254  1
