# generated using pymatgen
data_Pr2Mn3(SbS3)4
_symmetry_space_group_name_H-M   'P 1'
_cell_length_a   20.02960800
_cell_length_b   3.90410600
_cell_length_c   14.95364829
_cell_angle_alpha   90.00000000
_cell_angle_beta   126.33350609
_cell_angle_gamma   90.00000000
_symmetry_Int_Tables_number   1
_chemical_formula_structural   Pr2Mn3(SbS3)4
_chemical_formula_sum   'Pr4 Mn6 Sb8 S24'
_cell_volume   942.00006694
_cell_formula_units_Z   2
loop_
 _symmetry_equiv_pos_site_id
 _symmetry_equiv_pos_as_xyz
  1  'x, y, z'
loop_
 _atom_site_type_symbol
 _atom_site_label
 _atom_site_symmetry_multiplicity
 _atom_site_fract_x
 _atom_site_fract_y
 _atom_site_fract_z
 _atom_site_occupancy
  Pr  Pr0  1  0.26444363  0.47092420  0.86858570  1
  Pr  Pr1  1  0.73756388  0.52357434  0.13798960  1
  Pr  Pr2  1  0.76413938  0.01188117  0.86455824  1
  Pr  Pr3  1  0.23687254  0.00527861  0.13836637  1
  Mn  Mn4  1  0.29265372  0.48610665  0.60198259  1
  Mn  Mn5  1  0.69395160  0.52143045  0.38063257  1
  Mn  Mn6  1  0.00737309  0.99518017  0.00866215  1
  Mn  Mn7  1  0.80348301  0.00726527  0.61448688  1
  Mn  Mn8  1  0.19525577  0.97329977  0.37729757  1
  Mn  Mn9  1  0.49921582  0.45627110  0.99007347  1
  Sb  Sb10  1  0.89017316  0.99440926  0.45254799  1
  Sb  Sb11  1  0.11171782  0.96611354  0.55075378  1
  Sb  Sb12  1  0.03926698  0.51633985  0.81777044  1
  Sb  Sb13  1  0.96353715  0.51160856  0.18624104  1
  Sb  Sb14  1  0.39678336  0.50755403  0.45588820  1
  Sb  Sb15  1  0.60642465  0.48362361  0.54707495  1
  Sb  Sb16  1  0.53436812  0.00987246  0.81171327  1
  Sb  Sb17  1  0.46187757  0.01269691  0.18297335  1
  S  S18  1  0.93557119  0.98730810  0.80506292  1
  S  S19  1  0.06539469  0.97433434  0.18476785  1
  S  S20  1  0.41078313  0.00998466  0.97935335  1
  S  S21  1  0.59104792  0.99590287  0.02345047  1
  S  S22  1  0.17185723  0.99103707  0.89484908  1
  S  S23  1  0.82514404  0.01971754  0.09479020  1
  S  S24  1  0.08739420  0.47868178  0.64429724  1
  S  S25  1  0.90885606  0.47306059  0.35444725  1
  S  S26  1  0.73959242  0.95954955  0.29745499  1
  S  S27  1  0.25869409  0.99832772  0.70524414  1
  S  S28  1  0.17089752  0.48232374  0.44356119  1
  S  S29  1  0.82891417  0.48951034  0.54998770  1
  S  S30  1  0.43348447  0.50015015  0.79615601  1
  S  S31  1  0.56105918  0.50969889  0.18193132  1
  S  S32  1  0.91514722  0.50334290  0.99495329  1
  S  S33  1  0.08168174  0.49498051  0.01276661  1
  S  S34  1  0.66613095  0.48402292  0.88830483  1
  S  S35  1  0.32631212  0.50982683  0.09102967  1
  S  S36  1  0.59520156  0.99970554  0.65993622  1
  S  S37  1  0.40700366  0.97353360  0.34712850  1
  S  S38  1  0.24641378  0.44959631  0.31307720  1
  S  S39  1  0.76225301  0.50415089  0.70104752  1
  S  S40  1  0.67700231  0.02276566  0.46091475  1
  S  S41  1  0.32649455  0.97771859  0.54473190  1
