# generated using pymatgen
data_Pr2Mn3(SbS3)4
_symmetry_space_group_name_H-M   'P 1'
_cell_length_a   20.02960800
_cell_length_b   3.90410600
_cell_length_c   14.95364829
_cell_angle_alpha   90.00000000
_cell_angle_beta   126.33350609
_cell_angle_gamma   90.00000000
_symmetry_Int_Tables_number   1
_chemical_formula_structural   Pr2Mn3(SbS3)4
_chemical_formula_sum   'Pr4 Mn6 Sb8 S24'
_cell_volume   942.00006694
_cell_formula_units_Z   2
loop_
 _symmetry_equiv_pos_site_id
 _symmetry_equiv_pos_as_xyz
  1  'x, y, z'
loop_
 _atom_site_type_symbol
 _atom_site_label
 _atom_site_symmetry_multiplicity
 _atom_site_fract_x
 _atom_site_fract_y
 _atom_site_fract_z
 _atom_site_occupancy
  Pr  Pr0  1  0.27614013  0.47902926  0.88047178  1
  Pr  Pr1  1  0.73446536  0.51080455  0.13747519  1
  Pr  Pr2  1  0.76605216  0.07020774  0.88053411  1
  Pr  Pr3  1  0.23471734  0.90899651  0.12312400  1
  Mn  Mn4  1  0.29580169  0.39678959  0.59963306  1
  Mn  Mn5  1  0.68881483  0.47896974  0.35817532  1
  Mn  Mn6  1  0.00836861  0.96730180  0.02303207  1
  Mn  Mn7  1  0.79643763  0.98932888  0.63590234  1
  Mn  Mn8  1  0.21205646  0.05404644  0.39771477  1
  Mn  Mn9  1  0.47576032  0.50475590  0.97101219  1
  Sb  Sb10  1  0.88285040  0.87818187  0.45581232  1
  Sb  Sb11  1  0.11224167  0.98755803  0.54010997  1
  Sb  Sb12  1  0.03352574  0.49648459  0.82375402  1
  Sb  Sb13  1  0.96461987  0.46109040  0.20202923  1
  Sb  Sb14  1  0.41433803  0.57568215  0.46329556  1
  Sb  Sb15  1  0.60053305  0.57508970  0.53271194  1
  Sb  Sb16  1  0.53355413  0.93142964  0.80355345  1
  Sb  Sb17  1  0.47039615  0.96836094  0.18440817  1
  S  S18  1  0.93211045  0.96954945  0.80281847  1
  S  S19  1  0.06178764  0.00994877  0.20716260  1
  S  S20  1  0.41491841  0.00003422  0.98265478  1
  S  S21  1  0.57532478  0.00014532  0.00243546  1
  S  S22  1  0.16464068  0.94114729  0.88819299  1
  S  S23  1  0.82722089  0.04379503  0.11089499  1
  S  S24  1  0.10506898  0.47686873  0.65027141  1
  S  S25  1  0.89490188  0.42331492  0.35228809  1
  S  S26  1  0.73096551  0.97261035  0.30734464  1
  S  S27  1  0.26318663  0.92530637  0.68068337  1
  S  S28  1  0.17013801  0.48061373  0.45454932  1
  S  S29  1  0.81608368  0.49819489  0.54329891  1
  S  S30  1  0.43175205  0.47555801  0.79117510  1
  S  S31  1  0.56452995  0.51099996  0.19223455  1
  S  S32  1  0.92044975  0.49555045  0.99957952  1
  S  S33  1  0.08550413  0.47170489  0.03651103  1
  S  S34  1  0.67756712  0.57040530  0.91638667  1
  S  S35  1  0.33329962  0.43639142  0.11038220  1
  S  S36  1  0.60630419  0.00995636  0.66961525  1
  S  S37  1  0.40926209  0.06384988  0.34813771  1
  S  S38  1  0.24584022  0.52847987  0.32993732  1
  S  S39  1  0.76426174  0.50211447  0.68848536  1
  S  S40  1  0.66615361  0.97972876  0.45092313  1
  S  S41  1  0.33058569  0.91918877  0.55254210  1
