# generated using pymatgen
data_Pr2Mn3(SbS3)4
_symmetry_space_group_name_H-M   'P 1'
_cell_length_a   20.02960800
_cell_length_b   3.90410600
_cell_length_c   14.95364829
_cell_angle_alpha   90.00000000
_cell_angle_beta   126.33350609
_cell_angle_gamma   90.00000000
_symmetry_Int_Tables_number   1
_chemical_formula_structural   Pr2Mn3(SbS3)4
_chemical_formula_sum   'Pr4 Mn6 Sb8 S24'
_cell_volume   942.00006694
_cell_formula_units_Z   2
loop_
 _symmetry_equiv_pos_site_id
 _symmetry_equiv_pos_as_xyz
  1  'x, y, z'
loop_
 _atom_site_type_symbol
 _atom_site_label
 _atom_site_symmetry_multiplicity
 _atom_site_fract_x
 _atom_site_fract_y
 _atom_site_fract_z
 _atom_site_occupancy
  Pr  Pr0  1  0.27599762  0.47886857  0.88029813  1
  Pr  Pr1  1  0.73460317  0.51104152  0.13757344  1
  Pr  Pr2  1  0.76629782  0.07027490  0.88087177  1
  Pr  Pr3  1  0.23472989  0.90876552  0.12314869  1
  Mn  Mn4  1  0.29562856  0.39676086  0.59925405  1
  Mn  Mn5  1  0.68875392  0.47898885  0.35801902  1
  Mn  Mn6  1  0.00822135  0.96704265  0.02282903  1
  Mn  Mn7  1  0.79639738  0.98941960  0.63586485  1
  Mn  Mn8  1  0.21200430  0.05384000  0.39784394  1
  Mn  Mn9  1  0.47601239  0.50470842  0.97111481  1
  Sb  Sb10  1  0.88290457  0.87776180  0.45582235  1
  Sb  Sb11  1  0.11219942  0.98749964  0.54019464  1
  Sb  Sb12  1  0.03342353  0.49683071  0.82364580  1
  Sb  Sb13  1  0.96459049  0.46064108  0.20201819  1
  Sb  Sb14  1  0.41440045  0.57523406  0.46344475  1
  Sb  Sb15  1  0.60046756  0.57469091  0.53263419  1
  Sb  Sb16  1  0.53363305  0.93174235  0.80347038  1
  Sb  Sb17  1  0.47047612  0.96865469  0.18462677  1
  S  S18  1  0.93205515  0.97006831  0.80300327  1
  S  S19  1  0.06182972  0.01058976  0.20728688  1
  S  S20  1  0.41471613  0.99983073  0.98208297  1
  S  S21  1  0.57517046  0.00059039  0.00244199  1
  S  S22  1  0.16444991  0.94044100  0.88791262  1
  S  S23  1  0.82722983  0.04518585  0.11083044  1
  S  S24  1  0.10455909  0.47649670  0.64971983  1
  S  S25  1  0.89521207  0.42369428  0.35245874  1
  S  S26  1  0.73082342  0.97338649  0.30713278  1
  S  S27  1  0.26316264  0.92485346  0.68074693  1
  S  S28  1  0.16991779  0.48164094  0.45468718  1
  S  S29  1  0.81637072  0.49788452  0.54360155  1
  S  S30  1  0.43192153  0.47655539  0.79123610  1
  S  S31  1  0.56425985  0.51090807  0.19196359  1
  S  S32  1  0.92060268  0.49503771  0.99952678  1
  S  S33  1  0.08557886  0.47182654  0.03633881  1
  S  S34  1  0.67760715  0.56938466  0.91653305  1
  S  S35  1  0.33340251  0.43739762  0.10996959  1
  S  S36  1  0.60660626  0.00912705  0.66988297  1
  S  S37  1  0.40935952  0.06437653  0.34842549  1
  S  S38  1  0.24591565  0.52927093  0.32971528  1
  S  S39  1  0.76435485  0.50159183  0.68885270  1
  S  S40  1  0.66605795  0.98054264  0.45068064  1
  S  S41  1  0.33063468  0.91865798  0.55235337  1
