# generated using pymatgen
data_Pr2Mn3(SbS3)4
_symmetry_space_group_name_H-M   'P 1'
_cell_length_a   20.02960800
_cell_length_b   3.90410600
_cell_length_c   14.95364829
_cell_angle_alpha   90.00000000
_cell_angle_beta   126.33350609
_cell_angle_gamma   90.00000000
_symmetry_Int_Tables_number   1
_chemical_formula_structural   Pr2Mn3(SbS3)4
_chemical_formula_sum   'Pr4 Mn6 Sb8 S24'
_cell_volume   942.00006694
_cell_formula_units_Z   2
loop_
 _symmetry_equiv_pos_site_id
 _symmetry_equiv_pos_as_xyz
  1  'x, y, z'
loop_
 _atom_site_type_symbol
 _atom_site_label
 _atom_site_symmetry_multiplicity
 _atom_site_fract_x
 _atom_site_fract_y
 _atom_site_fract_z
 _atom_site_occupancy
  Pr  Pr0  1  0.27592381  0.47851826  0.88019135  1
  Pr  Pr1  1  0.73467968  0.51110848  0.13761063  1
  Pr  Pr2  1  0.76651725  0.07032245  0.88118182  1
  Pr  Pr3  1  0.23473069  0.90853547  0.12316187  1
  Mn  Mn4  1  0.29549371  0.39652758  0.59893449  1
  Mn  Mn5  1  0.68870401  0.47929924  0.35780941  1
  Mn  Mn6  1  0.00812590  0.96701428  0.02272786  1
  Mn  Mn7  1  0.79632803  0.98974312  0.63588762  1
  Mn  Mn8  1  0.21192561  0.05363327  0.39798752  1
  Mn  Mn9  1  0.47623957  0.50449327  0.97112670  1
  Sb  Sb10  1  0.88293384  0.87744930  0.45586852  1
  Sb  Sb11  1  0.11213289  0.98740501  0.54028961  1
  Sb  Sb12  1  0.03338128  0.49698963  0.82362064  1
  Sb  Sb13  1  0.96458436  0.46031170  0.20196315  1
  Sb  Sb14  1  0.41441045  0.57448699  0.46354055  1
  Sb  Sb15  1  0.60042398  0.57430574  0.53259610  1
  Sb  Sb16  1  0.53369795  0.93207776  0.80339438  1
  Sb  Sb17  1  0.47046299  0.96897503  0.18472198  1
  S  S18  1  0.93191186  0.97048166  0.80318691  1
  S  S19  1  0.06184181  0.01142553  0.20734786  1
  S  S20  1  0.41446434  0.99917831  0.98157431  1
  S  S21  1  0.57499857  0.00103708  0.00256423  1
  S  S22  1  0.16423628  0.93966735  0.88762546  1
  S  S23  1  0.82730831  0.04647837  0.11088766  1
  S  S24  1  0.10409568  0.47628667  0.64913945  1
  S  S25  1  0.89547130  0.42409151  0.35263111  1
  S  S26  1  0.73062222  0.97386016  0.30692889  1
  S  S27  1  0.26307739  0.92448760  0.68071753  1
  S  S28  1  0.16975268  0.48252610  0.45492920  1
  S  S29  1  0.81667541  0.49763056  0.54398996  1
  S  S30  1  0.43191744  0.47760675  0.79119233  1
  S  S31  1  0.56394658  0.51077493  0.19166088  1
  S  S32  1  0.92076089  0.49483431  0.99943774  1
  S  S33  1  0.08560412  0.47164049  0.03615195  1
  S  S34  1  0.67774542  0.56884452  0.91669030  1
  S  S35  1  0.33335604  0.43856901  0.10948771  1
  S  S36  1  0.60679168  0.00819987  0.67020025  1
  S  S37  1  0.40952273  0.06492553  0.34873853  1
  S  S38  1  0.24601011  0.52975952  0.32959821  1
  S  S39  1  0.76440300  0.50117976  0.68918381  1
  S  S40  1  0.66588932  0.98126596  0.45038395  1
  S  S41  1  0.33079512  0.91785805  0.55224625  1
