# generated using pymatgen
data_Pr2Mn3(SbS3)4
_symmetry_space_group_name_H-M   'P 1'
_cell_length_a   20.02960800
_cell_length_b   3.90410600
_cell_length_c   14.95364829
_cell_angle_alpha   90.00000000
_cell_angle_beta   126.33350609
_cell_angle_gamma   90.00000000
_symmetry_Int_Tables_number   1
_chemical_formula_structural   Pr2Mn3(SbS3)4
_chemical_formula_sum   'Pr4 Mn6 Sb8 S24'
_cell_volume   942.00006694
_cell_formula_units_Z   2
loop_
 _symmetry_equiv_pos_site_id
 _symmetry_equiv_pos_as_xyz
  1  'x, y, z'
loop_
 _atom_site_type_symbol
 _atom_site_label
 _atom_site_symmetry_multiplicity
 _atom_site_fract_x
 _atom_site_fract_y
 _atom_site_fract_z
 _atom_site_occupancy
  Pr  Pr0  1  0.27581408  0.47820303  0.88015337  1
  Pr  Pr1  1  0.73475735  0.51089277  0.13770664  1
  Pr  Pr2  1  0.76673458  0.07020381  0.88143658  1
  Pr  Pr3  1  0.23471854  0.90824378  0.12321745  1
  Mn  Mn4  1  0.29533542  0.39627305  0.59865858  1
  Mn  Mn5  1  0.68869675  0.47942227  0.35764254  1
  Mn  Mn6  1  0.00805641  0.96694337  0.02256663  1
  Mn  Mn7  1  0.79627540  0.98970625  0.63590495  1
  Mn  Mn8  1  0.21187714  0.05337414  0.39808600  1
  Mn  Mn9  1  0.47649080  0.50389594  0.97119315  1
  Sb  Sb10  1  0.88288002  0.87684289  0.45584202  1
  Sb  Sb11  1  0.11203185  0.98720540  0.54030424  1
  Sb  Sb12  1  0.03338660  0.49695798  0.82361261  1
  Sb  Sb13  1  0.96466849  0.46018733  0.20199688  1
  Sb  Sb14  1  0.41447662  0.57376885  0.46366033  1
  Sb  Sb15  1  0.60039149  0.57366326  0.53257608  1
  Sb  Sb16  1  0.53377943  0.93238726  0.80337954  1
  Sb  Sb17  1  0.47039418  0.96929977  0.18477630  1
  S  S18  1  0.93176680  0.97022159  0.80344549  1
  S  S19  1  0.06180009  0.01233849  0.20725540  1
  S  S20  1  0.41418977  0.99809193  0.98110823  1
  S  S21  1  0.57486110  0.00126124  0.00268642  1
  S  S22  1  0.16401932  0.93936883  0.88725407  1
  S  S23  1  0.82748946  0.04792286  0.11089488  1
  S  S24  1  0.10371652  0.47587362  0.64865114  1
  S  S25  1  0.89571172  0.42421431  0.35274976  1
  S  S26  1  0.73032081  0.97393403  0.30651810  1
  S  S27  1  0.26308961  0.92433881  0.68074683  1
  S  S28  1  0.16957909  0.48336534  0.45505866  1
  S  S29  1  0.81693394  0.49772827  0.54421760  1
  S  S30  1  0.43184747  0.47852810  0.79107877  1
  S  S31  1  0.56356641  0.51114167  0.19136727  1
  S  S32  1  0.92097538  0.49515893  0.99934213  1
  S  S33  1  0.08560697  0.47099910  0.03604542  1
  S  S34  1  0.67776271  0.56806356  0.91671842  1
  S  S35  1  0.33323972  0.43973487  0.10907665  1
  S  S36  1  0.60695130  0.00733687  0.67052012  1
  S  S37  1  0.40963357  0.06507900  0.34889957  1
  S  S38  1  0.24608824  0.53019510  0.32940309  1
  S  S39  1  0.76461714  0.50130907  0.68953426  1
  S  S40  1  0.66580899  0.98146694  0.45017655  1
  S  S41  1  0.33087118  0.91795921  0.55211323  1
