# generated using pymatgen
data_Pr2Mn3(SbS3)4
_symmetry_space_group_name_H-M   'P 1'
_cell_length_a   20.02960800
_cell_length_b   3.90410600
_cell_length_c   14.95364829
_cell_angle_alpha   90.00000000
_cell_angle_beta   126.33350609
_cell_angle_gamma   90.00000000
_symmetry_Int_Tables_number   1
_chemical_formula_structural   Pr2Mn3(SbS3)4
_chemical_formula_sum   'Pr4 Mn6 Sb8 S24'
_cell_volume   942.00006694
_cell_formula_units_Z   2
loop_
 _symmetry_equiv_pos_site_id
 _symmetry_equiv_pos_as_xyz
  1  'x, y, z'
loop_
 _atom_site_type_symbol
 _atom_site_label
 _atom_site_symmetry_multiplicity
 _atom_site_fract_x
 _atom_site_fract_y
 _atom_site_fract_z
 _atom_site_occupancy
  Pr  Pr0  1  0.27573619  0.47767500  0.88015472  1
  Pr  Pr1  1  0.73481179  0.51066985  0.13786426  1
  Pr  Pr2  1  0.76689996  0.07006940  0.88156601  1
  Pr  Pr3  1  0.23468923  0.90790866  0.12323734  1
  Mn  Mn4  1  0.29519533  0.39575515  0.59849268  1
  Mn  Mn5  1  0.68861645  0.47943597  0.35741626  1
  Mn  Mn6  1  0.00798200  0.96705705  0.02241282  1
  Mn  Mn7  1  0.79622361  0.98969961  0.63600531  1
  Mn  Mn8  1  0.21183001  0.05274280  0.39810176  1
  Mn  Mn9  1  0.47679983  0.50343363  0.97133523  1
  Sb  Sb10  1  0.88282015  0.87616021  0.45579015  1
  Sb  Sb11  1  0.11194196  0.98685355  0.54036569  1
  Sb  Sb12  1  0.03340532  0.49704006  0.82366753  1
  Sb  Sb13  1  0.96473418  0.46001272  0.20203345  1
  Sb  Sb14  1  0.41447011  0.57321029  0.46376742  1
  Sb  Sb15  1  0.60036494  0.57311957  0.53253524  1
  Sb  Sb16  1  0.53382919  0.93288407  0.80342110  1
  Sb  Sb17  1  0.47035767  0.96968158  0.18484169  1
  S  S18  1  0.93168097  0.96951699  0.80367917  1
  S  S19  1  0.06173718  0.01300193  0.20706563  1
  S  S20  1  0.41379362  0.99712351  0.98049703  1
  S  S21  1  0.57455554  0.00136308  0.00272242  1
  S  S22  1  0.16376658  0.93937107  0.88685006  1
  S  S23  1  0.82773903  0.04950655  0.11103605  1
  S  S24  1  0.10338976  0.47533512  0.64830486  1
  S  S25  1  0.89589842  0.42451229  0.35261327  1
  S  S26  1  0.73005429  0.97441733  0.30625008  1
  S  S27  1  0.26320322  0.92486787  0.68083981  1
  S  S28  1  0.16928544  0.48455917  0.45516069  1
  S  S29  1  0.81720710  0.49764239  0.54445789  1
  S  S30  1  0.43168638  0.47932709  0.79096354  1
  S  S31  1  0.56324487  0.51157077  0.19131773  1
  S  S32  1  0.92110455  0.49560743  0.99917883  1
  S  S33  1  0.08558101  0.47068391  0.03587264  1
  S  S34  1  0.67782143  0.56711014  0.91672182  1
  S  S35  1  0.33318179  0.44045232  0.10871830  1
  S  S36  1  0.60716709  0.00696823  0.67084143  1
  S  S37  1  0.40968647  0.06451243  0.34908909  1
  S  S38  1  0.24611981  0.53071902  0.32916876  1
  S  S39  1  0.76478980  0.50114687  0.68967291  1
  S  S40  1  0.66573261  0.98193007  0.44991375  1
  S  S41  1  0.33099641  0.91795565  0.55215349  1
