# generated using pymatgen
data_Pr2Mn3(SbS3)4
_symmetry_space_group_name_H-M   'P 1'
_cell_length_a   20.02960800
_cell_length_b   3.90410600
_cell_length_c   14.95364829
_cell_angle_alpha   90.00000000
_cell_angle_beta   126.33350609
_cell_angle_gamma   90.00000000
_symmetry_Int_Tables_number   1
_chemical_formula_structural   Pr2Mn3(SbS3)4
_chemical_formula_sum   'Pr4 Mn6 Sb8 S24'
_cell_volume   942.00006694
_cell_formula_units_Z   2
loop_
 _symmetry_equiv_pos_site_id
 _symmetry_equiv_pos_as_xyz
  1  'x, y, z'
loop_
 _atom_site_type_symbol
 _atom_site_label
 _atom_site_symmetry_multiplicity
 _atom_site_fract_x
 _atom_site_fract_y
 _atom_site_fract_z
 _atom_site_occupancy
  Pr  Pr0  1  0.27565680  0.47718274  0.88011505  1
  Pr  Pr1  1  0.73484381  0.51050731  0.13805265  1
  Pr  Pr2  1  0.76698107  0.07016752  0.88160841  1
  Pr  Pr3  1  0.23463638  0.90772646  0.12325368  1
  Mn  Mn4  1  0.29516207  0.39554826  0.59849938  1
  Mn  Mn5  1  0.68851578  0.47949974  0.35720479  1
  Mn  Mn6  1  0.00798744  0.96747496  0.02234447  1
  Mn  Mn7  1  0.79609839  0.98972449  0.63602415  1
  Mn  Mn8  1  0.21177903  0.05228478  0.39796693  1
  Mn  Mn9  1  0.47701161  0.50282304  0.97139039  1
  Sb  Sb10  1  0.88279198  0.87569080  0.45571024  1
  Sb  Sb11  1  0.11184748  0.98636564  0.54048934  1
  Sb  Sb12  1  0.03333184  0.49724479  0.82363254  1
  Sb  Sb13  1  0.96480000  0.45975029  0.20198645  1
  Sb  Sb14  1  0.41450980  0.57229540  0.46386870  1
  Sb  Sb15  1  0.60036717  0.57271529  0.53247481  1
  Sb  Sb16  1  0.53387188  0.93346849  0.80348631  1
  Sb  Sb17  1  0.47026362  0.97009050  0.18481144  1
  S  S18  1  0.93157562  0.96943198  0.80369025  1
  S  S19  1  0.06167332  0.01432825  0.20693117  1
  S  S20  1  0.41342562  0.99584380  0.97991711  1
  S  S21  1  0.57420787  0.00188560  0.00276339  1
  S  S22  1  0.16354710  0.93922666  0.88643839  1
  S  S23  1  0.82795680  0.05086857  0.11115089  1
  S  S24  1  0.10317540  0.47435864  0.64798970  1
  S  S25  1  0.89597438  0.42520207  0.35249489  1
  S  S26  1  0.72978704  0.97495654  0.30586774  1
  S  S27  1  0.26323452  0.92598472  0.68068536  1
  S  S28  1  0.16909496  0.48527976  0.45531654  1
  S  S29  1  0.81739668  0.49722851  0.54468215  1
  S  S30  1  0.43151396  0.47964082  0.79088373  1
  S  S31  1  0.56290274  0.51179551  0.19134770  1
  S  S32  1  0.92125303  0.49570596  0.99909182  1
  S  S33  1  0.08552870  0.47075482  0.03570009  1
  S  S34  1  0.67789114  0.56647257  0.91662848  1
  S  S35  1  0.33318135  0.44104223  0.10843660  1
  S  S36  1  0.60727102  0.00689236  0.67109030  1
  S  S37  1  0.40970058  0.06373874  0.34937882  1
  S  S38  1  0.24611483  0.53134341  0.32892550  1
  S  S39  1  0.76499649  0.50078996  0.68979645  1
  S  S40  1  0.66563875  0.98174764  0.44960551  1
  S  S41  1  0.33103631  0.91827138  0.55217878  1
