# generated using pymatgen
data_Pr2Mn3(SbS3)4
_symmetry_space_group_name_H-M   'P 1'
_cell_length_a   20.02960800
_cell_length_b   3.90410600
_cell_length_c   14.95364829
_cell_angle_alpha   90.00000000
_cell_angle_beta   126.33350609
_cell_angle_gamma   90.00000000
_symmetry_Int_Tables_number   1
_chemical_formula_structural   Pr2Mn3(SbS3)4
_chemical_formula_sum   'Pr4 Mn6 Sb8 S24'
_cell_volume   942.00006694
_cell_formula_units_Z   2
loop_
 _symmetry_equiv_pos_site_id
 _symmetry_equiv_pos_as_xyz
  1  'x, y, z'
loop_
 _atom_site_type_symbol
 _atom_site_label
 _atom_site_symmetry_multiplicity
 _atom_site_fract_x
 _atom_site_fract_y
 _atom_site_fract_z
 _atom_site_occupancy
  Pr  Pr0  1  0.27559319  0.47697375  0.88006190  1
  Pr  Pr1  1  0.73491892  0.51059225  0.13835347  1
  Pr  Pr2  1  0.76704467  0.07041582  0.88160358  1
  Pr  Pr3  1  0.23455692  0.90764553  0.12324138  1
  Mn  Mn4  1  0.29519909  0.39535832  0.59862789  1
  Mn  Mn5  1  0.68839330  0.47968077  0.35693032  1
  Mn  Mn6  1  0.00809905  0.96798833  0.02247020  1
  Mn  Mn7  1  0.79597263  0.98956189  0.63601997  1
  Mn  Mn8  1  0.21176240  0.05203437  0.39787745  1
  Mn  Mn9  1  0.47726611  0.50179369  0.97150769  1
  Sb  Sb10  1  0.88274845  0.87532732  0.45553289  1
  Sb  Sb11  1  0.11170152  0.98573746  0.54049831  1
  Sb  Sb12  1  0.03328919  0.49733848  0.82358273  1
  Sb  Sb13  1  0.96487423  0.45960766  0.20192494  1
  Sb  Sb14  1  0.41450627  0.57155001  0.46386526  1
  Sb  Sb15  1  0.60039095  0.57253138  0.53238558  1
  Sb  Sb16  1  0.53392611  0.93389014  0.80354354  1
  Sb  Sb17  1  0.47018636  0.97036457  0.18480849  1
  S  S18  1  0.93151183  0.96987948  0.80363879  1
  S  S19  1  0.06171760  0.01578497  0.20678637  1
  S  S20  1  0.41308719  0.99432223  0.97933431  1
  S  S21  1  0.57394479  0.00231624  0.00278217  1
  S  S22  1  0.16341181  0.93922008  0.88609499  1
  S  S23  1  0.82825998  0.05223993  0.11127178  1
  S  S24  1  0.10303975  0.47349297  0.64770571  1
  S  S25  1  0.89607924  0.42573984  0.35231415  1
  S  S26  1  0.72956832  0.97526909  0.30557145  1
  S  S27  1  0.26324961  0.92732823  0.68056524  1
  S  S28  1  0.16893496  0.48558383  0.45555145  1
  S  S29  1  0.81736687  0.49753312  0.54471917  1
  S  S30  1  0.43136676  0.47991186  0.79082662  1
  S  S31  1  0.56255952  0.51212812  0.19143954  1
  S  S32  1  0.92141874  0.49537030  0.99905654  1
  S  S33  1  0.08544910  0.47094626  0.03561869  1
  S  S34  1  0.67796767  0.56625036  0.91651137  1
  S  S35  1  0.33311649  0.44184215  0.10809536  1
  S  S36  1  0.60722816  0.00688136  0.67118382  1
  S  S37  1  0.40968526  0.06252178  0.34966824  1
  S  S38  1  0.24614956  0.53182467  0.32865110  1
  S  S39  1  0.76518501  0.50008466  0.68988380  1
  S  S40  1  0.66562692  0.98151104  0.44931395  1
  S  S41  1  0.33119066  0.91823562  0.55223030  1
