# generated using pymatgen
data_Pr2Mn3(SbS3)4
_symmetry_space_group_name_H-M   'P 1'
_cell_length_a   20.02960800
_cell_length_b   3.90410600
_cell_length_c   14.95364829
_cell_angle_alpha   90.00000000
_cell_angle_beta   126.33350609
_cell_angle_gamma   90.00000000
_symmetry_Int_Tables_number   1
_chemical_formula_structural   Pr2Mn3(SbS3)4
_chemical_formula_sum   'Pr4 Mn6 Sb8 S24'
_cell_volume   942.00006694
_cell_formula_units_Z   2
loop_
 _symmetry_equiv_pos_site_id
 _symmetry_equiv_pos_as_xyz
  1  'x, y, z'
loop_
 _atom_site_type_symbol
 _atom_site_label
 _atom_site_symmetry_multiplicity
 _atom_site_fract_x
 _atom_site_fract_y
 _atom_site_fract_z
 _atom_site_occupancy
  Pr  Pr0  1  0.27549191  0.47685365  0.87997850  1
  Pr  Pr1  1  0.73499806  0.51058596  0.13872166  1
  Pr  Pr2  1  0.76706427  0.07069337  0.88162458  1
  Pr  Pr3  1  0.23450003  0.90732394  0.12324816  1
  Mn  Mn4  1  0.29529247  0.39532044  0.59886311  1
  Mn  Mn5  1  0.68832899  0.47963917  0.35665313  1
  Mn  Mn6  1  0.00817240  0.96822422  0.02265884  1
  Mn  Mn7  1  0.79587871  0.98922138  0.63595977  1
  Mn  Mn8  1  0.21174483  0.05199251  0.39780223  1
  Mn  Mn9  1  0.47740086  0.50065080  0.97149144  1
  Sb  Sb10  1  0.88268286  0.87506578  0.45534318  1
  Sb  Sb11  1  0.11162542  0.98508924  0.54047592  1
  Sb  Sb12  1  0.03318471  0.49740642  0.82347940  1
  Sb  Sb13  1  0.96490312  0.45960808  0.20181108  1
  Sb  Sb14  1  0.41450499  0.57073413  0.46381616  1
  Sb  Sb15  1  0.60037743  0.57226146  0.53228538  1
  Sb  Sb16  1  0.53398623  0.93423012  0.80353325  1
  Sb  Sb17  1  0.47012405  0.97054374  0.18481069  1
  S  S18  1  0.93137982  0.97019372  0.80358478  1
  S  S19  1  0.06180132  0.01693166  0.20667989  1
  S  S20  1  0.41281737  0.99270963  0.97893477  1
  S  S21  1  0.57362719  0.00260870  0.00280667  1
  S  S22  1  0.16310450  0.93887800  0.88565864  1
  S  S23  1  0.82846301  0.05341525  0.11122975  1
  S  S24  1  0.10291621  0.47256699  0.64743720  1
  S  S25  1  0.89626128  0.42690306  0.35217079  1
  S  S26  1  0.72936772  0.97563087  0.30541098  1
  S  S27  1  0.26340459  0.92882054  0.68073773  1
  S  S28  1  0.16865642  0.48576987  0.45563031  1
  S  S29  1  0.81735377  0.49810284  0.54478677  1
  S  S30  1  0.43119221  0.48035091  0.79077934  1
  S  S31  1  0.56214020  0.51258403  0.19125667  1
  S  S32  1  0.92152684  0.49532972  0.99915468  1
  S  S33  1  0.08530382  0.47125840  0.03552389  1
  S  S34  1  0.67795623  0.56627182  0.91630747  1
  S  S35  1  0.33305893  0.44275968  0.10779948  1
  S  S36  1  0.60714833  0.00682693  0.67121481  1
  S  S37  1  0.40956037  0.06119136  0.34976474  1
  S  S38  1  0.24619716  0.53240316  0.32847961  1
  S  S39  1  0.76551691  0.49893647  0.69006323  1
  S  S40  1  0.66556187  0.98108905  0.44901605  1
  S  S41  1  0.33145749  0.91777199  0.55231733  1
