# generated using pymatgen
data_Pr2Mn3(SbS3)4
_symmetry_space_group_name_H-M   'P 1'
_cell_length_a   20.02960800
_cell_length_b   3.90410600
_cell_length_c   14.95364829
_cell_angle_alpha   90.00000000
_cell_angle_beta   126.33350609
_cell_angle_gamma   90.00000000
_symmetry_Int_Tables_number   1
_chemical_formula_structural   Pr2Mn3(SbS3)4
_chemical_formula_sum   'Pr4 Mn6 Sb8 S24'
_cell_volume   942.00006694
_cell_formula_units_Z   2
loop_
 _symmetry_equiv_pos_site_id
 _symmetry_equiv_pos_as_xyz
  1  'x, y, z'
loop_
 _atom_site_type_symbol
 _atom_site_label
 _atom_site_symmetry_multiplicity
 _atom_site_fract_x
 _atom_site_fract_y
 _atom_site_fract_z
 _atom_site_occupancy
  Pr  Pr0  1  0.27539531  0.47663035  0.87986060  1
  Pr  Pr1  1  0.73500636  0.51065935  0.13902796  1
  Pr  Pr2  1  0.76703607  0.07081524  0.88163787  1
  Pr  Pr3  1  0.23444666  0.90719111  0.12324738  1
  Mn  Mn4  1  0.29546520  0.39497139  0.59918867  1
  Mn  Mn5  1  0.68830062  0.47963516  0.35646717  1
  Mn  Mn6  1  0.00819071  0.96878009  0.02283234  1
  Mn  Mn7  1  0.79576321  0.98881471  0.63588482  1
  Mn  Mn8  1  0.21168130  0.05197419  0.39777089  1
  Mn  Mn9  1  0.47758467  0.49945476  0.97148728  1
  Sb  Sb10  1  0.88260432  0.87461368  0.45516039  1
  Sb  Sb11  1  0.11161313  0.98441164  0.54051657  1
  Sb  Sb12  1  0.03318425  0.49763668  0.82347347  1
  Sb  Sb13  1  0.96488458  0.45955261  0.20166368  1
  Sb  Sb14  1  0.41447912  0.57026221  0.46375870  1
  Sb  Sb15  1  0.60027095  0.57236492  0.53207038  1
  Sb  Sb16  1  0.53404090  0.93455952  0.80349717  1
  Sb  Sb17  1  0.47009014  0.97039113  0.18482520  1
  S  S18  1  0.93141707  0.97063796  0.80359662  1
  S  S19  1  0.06181731  0.01792924  0.20661503  1
  S  S20  1  0.41259885  0.99088648  0.97877398  1
  S  S21  1  0.57329918  0.00287822  0.00285830  1
  S  S22  1  0.16289695  0.93880845  0.88538106  1
  S  S23  1  0.82849984  0.05421888  0.11105576  1
  S  S24  1  0.10268218  0.47160258  0.64715483  1
  S  S25  1  0.89646378  0.42833495  0.35207495  1
  S  S26  1  0.72909939  0.97605543  0.30518197  1
  S  S27  1  0.26363583  0.93015227  0.68087054  1
  S  S28  1  0.16842004  0.48600763  0.45568739  1
  S  S29  1  0.81747136  0.49843514  0.54500189  1
  S  S30  1  0.43114608  0.48054119  0.79081733  1
  S  S31  1  0.56175484  0.51322584  0.19109246  1
  S  S32  1  0.92165914  0.49484437  0.99926476  1
  S  S33  1  0.08520653  0.47172506  0.03544049  1
  S  S34  1  0.67808594  0.56640912  0.91615952  1
  S  S35  1  0.33301061  0.44357298  0.10757855  1
  S  S36  1  0.60699400  0.00611462  0.67110944  1
  S  S37  1  0.40941817  0.05967290  0.34981274  1
  S  S38  1  0.24621849  0.53253030  0.32835111  1
  S  S39  1  0.76589748  0.49735001  0.69033777  1
  S  S40  1  0.66553642  0.98085156  0.44865387  1
  S  S41  1  0.33176770  0.91764326  0.55237632  1
