# generated using pymatgen
data_Pr2Mn3(SbS3)4
_symmetry_space_group_name_H-M   'P 1'
_cell_length_a   20.02960800
_cell_length_b   3.90410600
_cell_length_c   14.95364829
_cell_angle_alpha   90.00000000
_cell_angle_beta   126.33350609
_cell_angle_gamma   90.00000000
_symmetry_Int_Tables_number   1
_chemical_formula_structural   Pr2Mn3(SbS3)4
_chemical_formula_sum   'Pr4 Mn6 Sb8 S24'
_cell_volume   942.00006694
_cell_formula_units_Z   2
loop_
 _symmetry_equiv_pos_site_id
 _symmetry_equiv_pos_as_xyz
  1  'x, y, z'
loop_
 _atom_site_type_symbol
 _atom_site_label
 _atom_site_symmetry_multiplicity
 _atom_site_fract_x
 _atom_site_fract_y
 _atom_site_fract_z
 _atom_site_occupancy
  Pr  Pr0  1  0.27529535  0.47640631  0.87971992  1
  Pr  Pr1  1  0.73500809  0.51068212  0.13929283  1
  Pr  Pr2  1  0.76703100  0.07101400  0.88163388  1
  Pr  Pr3  1  0.23441855  0.90680585  0.12331258  1
  Mn  Mn4  1  0.29567840  0.39471576  0.59952570  1
  Mn  Mn5  1  0.68826669  0.47960875  0.35624807  1
  Mn  Mn6  1  0.00826473  0.96933501  0.02305534  1
  Mn  Mn7  1  0.79561018  0.98799829  0.63574976  1
  Mn  Mn8  1  0.21159308  0.05157433  0.39767387  1
  Mn  Mn9  1  0.47778058  0.49870554  0.97157201  1
  Sb  Sb10  1  0.88248310  0.87426514  0.45504432  1
  Sb  Sb11  1  0.11163236  0.98392202  0.54057913  1
  Sb  Sb12  1  0.03321472  0.49794676  0.82354915  1
  Sb  Sb13  1  0.96485943  0.45945561  0.20158258  1
  Sb  Sb14  1  0.41445174  0.57010609  0.46368559  1
  Sb  Sb15  1  0.60018274  0.57271508  0.53192843  1
  Sb  Sb16  1  0.53407117  0.93497012  0.80340872  1
  Sb  Sb17  1  0.46999397  0.97039710  0.18474210  1
  S  S18  1  0.93137214  0.97154829  0.80352914  1
  S  S19  1  0.06189571  0.01881343  0.20649813  1
  S  S20  1  0.41235753  0.98902921  0.97860335  1
  S  S21  1  0.57297517  0.00321081  0.00288898  1
  S  S22  1  0.16284689  0.93898506  0.88520360  1
  S  S23  1  0.82869761  0.05501541  0.11101023  1
  S  S24  1  0.10232438  0.47139063  0.64676462  1
  S  S25  1  0.89658393  0.42999458  0.35197923  1
  S  S26  1  0.72877909  0.97609806  0.30508259  1
  S  S27  1  0.26380543  0.93115245  0.68091222  1
  S  S28  1  0.16816035  0.48639814  0.45569714  1
  S  S29  1  0.81739458  0.49880881  0.54495198  1
  S  S30  1  0.43111905  0.48055732  0.79101282  1
  S  S31  1  0.56145598  0.51365510  0.19088946  1
  S  S32  1  0.92192929  0.49460133  0.99941814  1
  S  S33  1  0.08504156  0.47228802  0.03528787  1
  S  S34  1  0.67823309  0.56648944  0.91598948  1
  S  S35  1  0.33289520  0.44426014  0.10745419  1
  S  S36  1  0.60686030  0.00482453  0.67101737  1
  S  S37  1  0.40926318  0.05890078  0.34976700  1
  S  S38  1  0.24627336  0.53308946  0.32829380  1
  S  S39  1  0.76617390  0.49561722  0.69039001  1
  S  S40  1  0.66541274  0.98031169  0.44825725  1
  S  S41  1  0.33208192  0.91723860  0.55245208  1
