# generated using pymatgen
data_Pr2Mn3(SbS3)4
_symmetry_space_group_name_H-M   'P 1'
_cell_length_a   20.02960800
_cell_length_b   3.90410600
_cell_length_c   14.95364829
_cell_angle_alpha   90.00000000
_cell_angle_beta   126.33350609
_cell_angle_gamma   90.00000000
_symmetry_Int_Tables_number   1
_chemical_formula_structural   Pr2Mn3(SbS3)4
_chemical_formula_sum   'Pr4 Mn6 Sb8 S24'
_cell_volume   942.00006694
_cell_formula_units_Z   2
loop_
 _symmetry_equiv_pos_site_id
 _symmetry_equiv_pos_as_xyz
  1  'x, y, z'
loop_
 _atom_site_type_symbol
 _atom_site_label
 _atom_site_symmetry_multiplicity
 _atom_site_fract_x
 _atom_site_fract_y
 _atom_site_fract_z
 _atom_site_occupancy
  Pr  Pr0  1  0.26444423  0.47072578  0.86844152  1
  Pr  Pr1  1  0.73749772  0.52408631  0.13801420  1
  Pr  Pr2  1  0.76416091  0.01175786  0.86453419  1
  Pr  Pr3  1  0.23694111  0.00548518  0.13831610  1
  Mn  Mn4  1  0.29272771  0.48549605  0.60181105  1
  Mn  Mn5  1  0.69375253  0.52070415  0.38054355  1
  Mn  Mn6  1  0.00766159  0.99525033  0.00931504  1
  Mn  Mn7  1  0.80356491  0.00823772  0.61437145  1
  Mn  Mn8  1  0.19542335  0.97387968  0.37721111  1
  Mn  Mn9  1  0.49888192  0.45482540  0.98968664  1
  Sb  Sb10  1  0.89016101  0.99404930  0.45245774  1
  Sb  Sb11  1  0.11169758  0.96673425  0.55064846  1
  Sb  Sb12  1  0.03916626  0.51689393  0.81770040  1
  Sb  Sb13  1  0.96357239  0.51145916  0.18621739  1
  Sb  Sb14  1  0.39661352  0.50827901  0.45581294  1
  Sb  Sb15  1  0.60639458  0.48321479  0.54713612  1
  Sb  Sb16  1  0.53454830  0.01008454  0.81179215  1
  Sb  Sb17  1  0.46178502  0.01323706  0.18289157  1
  S  S18  1  0.93531652  0.98834662  0.80500823  1
  S  S19  1  0.06547794  0.97481938  0.18469600  1
  S  S20  1  0.41078252  0.00937612  0.97928369  1
  S  S21  1  0.59084200  0.99542973  0.02299628  1
  S  S22  1  0.17170968  0.99124334  0.89511057  1
  S  S23  1  0.82524251  0.01947764  0.09475972  1
  S  S24  1  0.08735937  0.48051704  0.64406618  1
  S  S25  1  0.90858226  0.47198374  0.35419262  1
  S  S26  1  0.73969880  0.96013853  0.29746798  1
  S  S27  1  0.25878102  0.99885347  0.70555255  1
  S  S28  1  0.17084588  0.48165837  0.44311189  1
  S  S29  1  0.82888873  0.48834099  0.54974620  1
  S  S30  1  0.43338787  0.50049085  0.79584928  1
  S  S31  1  0.56107771  0.50964215  0.18164599  1
  S  S32  1  0.91530861  0.50351621  0.99492860  1
  S  S33  1  0.08167850  0.49399468  0.01270491  1
  S  S34  1  0.66627621  0.48416131  0.88841754  1
  S  S35  1  0.32629321  0.50953241  0.09107015  1
  S  S36  1  0.59563489  0.99830784  0.66043024  1
  S  S37  1  0.40703900  0.97395762  0.34739194  1
  S  S38  1  0.24664343  0.44848995  0.31365696  1
  S  S39  1  0.76242469  0.50443151  0.70131548  1
  S  S40  1  0.67689644  0.02357001  0.46071996  1
  S  S41  1  0.32618886  0.97651542  0.54504347  1
