# generated using pymatgen
data_Pr2Mn3(SbS3)4
_symmetry_space_group_name_H-M   'P 1'
_cell_length_a   20.02960800
_cell_length_b   3.90410600
_cell_length_c   14.95364829
_cell_angle_alpha   90.00000000
_cell_angle_beta   126.33350609
_cell_angle_gamma   90.00000000
_symmetry_Int_Tables_number   1
_chemical_formula_structural   Pr2Mn3(SbS3)4
_chemical_formula_sum   'Pr4 Mn6 Sb8 S24'
_cell_volume   942.00006694
_cell_formula_units_Z   2
loop_
 _symmetry_equiv_pos_site_id
 _symmetry_equiv_pos_as_xyz
  1  'x, y, z'
loop_
 _atom_site_type_symbol
 _atom_site_label
 _atom_site_symmetry_multiplicity
 _atom_site_fract_x
 _atom_site_fract_y
 _atom_site_fract_z
 _atom_site_occupancy
  Pr  Pr0  1  0.27514088  0.47616203  0.87954335  1
  Pr  Pr1  1  0.73508496  0.51079662  0.13956580  1
  Pr  Pr2  1  0.76699628  0.07113171  0.88161922  1
  Pr  Pr3  1  0.23437995  0.90642053  0.12328967  1
  Mn  Mn4  1  0.29588906  0.39457519  0.59982035  1
  Mn  Mn5  1  0.68821339  0.47943862  0.35604590  1
  Mn  Mn6  1  0.00836084  0.97021696  0.02328307  1
  Mn  Mn7  1  0.79557759  0.98751804  0.63575215  1
  Mn  Mn8  1  0.21167678  0.05099439  0.39772442  1
  Mn  Mn9  1  0.47790292  0.49791173  0.97156253  1
  Sb  Sb10  1  0.88238688  0.87391852  0.45497687  1
  Sb  Sb11  1  0.11165285  0.98355210  0.54067799  1
  Sb  Sb12  1  0.03325882  0.49827487  0.82361011  1
  Sb  Sb13  1  0.96485866  0.45960730  0.20150057  1
  Sb  Sb14  1  0.41445069  0.56984591  0.46360327  1
  Sb  Sb15  1  0.60012566  0.57333140  0.53183303  1
  Sb  Sb16  1  0.53418282  0.93520130  0.80337592  1
  Sb  Sb17  1  0.46996194  0.97031383  0.18467981  1
  S  S18  1  0.93126347  0.97275047  0.80338499  1
  S  S19  1  0.06200132  0.01878698  0.20642964  1
  S  S20  1  0.41210849  0.98779504  0.97845707  1
  S  S21  1  0.57270613  0.00309470  0.00298181  1
  S  S22  1  0.16282931  0.93877234  0.88515853  1
  S  S23  1  0.82888949  0.05558151  0.11093436  1
  S  S24  1  0.10200470  0.47096638  0.64641749  1
  S  S25  1  0.89668329  0.43167533  0.35193089  1
  S  S26  1  0.72839090  0.97588809  0.30502214  1
  S  S27  1  0.26392644  0.93231962  0.68103046  1
  S  S28  1  0.16802082  0.48698986  0.45585368  1
  S  S29  1  0.81733094  0.49901756  0.54507939  1
  S  S30  1  0.43108631  0.48034462  0.79127420  1
  S  S31  1  0.56111170  0.51426900  0.19071619  1
  S  S32  1  0.92201223  0.49483083  0.99941613  1
  S  S33  1  0.08482279  0.47280682  0.03502405  1
  S  S34  1  0.67832407  0.56716646  0.91578961  1
  S  S35  1  0.33275528  0.44514613  0.10721982  1
  S  S36  1  0.60669428  0.00392746  0.67085422  1
  S  S37  1  0.40898928  0.05800332  0.34945872  1
  S  S38  1  0.24637980  0.53416901  0.32826191  1
  S  S39  1  0.76643970  0.49396248  0.69060841  1
  S  S40  1  0.66531905  0.97979110  0.44786546  1
  S  S41  1  0.33238567  0.91673153  0.55258712  1
