# generated using pymatgen
data_Pr2Mn3(SbS3)4
_symmetry_space_group_name_H-M   'P 1'
_cell_length_a   20.02960800
_cell_length_b   3.90410600
_cell_length_c   14.95364829
_cell_angle_alpha   90.00000000
_cell_angle_beta   126.33350609
_cell_angle_gamma   90.00000000
_symmetry_Int_Tables_number   1
_chemical_formula_structural   Pr2Mn3(SbS3)4
_chemical_formula_sum   'Pr4 Mn6 Sb8 S24'
_cell_volume   942.00006694
_cell_formula_units_Z   2
loop_
 _symmetry_equiv_pos_site_id
 _symmetry_equiv_pos_as_xyz
  1  'x, y, z'
loop_
 _atom_site_type_symbol
 _atom_site_label
 _atom_site_symmetry_multiplicity
 _atom_site_fract_x
 _atom_site_fract_y
 _atom_site_fract_z
 _atom_site_occupancy
  Pr  Pr0  1  0.27501306  0.47607178  0.87943107  1
  Pr  Pr1  1  0.73512214  0.51069895  0.13979761  1
  Pr  Pr2  1  0.76695961  0.07116499  0.88164468  1
  Pr  Pr3  1  0.23435490  0.90610441  0.12327333  1
  Mn  Mn4  1  0.29607910  0.39400465  0.60000898  1
  Mn  Mn5  1  0.68811322  0.47945079  0.35575007  1
  Mn  Mn6  1  0.00847553  0.97119686  0.02356336  1
  Mn  Mn7  1  0.79549829  0.98719043  0.63575055  1
  Mn  Mn8  1  0.21178488  0.05078564  0.39776016  1
  Mn  Mn9  1  0.47804572  0.49731397  0.97166861  1
  Sb  Sb10  1  0.88228246  0.87348078  0.45495349  1
  Sb  Sb11  1  0.11163506  0.98294086  0.54072149  1
  Sb  Sb12  1  0.03329724  0.49876546  0.82367821  1
  Sb  Sb13  1  0.96482267  0.46010092  0.20137088  1
  Sb  Sb14  1  0.41446823  0.56977918  0.46359339  1
  Sb  Sb15  1  0.60007493  0.57379164  0.53180634  1
  Sb  Sb16  1  0.53431987  0.93526757  0.80349913  1
  Sb  Sb17  1  0.46989043  0.97019028  0.18456403  1
  S  S18  1  0.93119235  0.97393453  0.80317952  1
  S  S19  1  0.06208107  0.01865322  0.20640981  1
  S  S20  1  0.41181779  0.98699734  0.97827179  1
  S  S21  1  0.57246935  0.00314594  0.00296826  1
  S  S22  1  0.16290838  0.93900490  0.88519435  1
  S  S23  1  0.82903420  0.05634691  0.11107792  1
  S  S24  1  0.10173978  0.47016740  0.64623719  1
  S  S25  1  0.89676539  0.43338371  0.35195931  1
  S  S26  1  0.72818589  0.97615499  0.30518746  1
  S  S27  1  0.26407834  0.93390697  0.68109258  1
  S  S28  1  0.16779697  0.48726259  0.45611040  1
  S  S29  1  0.81718588  0.49946159  0.54526213  1
  S  S30  1  0.43086858  0.48036303  0.79150000  1
  S  S31  1  0.56093018  0.51479383  0.19058756  1
  S  S32  1  0.92209010  0.49502323  0.99934753  1
  S  S33  1  0.08461865  0.47287408  0.03469646  1
  S  S34  1  0.67839219  0.56772668  0.91556524  1
  S  S35  1  0.33264962  0.44587673  0.10711436  1
  S  S36  1  0.60649697  0.00271736  0.67071580  1
  S  S37  1  0.40864888  0.05737833  0.34924448  1
  S  S38  1  0.24641170  0.53523570  0.32820272  1
  S  S39  1  0.76673975  0.49211807  0.69087662  1
  S  S40  1  0.66531073  0.97945825  0.44752530  1
  S  S41  1  0.33274880  0.91658589  0.55275625  1
