# generated using pymatgen
data_Pr2Mn3(SbS3)4
_symmetry_space_group_name_H-M   'P 1'
_cell_length_a   20.02960800
_cell_length_b   3.90410600
_cell_length_c   14.95364829
_cell_angle_alpha   90.00000000
_cell_angle_beta   126.33350609
_cell_angle_gamma   90.00000000
_symmetry_Int_Tables_number   1
_chemical_formula_structural   Pr2Mn3(SbS3)4
_chemical_formula_sum   'Pr4 Mn6 Sb8 S24'
_cell_volume   942.00006694
_cell_formula_units_Z   2
loop_
 _symmetry_equiv_pos_site_id
 _symmetry_equiv_pos_as_xyz
  1  'x, y, z'
loop_
 _atom_site_type_symbol
 _atom_site_label
 _atom_site_symmetry_multiplicity
 _atom_site_fract_x
 _atom_site_fract_y
 _atom_site_fract_z
 _atom_site_occupancy
  Pr  Pr0  1  0.27485868  0.47567541  0.87930789  1
  Pr  Pr1  1  0.73513044  0.51072189  0.13997815  1
  Pr  Pr2  1  0.76691467  0.07131942  0.88158107  1
  Pr  Pr3  1  0.23438689  0.90567708  0.12330058  1
  Mn  Mn4  1  0.29626543  0.39380278  0.60024045  1
  Mn  Mn5  1  0.68798672  0.47978810  0.35546709  1
  Mn  Mn6  1  0.00859828  0.97226968  0.02387959  1
  Mn  Mn7  1  0.79549094  0.98696670  0.63580826  1
  Mn  Mn8  1  0.21194420  0.05058177  0.39782466  1
  Mn  Mn9  1  0.47823822  0.49670904  0.97188373  1
  Sb  Sb10  1  0.88221567  0.87308827  0.45493186  1
  Sb  Sb11  1  0.11164852  0.98229656  0.54079856  1
  Sb  Sb12  1  0.03337977  0.49922082  0.82374679  1
  Sb  Sb13  1  0.96474333  0.46071095  0.20127821  1
  Sb  Sb14  1  0.41443948  0.56981432  0.46354802  1
  Sb  Sb15  1  0.60001803  0.57424622  0.53180232  1
  Sb  Sb16  1  0.53451025  0.93513753  0.80367961  1
  Sb  Sb17  1  0.46976046  0.97024558  0.18436081  1
  S  S18  1  0.93101461  0.97536165  0.80282224  1
  S  S19  1  0.06211596  0.01847545  0.20643733  1
  S  S20  1  0.41160249  0.98668356  0.97830937  1
  S  S21  1  0.57222004  0.00316219  0.00293166  1
  S  S22  1  0.16295865  0.93938564  0.88530145  1
  S  S23  1  0.82927406  0.05712463  0.11134235  1
  S  S24  1  0.10153296  0.46942316  0.64611433  1
  S  S25  1  0.89684743  0.43460526  0.35195437  1
  S  S26  1  0.72801099  0.97641112  0.30537349  1
  S  S27  1  0.26421767  0.93550619  0.68099547  1
  S  S28  1  0.16763107  0.48712871  0.45637461  1
  S  S29  1  0.81693238  0.49946696  0.54524854  1
  S  S30  1  0.43065360  0.48073220  0.79159215  1
  S  S31  1  0.56081632  0.51507511  0.19056184  1
  S  S32  1  0.92217951  0.49551110  0.99932522  1
  S  S33  1  0.08442169  0.47270276  0.03443545  1
  S  S34  1  0.67848566  0.56812070  0.91553759  1
  S  S35  1  0.33247363  0.44645586  0.10689207  1
  S  S36  1  0.60625125  0.00108026  0.67052711  1
  S  S37  1  0.40839015  0.05682605  0.34917791  1
  S  S38  1  0.24637853  0.53650665  0.32803679  1
  S  S39  1  0.76701829  0.48985389  0.69127376  1
  S  S40  1  0.66536369  0.97920184  0.44725049  1
  S  S41  1  0.33295471  0.91615116  0.55273531  1
