# generated using pymatgen
data_Pr2Mn3(SbS3)4
_symmetry_space_group_name_H-M   'P 1'
_cell_length_a   20.02960800
_cell_length_b   3.90410600
_cell_length_c   14.95364829
_cell_angle_alpha   90.00000000
_cell_angle_beta   126.33350609
_cell_angle_gamma   90.00000000
_symmetry_Int_Tables_number   1
_chemical_formula_structural   Pr2Mn3(SbS3)4
_chemical_formula_sum   'Pr4 Mn6 Sb8 S24'
_cell_volume   942.00006694
_cell_formula_units_Z   2
loop_
 _symmetry_equiv_pos_site_id
 _symmetry_equiv_pos_as_xyz
  1  'x, y, z'
loop_
 _atom_site_type_symbol
 _atom_site_label
 _atom_site_symmetry_multiplicity
 _atom_site_fract_x
 _atom_site_fract_y
 _atom_site_fract_z
 _atom_site_occupancy
  Pr  Pr0  1  0.27469062  0.47522863  0.87916449  1
  Pr  Pr1  1  0.73511413  0.51072682  0.14018591  1
  Pr  Pr2  1  0.76686649  0.07163359  0.88156960  1
  Pr  Pr3  1  0.23442459  0.90539648  0.12335333  1
  Mn  Mn4  1  0.29633811  0.39356623  0.60034255  1
  Mn  Mn5  1  0.68788293  0.48016693  0.35517614  1
  Mn  Mn6  1  0.00868656  0.97309371  0.02422179  1
  Mn  Mn7  1  0.79550587  0.98649089  0.63583981  1
  Mn  Mn8  1  0.21204659  0.05022681  0.39782282  1
  Mn  Mn9  1  0.47850026  0.49623652  0.97219022  1
  Sb  Sb10  1  0.88211156  0.87278246  0.45489485  1
  Sb  Sb11  1  0.11168979  0.98158901  0.54086494  1
  Sb  Sb12  1  0.03347101  0.49954245  0.82382911  1
  Sb  Sb13  1  0.96471721  0.46124735  0.20116923  1
  Sb  Sb14  1  0.41440570  0.56997070  0.46347089  1
  Sb  Sb15  1  0.59996569  0.57460400  0.53178316  1
  Sb  Sb16  1  0.53466872  0.93508478  0.80385535  1
  Sb  Sb17  1  0.46961268  0.97035228  0.18414406  1
  S  S18  1  0.93084826  0.97632642  0.80247249  1
  S  S19  1  0.06231118  0.01808872  0.20647878  1
  S  S20  1  0.41150653  0.98630332  0.97842485  1
  S  S21  1  0.57183694  0.00253719  0.00266972  1
  S  S22  1  0.16289814  0.94058519  0.88530689  1
  S  S23  1  0.82947566  0.05790906  0.11156468  1
  S  S24  1  0.10121270  0.46890658  0.64581457  1
  S  S25  1  0.89676631  0.43602976  0.35187175  1
  S  S26  1  0.72788994  0.97613178  0.30569940  1
  S  S27  1  0.26430509  0.93637499  0.68093728  1
  S  S28  1  0.16754736  0.48720264  0.45651624  1
  S  S29  1  0.81666038  0.49951171  0.54525479  1
  S  S30  1  0.43045344  0.48093130  0.79175823  1
  S  S31  1  0.56069282  0.51481497  0.19053608  1
  S  S32  1  0.92227850  0.49615170  0.99922779  1
  S  S33  1  0.08419789  0.47226235  0.03424027  1
  S  S34  1  0.67860188  0.56876169  0.91546264  1
  S  S35  1  0.33234504  0.44684024  0.10662584  1
  S  S36  1  0.60613677  0.00019619  0.67055793  1
  S  S37  1  0.40803798  0.05605459  0.34899565  1
  S  S38  1  0.24628227  0.53784669  0.32788313  1
  S  S39  1  0.76735719  0.48810756  0.69180770  1
  S  S40  1  0.66544270  0.97951802  0.44696362  1
  S  S41  1  0.33319683  0.91590875  0.55263564  1
