# generated using pymatgen
data_Pr2Mn3(SbS3)4
_symmetry_space_group_name_H-M   'P 1'
_cell_length_a   20.02960800
_cell_length_b   3.90410600
_cell_length_c   14.95364829
_cell_angle_alpha   90.00000000
_cell_angle_beta   126.33350609
_cell_angle_gamma   90.00000000
_symmetry_Int_Tables_number   1
_chemical_formula_structural   Pr2Mn3(SbS3)4
_chemical_formula_sum   'Pr4 Mn6 Sb8 S24'
_cell_volume   942.00006694
_cell_formula_units_Z   2
loop_
 _symmetry_equiv_pos_site_id
 _symmetry_equiv_pos_as_xyz
  1  'x, y, z'
loop_
 _atom_site_type_symbol
 _atom_site_label
 _atom_site_symmetry_multiplicity
 _atom_site_fract_x
 _atom_site_fract_y
 _atom_site_fract_z
 _atom_site_occupancy
  Pr  Pr0  1  0.27450638  0.47475260  0.87896241  1
  Pr  Pr1  1  0.73509732  0.51063010  0.14038071  1
  Pr  Pr2  1  0.76682195  0.07170699  0.88151735  1
  Pr  Pr3  1  0.23450646  0.90526791  0.12336392  1
  Mn  Mn4  1  0.29641495  0.39363184  0.60044898  1
  Mn  Mn5  1  0.68777281  0.48055475  0.35485742  1
  Mn  Mn6  1  0.00873464  0.97400813  0.02441941  1
  Mn  Mn7  1  0.79550383  0.98608140  0.63587562  1
  Mn  Mn8  1  0.21203033  0.04961021  0.39770398  1
  Mn  Mn9  1  0.47864517  0.49591116  0.97242607  1
  Sb  Sb10  1  0.88200357  0.87278174  0.45491833  1
  Sb  Sb11  1  0.11172255  0.98051489  0.54090659  1
  Sb  Sb12  1  0.03356768  0.49996477  0.82392614  1
  Sb  Sb13  1  0.96472102  0.46183522  0.20109211  1
  Sb  Sb14  1  0.41426783  0.57053488  0.46335187  1
  Sb  Sb15  1  0.59983330  0.57490892  0.53164268  1
  Sb  Sb16  1  0.53485057  0.93516109  0.80397822  1
  Sb  Sb17  1  0.46941926  0.97049852  0.18388226  1
  S  S18  1  0.93076251  0.97662573  0.80222033  1
  S  S19  1  0.06240073  0.01840030  0.20631240  1
  S  S20  1  0.41144011  0.98655524  0.97837588  1
  S  S21  1  0.57153484  0.00218182  0.00246811  1
  S  S22  1  0.16279926  0.94185263  0.88510145  1
  S  S23  1  0.82972549  0.05887799  0.11180839  1
  S  S24  1  0.10082053  0.46893695  0.64538452  1
  S  S25  1  0.89679075  0.43740905  0.35186937  1
  S  S26  1  0.72788424  0.97578777  0.30603129  1
  S  S27  1  0.26448853  0.93679560  0.68104028  1
  S  S28  1  0.16750403  0.48725864  0.45652783  1
  S  S29  1  0.81636024  0.49932024  0.54524116  1
  S  S30  1  0.43028508  0.48084720  0.79188459  1
  S  S31  1  0.56070141  0.51452905  0.19064628  1
  S  S32  1  0.92232658  0.49637393  0.99917367  1
  S  S33  1  0.08404050  0.47170017  0.03402005  1
  S  S34  1  0.67869087  0.56965189  0.91534773  1
  S  S35  1  0.33236508  0.44691907  0.10654700  1
  S  S36  1  0.60612516  0.99984656  0.67058638  1
  S  S37  1  0.40778418  0.05553595  0.34885779  1
  S  S38  1  0.24619396  0.53851663  0.32782178  1
  S  S39  1  0.76763896  0.48630962  0.69224816  1
  S  S40  1  0.66556180  0.97968071  0.44673957  1
  S  S41  1  0.33363158  0.91609656  0.55272331  1
