# generated using pymatgen
data_Pr2Mn3(SbS3)4
_symmetry_space_group_name_H-M   'P 1'
_cell_length_a   20.02960800
_cell_length_b   3.90410600
_cell_length_c   14.95364829
_cell_angle_alpha   90.00000000
_cell_angle_beta   126.33350609
_cell_angle_gamma   90.00000000
_symmetry_Int_Tables_number   1
_chemical_formula_structural   Pr2Mn3(SbS3)4
_chemical_formula_sum   'Pr4 Mn6 Sb8 S24'
_cell_volume   942.00006694
_cell_formula_units_Z   2
loop_
 _symmetry_equiv_pos_site_id
 _symmetry_equiv_pos_as_xyz
  1  'x, y, z'
loop_
 _atom_site_type_symbol
 _atom_site_label
 _atom_site_symmetry_multiplicity
 _atom_site_fract_x
 _atom_site_fract_y
 _atom_site_fract_z
 _atom_site_occupancy
  Pr  Pr0  1  0.27430810  0.47419487  0.87868698  1
  Pr  Pr1  1  0.73508215  0.51052654  0.14055998  1
  Pr  Pr2  1  0.76682644  0.07189282  0.88150758  1
  Pr  Pr3  1  0.23460009  0.90481583  0.12339783  1
  Mn  Mn4  1  0.29650559  0.39390503  0.60060270  1
  Mn  Mn5  1  0.68773393  0.48076668  0.35461721  1
  Mn  Mn6  1  0.00878889  0.97461479  0.02460574  1
  Mn  Mn7  1  0.79546078  0.98525830  0.63588971  1
  Mn  Mn8  1  0.21197841  0.04900648  0.39755337  1
  Mn  Mn9  1  0.47888506  0.49592466  0.97270035  1
  Sb  Sb10  1  0.88190021  0.87265803  0.45492720  1
  Sb  Sb11  1  0.11164261  0.97931198  0.54087496  1
  Sb  Sb12  1  0.03372297  0.50037089  0.82412446  1
  Sb  Sb13  1  0.96470867  0.46211020  0.20099120  1
  Sb  Sb14  1  0.41416784  0.57086046  0.46325404  1
  Sb  Sb15  1  0.59974546  0.57548467  0.53160228  1
  Sb  Sb16  1  0.53497331  0.93510062  0.80408144  1
  Sb  Sb17  1  0.46917104  0.97059624  0.18355779  1
  S  S18  1  0.93065047  0.97736163  0.80207918  1
  S  S19  1  0.06244806  0.01894712  0.20609448  1
  S  S20  1  0.41137156  0.98649428  0.97826152  1
  S  S21  1  0.57131393  0.00198316  0.00230743  1
  S  S22  1  0.16274455  0.94285933  0.88491360  1
  S  S23  1  0.83000241  0.05961643  0.11206169  1
  S  S24  1  0.10045363  0.46958522  0.64498028  1
  S  S25  1  0.89689977  0.43855419  0.35187074  1
  S  S26  1  0.72790808  0.97581036  0.30628904  1
  S  S27  1  0.26473128  0.93691535  0.68133434  1
  S  S28  1  0.16745187  0.48689647  0.45641866  1
  S  S29  1  0.81608239  0.49907345  0.54527032  1
  S  S30  1  0.43008078  0.48017265  0.79181898  1
  S  S31  1  0.56078699  0.51441817  0.19089454  1
  S  S32  1  0.92227165  0.49645357  0.99920975  1
  S  S33  1  0.08388889  0.47150951  0.03384317  1
  S  S34  1  0.67873955  0.57036351  0.91508155  1
  S  S35  1  0.33237084  0.44684677  0.10641172  1
  S  S36  1  0.60628858  0.99928923  0.67076885  1
  S  S37  1  0.40753131  0.05512115  0.34865383  1
  S  S38  1  0.24620136  0.53925641  0.32787256  1
  S  S39  1  0.76789020  0.48506230  0.69266078  1
  S  S40  1  0.66565631  0.98036990  0.44649743  1
  S  S41  1  0.33405226  0.91635764  0.55279908  1
