# generated using pymatgen
data_Pr2Mn3(SbS3)4
_symmetry_space_group_name_H-M   'P 1'
_cell_length_a   20.02960800
_cell_length_b   3.90410600
_cell_length_c   14.95364829
_cell_angle_alpha   90.00000000
_cell_angle_beta   126.33350609
_cell_angle_gamma   90.00000000
_symmetry_Int_Tables_number   1
_chemical_formula_structural   Pr2Mn3(SbS3)4
_chemical_formula_sum   'Pr4 Mn6 Sb8 S24'
_cell_volume   942.00006694
_cell_formula_units_Z   2
loop_
 _symmetry_equiv_pos_site_id
 _symmetry_equiv_pos_as_xyz
  1  'x, y, z'
loop_
 _atom_site_type_symbol
 _atom_site_label
 _atom_site_symmetry_multiplicity
 _atom_site_fract_x
 _atom_site_fract_y
 _atom_site_fract_z
 _atom_site_occupancy
  Pr  Pr0  1  0.27416195  0.47405119  0.87840227  1
  Pr  Pr1  1  0.73506251  0.51037554  0.14068110  1
  Pr  Pr2  1  0.76683438  0.07212508  0.88148428  1
  Pr  Pr3  1  0.23463310  0.90440846  0.12339704  1
  Mn  Mn4  1  0.29653383  0.39428490  0.60069080  1
  Mn  Mn5  1  0.68775865  0.48066154  0.35448553  1
  Mn  Mn6  1  0.00891356  0.97500442  0.02487784  1
  Mn  Mn7  1  0.79529460  0.98452223  0.63568673  1
  Mn  Mn8  1  0.21194757  0.04865156  0.39747857  1
  Mn  Mn9  1  0.47904769  0.49579805  0.97281859  1
  Sb  Sb10  1  0.88173588  0.87267475  0.45486863  1
  Sb  Sb11  1  0.11159201  0.97814367  0.54082803  1
  Sb  Sb12  1  0.03381222  0.50070353  0.82420251  1
  Sb  Sb13  1  0.96469742  0.46241933  0.20089844  1
  Sb  Sb14  1  0.41406807  0.57100519  0.46315458  1
  Sb  Sb15  1  0.59958855  0.57578884  0.53153180  1
  Sb  Sb16  1  0.53502871  0.93519070  0.80421817  1
  Sb  Sb17  1  0.46895895  0.97052139  0.18321226  1
  S  S18  1  0.93058826  0.97824666  0.80195333  1
  S  S19  1  0.06252947  0.01953063  0.20590297  1
  S  S20  1  0.41122315  0.98693281  0.97809554  1
  S  S21  1  0.57106740  0.00204754  0.00208238  1
  S  S22  1  0.16277475  0.94383730  0.88477950  1
  S  S23  1  0.83040290  0.06025379  0.11240705  1
  S  S24  1  0.10011240  0.47026661  0.64470932  1
  S  S25  1  0.89699934  0.43959513  0.35180220  1
  S  S26  1  0.72779906  0.97586189  0.30638668  1
  S  S27  1  0.26483305  0.93722810  0.68151258  1
  S  S28  1  0.16728645  0.48652111  0.45624782  1
  S  S29  1  0.81582740  0.49849940  0.54518236  1
  S  S30  1  0.43000933  0.47932459  0.79191270  1
  S  S31  1  0.56082806  0.51428716  0.19105601  1
  S  S32  1  0.92214416  0.49717628  0.99923755  1
  S  S33  1  0.08378486  0.47162704  0.03359123  1
  S  S34  1  0.67892970  0.57088755  0.91489635  1
  S  S35  1  0.33245566  0.44702291  0.10646772  1
  S  S36  1  0.60627620  0.99891277  0.67078762  1
  S  S37  1  0.40745378  0.05462903  0.34851977  1
  S  S38  1  0.24625959  0.53974570  0.32793729  1
  S  S39  1  0.76831251  0.48370757  0.69292184  1
  S  S40  1  0.66573442  0.98112378  0.44636063  1
  S  S41  1  0.33438174  0.91622311  0.55274133  1
