# generated using pymatgen
data_Pr2Mn3(SbS3)4
_symmetry_space_group_name_H-M   'P 1'
_cell_length_a   20.02960800
_cell_length_b   3.90410600
_cell_length_c   14.95364829
_cell_angle_alpha   90.00000000
_cell_angle_beta   126.33350609
_cell_angle_gamma   90.00000000
_symmetry_Int_Tables_number   1
_chemical_formula_structural   Pr2Mn3(SbS3)4
_chemical_formula_sum   'Pr4 Mn6 Sb8 S24'
_cell_volume   942.00006694
_cell_formula_units_Z   2
loop_
 _symmetry_equiv_pos_site_id
 _symmetry_equiv_pos_as_xyz
  1  'x, y, z'
loop_
 _atom_site_type_symbol
 _atom_site_label
 _atom_site_symmetry_multiplicity
 _atom_site_fract_x
 _atom_site_fract_y
 _atom_site_fract_z
 _atom_site_occupancy
  Pr  Pr0  1  0.27407462  0.47380074  0.87820475  1
  Pr  Pr1  1  0.73502218  0.51064550  0.14080589  1
  Pr  Pr2  1  0.76682621  0.07236200  0.88143041  1
  Pr  Pr3  1  0.23465498  0.90441664  0.12333813  1
  Mn  Mn4  1  0.29653135  0.39483373  0.60076298  1
  Mn  Mn5  1  0.68783813  0.48093199  0.35436608  1
  Mn  Mn6  1  0.00906756  0.97505463  0.02512095  1
  Mn  Mn7  1  0.79510514  0.98353634  0.63547969  1
  Mn  Mn8  1  0.21193430  0.04819062  0.39737097  1
  Mn  Mn9  1  0.47922654  0.49550559  0.97288982  1
  Sb  Sb10  1  0.88154314  0.87255060  0.45479673  1
  Sb  Sb11  1  0.11155984  0.97708892  0.54081783  1
  Sb  Sb12  1  0.03392536  0.50096552  0.82434664  1
  Sb  Sb13  1  0.96473398  0.46249933  0.20088186  1
  Sb  Sb14  1  0.41397479  0.57103731  0.46307497  1
  Sb  Sb15  1  0.59948517  0.57604912  0.53157156  1
  Sb  Sb16  1  0.53510757  0.93543462  0.80437683  1
  Sb  Sb17  1  0.46876434  0.97056652  0.18283892  1
  S  S18  1  0.93065227  0.97879633  0.80199863  1
  S  S19  1  0.06260588  0.02007418  0.20572361  1
  S  S20  1  0.41108230  0.98750052  0.97797324  1
  S  S21  1  0.57081628  0.00202962  0.00185345  1
  S  S22  1  0.16276436  0.94489372  0.88452892  1
  S  S23  1  0.83077571  0.06022181  0.11276131  1
  S  S24  1  0.09970626  0.47066642  0.64419684  1
  S  S25  1  0.89700081  0.44069499  0.35156189  1
  S  S26  1  0.72768402  0.97608965  0.30649024  1
  S  S27  1  0.26492128  0.93763154  0.68164546  1
  S  S28  1  0.16716085  0.48607589  0.45607739  1
  S  S29  1  0.81571962  0.49827228  0.54528315  1
  S  S30  1  0.42994748  0.47809390  0.79193297  1
  S  S31  1  0.56080953  0.51376394  0.19118167  1
  S  S32  1  0.92198724  0.49818648  0.99913023  1
  S  S33  1  0.08362037  0.47176093  0.03322442  1
  S  S34  1  0.67921116  0.57121550  0.91476202  1
  S  S35  1  0.33257318  0.44711277  0.10678251  1
  S  S36  1  0.60627505  0.99906111  0.67075734  1
  S  S37  1  0.40746609  0.05405994  0.34845740  1
  S  S38  1  0.24627788  0.53990782  0.32792419  1
  S  S39  1  0.76863065  0.48256762  0.69329162  1
  S  S40  1  0.66580807  0.98186555  0.44611747  1
  S  S41  1  0.33473705  0.91638212  0.55277361  1
