# generated using pymatgen
data_Pr2Mn3(SbS3)4
_symmetry_space_group_name_H-M   'P 1'
_cell_length_a   20.02960800
_cell_length_b   3.90410600
_cell_length_c   14.95364829
_cell_angle_alpha   90.00000000
_cell_angle_beta   126.33350609
_cell_angle_gamma   90.00000000
_symmetry_Int_Tables_number   1
_chemical_formula_structural   Pr2Mn3(SbS3)4
_chemical_formula_sum   'Pr4 Mn6 Sb8 S24'
_cell_volume   942.00006694
_cell_formula_units_Z   2
loop_
 _symmetry_equiv_pos_site_id
 _symmetry_equiv_pos_as_xyz
  1  'x, y, z'
loop_
 _atom_site_type_symbol
 _atom_site_label
 _atom_site_symmetry_multiplicity
 _atom_site_fract_x
 _atom_site_fract_y
 _atom_site_fract_z
 _atom_site_occupancy
  Pr  Pr0  1  0.27402508  0.47338025  0.87800108  1
  Pr  Pr1  1  0.73499391  0.51074644  0.14092030  1
  Pr  Pr2  1  0.76679794  0.07274733  0.88143857  1
  Pr  Pr3  1  0.23469940  0.90440055  0.12330251  1
  Mn  Mn4  1  0.29658977  0.39522608  0.60089358  1
  Mn  Mn5  1  0.68798626  0.48130359  0.35427989  1
  Mn  Mn6  1  0.00913626  0.97527249  0.02525848  1
  Mn  Mn7  1  0.79485586  0.98251422  0.63522277  1
  Mn  Mn8  1  0.21204926  0.04818137  0.39733789  1
  Mn  Mn9  1  0.47922966  0.49520785  0.97287821  1
  Sb  Sb10  1  0.88134036  0.87261565  0.45476036  1
  Sb  Sb11  1  0.11150751  0.97598417  0.54086143  1
  Sb  Sb12  1  0.03401482  0.50127293  0.82444163  1
  Sb  Sb13  1  0.96480549  0.46264100  0.20089274  1
  Sb  Sb14  1  0.41384982  0.57082371  0.46294214  1
  Sb  Sb15  1  0.59939864  0.57622207  0.53163724  1
  Sb  Sb16  1  0.53518765  0.93600482  0.80455047  1
  Sb  Sb17  1  0.46855545  0.97035515  0.18258163  1
  S  S18  1  0.93069567  0.97945175  0.80206778  1
  S  S19  1  0.06269391  0.02086787  0.20554436  1
  S  S20  1  0.41098333  0.98816918  0.97793829  1
  S  S21  1  0.57063922  0.00214258  0.00181347  1
  S  S22  1  0.16279849  0.94566731  0.88435621  1
  S  S23  1  0.83110321  0.05961429  0.11309865  1
  S  S24  1  0.09942411  0.47073218  0.64370996  1
  S  S25  1  0.89705189  0.44139468  0.35145422  1
  S  S26  1  0.72763809  0.97692287  0.30667109  1
  S  S27  1  0.26504734  0.93813883  0.68179952  1
  S  S28  1  0.16690078  0.48572548  0.45576737  1
  S  S29  1  0.81567358  0.49816037  0.54543997  1
  S  S30  1  0.42990466  0.47691255  0.79205831  1
  S  S31  1  0.56072009  0.51348626  0.19115941  1
  S  S32  1  0.92197951  0.49939820  0.99917309  1
  S  S33  1  0.08354504  0.47154138  0.03283746  1
  S  S34  1  0.67953218  0.57187922  0.91464717  1
  S  S35  1  0.33275080  0.44720393  0.10713479  1
  S  S36  1  0.60625242  0.99903106  0.67066042  1
  S  S37  1  0.40748949  0.05369683  0.34859776  1
  S  S38  1  0.24629679  0.54031010  0.32790568  1
  S  S39  1  0.76892088  0.48139559  0.69364033  1
  S  S40  1  0.66595418  0.98319859  0.44593782  1
  S  S41  1  0.33508015  0.91655026  0.55264655  1
