# generated using pymatgen
data_Pr2Mn3(SbS3)4
_symmetry_space_group_name_H-M   'P 1'
_cell_length_a   20.02960800
_cell_length_b   3.90410600
_cell_length_c   14.95364829
_cell_angle_alpha   90.00000000
_cell_angle_beta   126.33350609
_cell_angle_gamma   90.00000000
_symmetry_Int_Tables_number   1
_chemical_formula_structural   Pr2Mn3(SbS3)4
_chemical_formula_sum   'Pr4 Mn6 Sb8 S24'
_cell_volume   942.00006694
_cell_formula_units_Z   2
loop_
 _symmetry_equiv_pos_site_id
 _symmetry_equiv_pos_as_xyz
  1  'x, y, z'
loop_
 _atom_site_type_symbol
 _atom_site_label
 _atom_site_symmetry_multiplicity
 _atom_site_fract_x
 _atom_site_fract_y
 _atom_site_fract_z
 _atom_site_occupancy
  Pr  Pr0  1  0.27395558  0.47312210  0.87774030  1
  Pr  Pr1  1  0.73498428  0.51098596  0.14098484  1
  Pr  Pr2  1  0.76677290  0.07314859  0.88145910  1
  Pr  Pr3  1  0.23473191  0.90434871  0.12330517  1
  Mn  Mn4  1  0.29667950  0.39510853  0.60101288  1
  Mn  Mn5  1  0.68808526  0.48192119  0.35421545  1
  Mn  Mn6  1  0.00914557  0.97534609  0.02530831  1
  Mn  Mn7  1  0.79466613  0.98172365  0.63493718  1
  Mn  Mn8  1  0.21221917  0.04823630  0.39747323  1
  Mn  Mn9  1  0.47917083  0.49491832  0.97277476  1
  Sb  Sb10  1  0.88120573  0.87250218  0.45474909  1
  Sb  Sb11  1  0.11149605  0.97499230  0.54092718  1
  Sb  Sb12  1  0.03407928  0.50154691  0.82456756  1
  Sb  Sb13  1  0.96491353  0.46290575  0.20096937  1
  Sb  Sb14  1  0.41372848  0.57061229  0.46280843  1
  Sb  Sb15  1  0.59936107  0.57636536  0.53177859  1
  Sb  Sb16  1  0.53520229  0.93647525  0.80469321  1
  Sb  Sb17  1  0.46835564  0.97026254  0.18231956  1
  S  S18  1  0.93072723  0.98010558  0.80222153  1
  S  S19  1  0.06281003  0.02178281  0.20544818  1
  S  S20  1  0.41095875  0.98858401  0.97800208  1
  S  S21  1  0.57044884  0.00196039  0.00160222  1
  S  S22  1  0.16292159  0.94641045  0.88416275  1
  S  S23  1  0.83151372  0.05892419  0.11332048  1
  S  S24  1  0.09922643  0.47109357  0.64334471  1
  S  S25  1  0.89705317  0.44240536  0.35124976  1
  S  S26  1  0.72769691  0.97780844  0.30684143  1
  S  S27  1  0.26511864  0.93888285  0.68200212  1
  S  S28  1  0.16670878  0.48521195  0.45560855  1
  S  S29  1  0.81563448  0.49804093  0.54542431  1
  S  S30  1  0.42988827  0.47610471  0.79227499  1
  S  S31  1  0.56065960  0.51286616  0.19106748  1
  S  S32  1  0.92182705  0.50053928  0.99910217  1
  S  S33  1  0.08345801  0.47119728  0.03250781  1
  S  S34  1  0.67985880  0.57208734  0.91445988  1
  S  S35  1  0.33303770  0.44732434  0.10744604  1
  S  S36  1  0.60631657  0.99913884  0.67066967  1
  S  S37  1  0.40751369  0.05342919  0.34866197  1
  S  S38  1  0.24631381  0.54102061  0.32796729  1
  S  S39  1  0.76925864  0.48048809  0.69418379  1
  S  S40  1  0.66614458  0.98440384  0.44592492  1
  S  S41  1  0.33527662  0.91695225  0.55247703  1
