# generated using pymatgen
data_Pr2Mn3(SbS3)4
_symmetry_space_group_name_H-M   'P 1'
_cell_length_a   20.02960800
_cell_length_b   3.90410600
_cell_length_c   14.95364829
_cell_angle_alpha   90.00000000
_cell_angle_beta   126.33350609
_cell_angle_gamma   90.00000000
_symmetry_Int_Tables_number   1
_chemical_formula_structural   Pr2Mn3(SbS3)4
_chemical_formula_sum   'Pr4 Mn6 Sb8 S24'
_cell_volume   942.00006694
_cell_formula_units_Z   2
loop_
 _symmetry_equiv_pos_site_id
 _symmetry_equiv_pos_as_xyz
  1  'x, y, z'
loop_
 _atom_site_type_symbol
 _atom_site_label
 _atom_site_symmetry_multiplicity
 _atom_site_fract_x
 _atom_site_fract_y
 _atom_site_fract_z
 _atom_site_occupancy
  Pr  Pr0  1  0.26441237  0.47054058  0.86828549  1
  Pr  Pr1  1  0.73737746  0.52433711  0.13793601  1
  Pr  Pr2  1  0.76419984  0.01156417  0.86453125  1
  Pr  Pr3  1  0.23701506  0.00577672  0.13825500  1
  Mn  Mn4  1  0.29275447  0.48507754  0.60169688  1
  Mn  Mn5  1  0.69360674  0.52003301  0.38057176  1
  Mn  Mn6  1  0.00787670  0.99533541  0.00995022  1
  Mn  Mn7  1  0.80368563  0.00861301  0.61427029  1
  Mn  Mn8  1  0.19555754  0.97447149  0.37705611  1
  Mn  Mn9  1  0.49850142  0.45348692  0.98938437  1
  Sb  Sb10  1  0.89020700  0.99367174  0.45238491  1
  Sb  Sb11  1  0.11161169  0.96738252  0.55046480  1
  Sb  Sb12  1  0.03905133  0.51721134  0.81763778  1
  Sb  Sb13  1  0.96362057  0.51122410  0.18611166  1
  Sb  Sb14  1  0.39642950  0.50893025  0.45573700  1
  Sb  Sb15  1  0.60640730  0.48283034  0.54712252  1
  Sb  Sb16  1  0.53473714  0.01026366  0.81192308  1
  Sb  Sb17  1  0.46170707  0.01378231  0.18279770  1
  S  S18  1  0.93503545  0.98901821  0.80486975  1
  S  S19  1  0.06566865  0.97497905  0.18482552  1
  S  S20  1  0.41085775  0.00860750  0.97935531  1
  S  S21  1  0.59074988  0.99512049  0.02266080  1
  S  S22  1  0.17156235  0.99217634  0.89546259  1
  S  S23  1  0.82536880  0.01894204  0.09485204  1
  S  S24  1  0.08726469  0.48164774  0.64379057  1
  S  S25  1  0.90831937  0.47069198  0.35396062  1
  S  S26  1  0.73967167  0.96032777  0.29737697  1
  S  S27  1  0.25877799  0.99913454  0.70580052  1
  S  S28  1  0.17075384  0.48084947  0.44264014  1
  S  S29  1  0.82883101  0.48761919  0.54944843  1
  S  S30  1  0.43335574  0.50079020  0.79552876  1
  S  S31  1  0.56096511  0.51005798  0.18128840  1
  S  S32  1  0.91547558  0.50423335  0.99494524  1
  S  S33  1  0.08166831  0.49343457  0.01263765  1
  S  S34  1  0.66641627  0.48450411  0.88846241  1
  S  S35  1  0.32645842  0.50937711  0.09128841  1
  S  S36  1  0.59598699  0.99721632  0.66086149  1
  S  S37  1  0.40701378  0.97440082  0.34756505  1
  S  S38  1  0.24690396  0.44736144  0.31415295  1
  S  S39  1  0.76266970  0.50485721  0.70165969  1
  S  S40  1  0.67660300  0.02448469  0.46037914  1
  S  S41  1  0.32584634  0.97536969  0.54514159  1
