# generated using pymatgen
data_Pr2Mn3(SbS3)4
_symmetry_space_group_name_H-M   'P 1'
_cell_length_a   20.02960800
_cell_length_b   3.90410600
_cell_length_c   14.95364829
_cell_angle_alpha   90.00000000
_cell_angle_beta   126.33350609
_cell_angle_gamma   90.00000000
_symmetry_Int_Tables_number   1
_chemical_formula_structural   Pr2Mn3(SbS3)4
_chemical_formula_sum   'Pr4 Mn6 Sb8 S24'
_cell_volume   942.00006694
_cell_formula_units_Z   2
loop_
 _symmetry_equiv_pos_site_id
 _symmetry_equiv_pos_as_xyz
  1  'x, y, z'
loop_
 _atom_site_type_symbol
 _atom_site_label
 _atom_site_symmetry_multiplicity
 _atom_site_fract_x
 _atom_site_fract_y
 _atom_site_fract_z
 _atom_site_occupancy
  Pr  Pr0  1  0.27393013  0.47296391  0.87756579  1
  Pr  Pr1  1  0.73498892  0.51116235  0.14104290  1
  Pr  Pr2  1  0.76677240  0.07377824  0.88147793  1
  Pr  Pr3  1  0.23481923  0.90427224  0.12339878  1
  Mn  Mn4  1  0.29677990  0.39493199  0.60108974  1
  Mn  Mn5  1  0.68810551  0.48261484  0.35418714  1
  Mn  Mn6  1  0.00913172  0.97539504  0.02529930  1
  Mn  Mn7  1  0.79448435  0.98124835  0.63475584  1
  Mn  Mn8  1  0.21240175  0.04873190  0.39756229  1
  Mn  Mn9  1  0.47909901  0.49427459  0.97264952  1
  Sb  Sb10  1  0.88109275  0.87212388  0.45477669  1
  Sb  Sb11  1  0.11153619  0.97391896  0.54099936  1
  Sb  Sb12  1  0.03413907  0.50152149  0.82465180  1
  Sb  Sb13  1  0.96493229  0.46335782  0.20097377  1
  Sb  Sb14  1  0.41364060  0.57052006  0.46268620  1
  Sb  Sb15  1  0.59935743  0.57632035  0.53187552  1
  Sb  Sb16  1  0.53517794  0.93681716  0.80480049  1
  Sb  Sb17  1  0.46822058  0.97016218  0.18205759  1
  S  S18  1  0.93073856  0.98049625  0.80243780  1
  S  S19  1  0.06288342  0.02261081  0.20537772  1
  S  S20  1  0.41096118  0.98881004  0.97806254  1
  S  S21  1  0.57034907  0.00162967  0.00142031  1
  S  S22  1  0.16301802  0.94686459  0.88412444  1
  S  S23  1  0.83187657  0.05793056  0.11334906  1
  S  S24  1  0.09909021  0.47121562  0.64299931  1
  S  S25  1  0.89695480  0.44332979  0.35103880  1
  S  S26  1  0.72774039  0.97828485  0.30694343  1
  S  S27  1  0.26509091  0.93963617  0.68203369  1
  S  S28  1  0.16656281  0.48519620  0.45549927  1
  S  S29  1  0.81561542  0.49784994  0.54550802  1
  S  S30  1  0.42981170  0.47528318  0.79255497  1
  S  S31  1  0.56056553  0.51251421  0.19101332  1
  S  S32  1  0.92169690  0.50153134  0.99895599  1
  S  S33  1  0.08337928  0.47147577  0.03205376  1
  S  S34  1  0.68027051  0.57250546  0.91441034  1
  S  S35  1  0.33321239  0.44740415  0.10777503  1
  S  S36  1  0.60632016  0.99927538  0.67064749  1
  S  S37  1  0.40748760  0.05307415  0.34853888  1
  S  S38  1  0.24631500  0.54166021  0.32796539  1
  S  S39  1  0.76971312  0.47945889  0.69478723  1
  S  S40  1  0.66623759  0.98536597  0.44571767  1
  S  S41  1  0.33543723  0.91749381  0.55229071  1
