# generated using pymatgen
data_Pr2Mn3(SbS3)4
_symmetry_space_group_name_H-M   'P 1'
_cell_length_a   20.02960800
_cell_length_b   3.90410600
_cell_length_c   14.95364829
_cell_angle_alpha   90.00000000
_cell_angle_beta   126.33350609
_cell_angle_gamma   90.00000000
_symmetry_Int_Tables_number   1
_chemical_formula_structural   Pr2Mn3(SbS3)4
_chemical_formula_sum   'Pr4 Mn6 Sb8 S24'
_cell_volume   942.00006694
_cell_formula_units_Z   2
loop_
 _symmetry_equiv_pos_site_id
 _symmetry_equiv_pos_as_xyz
  1  'x, y, z'
loop_
 _atom_site_type_symbol
 _atom_site_label
 _atom_site_symmetry_multiplicity
 _atom_site_fract_x
 _atom_site_fract_y
 _atom_site_fract_z
 _atom_site_occupancy
  Pr  Pr0  1  0.27390154  0.47295094  0.87746270  1
  Pr  Pr1  1  0.73494974  0.51125822  0.14110394  1
  Pr  Pr2  1  0.76673517  0.07430505  0.88145181  1
  Pr  Pr3  1  0.23494121  0.90427983  0.12354110  1
  Mn  Mn4  1  0.29688908  0.39503401  0.60119225  1
  Mn  Mn5  1  0.68820145  0.48331154  0.35420135  1
  Mn  Mn6  1  0.00914795  0.97573262  0.02524137  1
  Mn  Mn7  1  0.79437260  0.98070674  0.63463779  1
  Mn  Mn8  1  0.21259527  0.04912501  0.39765985  1
  Mn  Mn9  1  0.47891770  0.49322159  0.97240167  1
  Sb  Sb10  1  0.88101750  0.87182059  0.45479733  1
  Sb  Sb11  1  0.11164880  0.97280378  0.54113621  1
  Sb  Sb12  1  0.03419433  0.50140043  0.82470916  1
  Sb  Sb13  1  0.96498554  0.46342933  0.20102457  1
  Sb  Sb14  1  0.41353991  0.57052720  0.46252333  1
  Sb  Sb15  1  0.59941427  0.57614207  0.53201727  1
  Sb  Sb16  1  0.53510695  0.93699561  0.80483977  1
  Sb  Sb17  1  0.46808567  0.97006972  0.18182525  1
  S  S18  1  0.93084512  0.98066563  0.80271590  1
  S  S19  1  0.06301403  0.02357597  0.20540202  1
  S  S20  1  0.41099884  0.98913351  0.97808322  1
  S  S21  1  0.57014316  0.00114158  0.00120388  1
  S  S22  1  0.16311631  0.94723548  0.88395615  1
  S  S23  1  0.83208199  0.05666418  0.11331667  1
  S  S24  1  0.09894716  0.47142484  0.64257229  1
  S  S25  1  0.89690436  0.44423916  0.35090499  1
  S  S26  1  0.72780521  0.97856096  0.30712857  1
  S  S27  1  0.26504762  0.94018199  0.68208915  1
  S  S28  1  0.16637247  0.48528534  0.45538769  1
  S  S29  1  0.81539973  0.49760161  0.54541052  1
  S  S30  1  0.42970485  0.47469465  0.79274161  1
  S  S31  1  0.56049741  0.51161835  0.19111303  1
  S  S32  1  0.92155015  0.50256493  0.99893557  1
  S  S33  1  0.08313288  0.47171215  0.03148768  1
  S  S34  1  0.68059437  0.57273531  0.91413045  1
  S  S35  1  0.33325048  0.44753484  0.10787253  1
  S  S36  1  0.60627184  0.99884816  0.67066776  1
  S  S37  1  0.40739932  0.05247170  0.34833610  1
  S  S38  1  0.24636440  0.54185211  0.32795602  1
  S  S39  1  0.77013100  0.47867425  0.69540806  1
  S  S40  1  0.66623538  0.98647349  0.44542831  1
  S  S41  1  0.33558659  0.91782024  0.55211270  1
