# generated using pymatgen
data_Pr2Mn3(SbS3)4
_symmetry_space_group_name_H-M   'P 1'
_cell_length_a   20.02960800
_cell_length_b   3.90410600
_cell_length_c   14.95364829
_cell_angle_alpha   90.00000000
_cell_angle_beta   126.33350609
_cell_angle_gamma   90.00000000
_symmetry_Int_Tables_number   1
_chemical_formula_structural   Pr2Mn3(SbS3)4
_chemical_formula_sum   'Pr4 Mn6 Sb8 S24'
_cell_volume   942.00006694
_cell_formula_units_Z   2
loop_
 _symmetry_equiv_pos_site_id
 _symmetry_equiv_pos_as_xyz
  1  'x, y, z'
loop_
 _atom_site_type_symbol
 _atom_site_label
 _atom_site_symmetry_multiplicity
 _atom_site_fract_x
 _atom_site_fract_y
 _atom_site_fract_z
 _atom_site_occupancy
  Pr  Pr0  1  0.27385230  0.47314502  0.87727788  1
  Pr  Pr1  1  0.73487982  0.51128865  0.14106167  1
  Pr  Pr2  1  0.76671960  0.07478878  0.88138580  1
  Pr  Pr3  1  0.23505636  0.90421149  0.12367852  1
  Mn  Mn4  1  0.29703308  0.39563803  0.60134784  1
  Mn  Mn5  1  0.68835730  0.48376107  0.35431048  1
  Mn  Mn6  1  0.00911211  0.97605962  0.02501253  1
  Mn  Mn7  1  0.79422993  0.97979727  0.63464379  1
  Mn  Mn8  1  0.21282778  0.04949362  0.39778788  1
  Mn  Mn9  1  0.47867260  0.49212481  0.97221021  1
  Sb  Sb10  1  0.88098158  0.87115443  0.45481722  1
  Sb  Sb11  1  0.11176104  0.97176154  0.54124260  1
  Sb  Sb12  1  0.03426048  0.50125785  0.82475563  1
  Sb  Sb13  1  0.96500912  0.46357087  0.20097886  1
  Sb  Sb14  1  0.41338957  0.57056717  0.46232647  1
  Sb  Sb15  1  0.59950051  0.57596125  0.53219862  1
  Sb  Sb16  1  0.53506226  0.93714435  0.80485316  1
  Sb  Sb17  1  0.46794994  0.97015023  0.18161615  1
  S  S18  1  0.93092661  0.98051519  0.80290369  1
  S  S19  1  0.06315693  0.02472044  0.20540261  1
  S  S20  1  0.41097704  0.99001712  0.97807988  1
  S  S21  1  0.57014321  0.00135727  0.00121620  1
  S  S22  1  0.16325322  0.94782141  0.88381877  1
  S  S23  1  0.83232482  0.05519317  0.11327288  1
  S  S24  1  0.09883889  0.47139574  0.64202337  1
  S  S25  1  0.89689909  0.44514702  0.35075871  1
  S  S26  1  0.72781393  0.97891428  0.30733524  1
  S  S27  1  0.26504166  0.93981519  0.68219482  1
  S  S28  1  0.16619034  0.48588301  0.45538687  1
  S  S29  1  0.81506613  0.49740552  0.54527274  1
  S  S30  1  0.42966168  0.47442233  0.79284461  1
  S  S31  1  0.56041736  0.51111492  0.19113681  1
  S  S32  1  0.92146120  0.50317869  0.99885321  1
  S  S33  1  0.08296655  0.47195388  0.03109360  1
  S  S34  1  0.68097870  0.57263489  0.91390797  1
  S  S35  1  0.33348755  0.44777471  0.10804621  1
  S  S36  1  0.60620899  0.99833900  0.67069331  1
  S  S37  1  0.40707345  0.05212887  0.34796719  1
  S  S38  1  0.24650594  0.54197639  0.32803120  1
  S  S39  1  0.77057149  0.47824858  0.69612418  1
  S  S40  1  0.66632972  0.98765603  0.44524468  1
  S  S41  1  0.33571700  0.91804652  0.55191466  1
