# generated using pymatgen
data_Pr2Mn3(SbS3)4
_symmetry_space_group_name_H-M   'P 1'
_cell_length_a   20.02960800
_cell_length_b   3.90410600
_cell_length_c   14.95364829
_cell_angle_alpha   90.00000000
_cell_angle_beta   126.33350609
_cell_angle_gamma   90.00000000
_symmetry_Int_Tables_number   1
_chemical_formula_structural   Pr2Mn3(SbS3)4
_chemical_formula_sum   'Pr4 Mn6 Sb8 S24'
_cell_volume   942.00006694
_cell_formula_units_Z   2
loop_
 _symmetry_equiv_pos_site_id
 _symmetry_equiv_pos_as_xyz
  1  'x, y, z'
loop_
 _atom_site_type_symbol
 _atom_site_label
 _atom_site_symmetry_multiplicity
 _atom_site_fract_x
 _atom_site_fract_y
 _atom_site_fract_z
 _atom_site_occupancy
  Pr  Pr0  1  0.27384292  0.47340387  0.87719806  1
  Pr  Pr1  1  0.73478746  0.51142982  0.14103415  1
  Pr  Pr2  1  0.76669827  0.07503251  0.88138422  1
  Pr  Pr3  1  0.23514622  0.90414460  0.12378412  1
  Mn  Mn4  1  0.29707638  0.39637432  0.60130453  1
  Mn  Mn5  1  0.68850835  0.48406471  0.35440683  1
  Mn  Mn6  1  0.00907925  0.97638929  0.02490595  1
  Mn  Mn7  1  0.79406737  0.97898378  0.63463226  1
  Mn  Mn8  1  0.21296388  0.04994144  0.39784720  1
  Mn  Mn9  1  0.47846586  0.49102597  0.97207664  1
  Sb  Sb10  1  0.88098832  0.87054439  0.45489575  1
  Sb  Sb11  1  0.11188620  0.97116165  0.54131100  1
  Sb  Sb12  1  0.03429652  0.50102756  0.82471721  1
  Sb  Sb13  1  0.96499525  0.46353417  0.20088189  1
  Sb  Sb14  1  0.41332697  0.57063515  0.46220582  1
  Sb  Sb15  1  0.59962513  0.57545662  0.53244728  1
  Sb  Sb16  1  0.53507652  0.93720064  0.80489156  1
  Sb  Sb17  1  0.46783508  0.97062819  0.18145331  1
  S  S18  1  0.93098177  0.98049838  0.80307269  1
  S  S19  1  0.06326648  0.02506440  0.20524815  1
  S  S20  1  0.41110669  0.99122587  0.97824594  1
  S  S21  1  0.57017938  0.00166134  0.00125403  1
  S  S22  1  0.16337097  0.94830806  0.88375473  1
  S  S23  1  0.83253817  0.05390696  0.11316654  1
  S  S24  1  0.09888838  0.47183294  0.64154397  1
  S  S25  1  0.89697600  0.44633813  0.35065859  1
  S  S26  1  0.72780991  0.97894977  0.30728149  1
  S  S27  1  0.26510396  0.93941203  0.68238115  1
  S  S28  1  0.16603490  0.48629573  0.45536039  1
  S  S29  1  0.81470486  0.49664046  0.54507087  1
  S  S30  1  0.42968203  0.47380619  0.79295972  1
  S  S31  1  0.56038395  0.51033513  0.19125883  1
  S  S32  1  0.92143704  0.50344584  0.99883218  1
  S  S33  1  0.08271279  0.47190661  0.03047353  1
  S  S34  1  0.68137035  0.57258559  0.91367718  1
  S  S35  1  0.33363381  0.44785429  0.10806389  1
  S  S36  1  0.60614585  0.99830171  0.67069863  1
  S  S37  1  0.40675538  0.05221772  0.34761025  1
  S  S38  1  0.24676019  0.54209413  0.32817507  1
  S  S39  1  0.77076145  0.47858016  0.69680897  1
  S  S40  1  0.66657437  0.98854832  0.44527838  1
  S  S41  1  0.33572817  0.91875480  0.55160168  1
