# generated using pymatgen
data_Pr2Mn3(SbS3)4
_symmetry_space_group_name_H-M   'P 1'
_cell_length_a   20.02960800
_cell_length_b   3.90410600
_cell_length_c   14.95364829
_cell_angle_alpha   90.00000000
_cell_angle_beta   126.33350609
_cell_angle_gamma   90.00000000
_symmetry_Int_Tables_number   1
_chemical_formula_structural   Pr2Mn3(SbS3)4
_chemical_formula_sum   'Pr4 Mn6 Sb8 S24'
_cell_volume   942.00006694
_cell_formula_units_Z   2
loop_
 _symmetry_equiv_pos_site_id
 _symmetry_equiv_pos_as_xyz
  1  'x, y, z'
loop_
 _atom_site_type_symbol
 _atom_site_label
 _atom_site_symmetry_multiplicity
 _atom_site_fract_x
 _atom_site_fract_y
 _atom_site_fract_z
 _atom_site_occupancy
  Pr  Pr0  1  0.27386862  0.47360910  0.87715198  1
  Pr  Pr1  1  0.73469609  0.51153443  0.14105467  1
  Pr  Pr2  1  0.76663726  0.07513655  0.88132309  1
  Pr  Pr3  1  0.23518663  0.90417567  0.12380112  1
  Mn  Mn4  1  0.29720411  0.39704591  0.60119103  1
  Mn  Mn5  1  0.68859651  0.48441762  0.35434887  1
  Mn  Mn6  1  0.00910174  0.97660408  0.02484179  1
  Mn  Mn7  1  0.79389785  0.97808277  0.63465498  1
  Mn  Mn8  1  0.21308527  0.05041769  0.39787946  1
  Mn  Mn9  1  0.47833973  0.49022688  0.97195748  1
  Sb  Sb10  1  0.88101541  0.87001893  0.45496943  1
  Sb  Sb11  1  0.11197922  0.97077876  0.54131367  1
  Sb  Sb12  1  0.03431175  0.50084594  0.82466785  1
  Sb  Sb13  1  0.96492950  0.46331793  0.20080811  1
  Sb  Sb14  1  0.41324853  0.57050809  0.46207955  1
  Sb  Sb15  1  0.59973656  0.57489788  0.53266867  1
  Sb  Sb16  1  0.53501200  0.93747368  0.80485535  1
  Sb  Sb17  1  0.46775513  0.97112058  0.18125756  1
  S  S18  1  0.93109098  0.98052676  0.80323910  1
  S  S19  1  0.06334277  0.02597385  0.20507153  1
  S  S20  1  0.41123038  0.99206157  0.97831918  1
  S  S21  1  0.57022096  0.00198871  0.00125904  1
  S  S22  1  0.16348529  0.94906465  0.88364842  1
  S  S23  1  0.83272273  0.05270430  0.11303472  1
  S  S24  1  0.09881060  0.47228495  0.64107787  1
  S  S25  1  0.89704141  0.44715992  0.35057550  1
  S  S26  1  0.72774769  0.97880667  0.30714691  1
  S  S27  1  0.26514703  0.93866743  0.68255872  1
  S  S28  1  0.16580583  0.48663131  0.45526071  1
  S  S29  1  0.81438641  0.49627357  0.54497681  1
  S  S30  1  0.42977407  0.47322316  0.79313715  1
  S  S31  1  0.56031243  0.50882770  0.19130376  1
  S  S32  1  0.92142488  0.50399518  0.99882207  1
  S  S33  1  0.08250305  0.47209578  0.02997211  1
  S  S34  1  0.68171937  0.57261133  0.91348347  1
  S  S35  1  0.33382457  0.44796869  0.10805444  1
  S  S36  1  0.60598273  0.99841325  0.67073919  1
  S  S37  1  0.40654046  0.05230401  0.34729768  1
  S  S38  1  0.24693610  0.54221777  0.32835573  1
  S  S39  1  0.77094385  0.47863292  0.69763547  1
  S  S40  1  0.66692952  0.98954286  0.44540950  1
  S  S41  1  0.33576017  0.91985661  0.55124333  1
