# generated using pymatgen
data_Pr2Mn3(SbS3)4
_symmetry_space_group_name_H-M   'P 1'
_cell_length_a   20.02960800
_cell_length_b   3.90410600
_cell_length_c   14.95364829
_cell_angle_alpha   90.00000000
_cell_angle_beta   126.33350609
_cell_angle_gamma   90.00000000
_symmetry_Int_Tables_number   1
_chemical_formula_structural   Pr2Mn3(SbS3)4
_chemical_formula_sum   'Pr4 Mn6 Sb8 S24'
_cell_volume   942.00006694
_cell_formula_units_Z   2
loop_
 _symmetry_equiv_pos_site_id
 _symmetry_equiv_pos_as_xyz
  1  'x, y, z'
loop_
 _atom_site_type_symbol
 _atom_site_label
 _atom_site_symmetry_multiplicity
 _atom_site_fract_x
 _atom_site_fract_y
 _atom_site_fract_z
 _atom_site_occupancy
  Pr  Pr0  1  0.27388895  0.47382571  0.87711422  1
  Pr  Pr1  1  0.73457032  0.51133766  0.14104206  1
  Pr  Pr2  1  0.76659331  0.07539702  0.88131595  1
  Pr  Pr3  1  0.23520862  0.90415502  0.12380705  1
  Mn  Mn4  1  0.29740758  0.39788629  0.60117509  1
  Mn  Mn5  1  0.68864707  0.48500778  0.35417365  1
  Mn  Mn6  1  0.00891979  0.97661595  0.02468162  1
  Mn  Mn7  1  0.79385910  0.97745266  0.63475662  1
  Mn  Mn8  1  0.21318468  0.05071384  0.39801267  1
  Mn  Mn9  1  0.47812226  0.48933883  0.97184844  1
  Sb  Sb10  1  0.88098907  0.86929697  0.45506283  1
  Sb  Sb11  1  0.11204642  0.97019545  0.54130424  1
  Sb  Sb12  1  0.03431711  0.50071936  0.82455505  1
  Sb  Sb13  1  0.96482627  0.46312499  0.20069320  1
  Sb  Sb14  1  0.41316016  0.57032741  0.46195205  1
  Sb  Sb15  1  0.59980580  0.57431663  0.53288133  1
  Sb  Sb16  1  0.53489254  0.93780698  0.80478998  1
  Sb  Sb17  1  0.46764733  0.97143217  0.18114071  1
  S  S18  1  0.93126677  0.98094870  0.80345163  1
  S  S19  1  0.06340170  0.02693217  0.20488811  1
  S  S20  1  0.41132511  0.99247748  0.97841256  1
  S  S21  1  0.57025175  0.00217982  0.00123876  1
  S  S22  1  0.16356016  0.94982907  0.88360689  1
  S  S23  1  0.83304760  0.05190905  0.11300302  1
  S  S24  1  0.09869383  0.47277123  0.64065595  1
  S  S25  1  0.89703220  0.44751553  0.35040423  1
  S  S26  1  0.72765650  0.97862834  0.30684737  1
  S  S27  1  0.26531620  0.93780494  0.68289697  1
  S  S28  1  0.16559879  0.48725694  0.45520218  1
  S  S29  1  0.81398796  0.49587101  0.54484165  1
  S  S30  1  0.42986752  0.47261599  0.79334594  1
  S  S31  1  0.56023026  0.50736389  0.19135321  1
  S  S32  1  0.92139747  0.50484434  0.99883057  1
  S  S33  1  0.08235645  0.47238901  0.02963147  1
  S  S34  1  0.68199400  0.57249880  0.91326551  1
  S  S35  1  0.33404185  0.44846062  0.10808680  1
  S  S36  1  0.60598457  0.99852755  0.67083889  1
  S  S37  1  0.40624709  0.05260413  0.34694802  1
  S  S38  1  0.24717879  0.54270498  0.32859853  1
  S  S39  1  0.77111526  0.47839585  0.69855766  1
  S  S40  1  0.66722282  0.99036326  0.44548047  1
  S  S41  1  0.33574756  0.92109539  0.55091382  1
