# generated using pymatgen
data_Pr2Mn3(SbS3)4
_symmetry_space_group_name_H-M   'P 1'
_cell_length_a   20.02960800
_cell_length_b   3.90410600
_cell_length_c   14.95364829
_cell_angle_alpha   90.00000000
_cell_angle_beta   126.33350609
_cell_angle_gamma   90.00000000
_symmetry_Int_Tables_number   1
_chemical_formula_structural   Pr2Mn3(SbS3)4
_chemical_formula_sum   'Pr4 Mn6 Sb8 S24'
_cell_volume   942.00006694
_cell_formula_units_Z   2
loop_
 _symmetry_equiv_pos_site_id
 _symmetry_equiv_pos_as_xyz
  1  'x, y, z'
loop_
 _atom_site_type_symbol
 _atom_site_label
 _atom_site_symmetry_multiplicity
 _atom_site_fract_x
 _atom_site_fract_y
 _atom_site_fract_z
 _atom_site_occupancy
  Pr  Pr0  1  0.27391172  0.47395134  0.87709511  1
  Pr  Pr1  1  0.73447548  0.51104456  0.14109898  1
  Pr  Pr2  1  0.76656659  0.07565752  0.88137075  1
  Pr  Pr3  1  0.23521361  0.90412053  0.12374293  1
  Mn  Mn4  1  0.29759425  0.39880374  0.60113832  1
  Mn  Mn5  1  0.68871774  0.48585005  0.35411707  1
  Mn  Mn6  1  0.00876101  0.97620268  0.02459491  1
  Mn  Mn7  1  0.79383954  0.97685847  0.63487728  1
  Mn  Mn8  1  0.21332491  0.05065012  0.39810130  1
  Mn  Mn9  1  0.47796911  0.48841961  0.97188433  1
  Sb  Sb10  1  0.88100284  0.86821753  0.45520053  1
  Sb  Sb11  1  0.11211415  0.96959310  0.54126485  1
  Sb  Sb12  1  0.03428493  0.50058339  0.82443907  1
  Sb  Sb13  1  0.96476011  0.46290025  0.20066481  1
  Sb  Sb14  1  0.41308885  0.57022835  0.46180511  1
  Sb  Sb15  1  0.59988894  0.57373552  0.53312132  1
  Sb  Sb16  1  0.53475512  0.93814694  0.80472670  1
  Sb  Sb17  1  0.46758550  0.97168719  0.18106482  1
  S  S18  1  0.93139150  0.98182234  0.80370984  1
  S  S19  1  0.06338048  0.02785232  0.20455547  1
  S  S20  1  0.41139817  0.99296212  0.97844437  1
  S  S21  1  0.57029498  0.00224166  0.00122747  1
  S  S22  1  0.16375193  0.95075665  0.88362961  1
  S  S23  1  0.83338287  0.05114502  0.11299211  1
  S  S24  1  0.09858276  0.47329916  0.64031563  1
  S  S25  1  0.89702070  0.44811287  0.35018689  1
  S  S26  1  0.72752537  0.97878813  0.30655477  1
  S  S27  1  0.26562759  0.93740125  0.68324989  1
  S  S28  1  0.16544790  0.48808331  0.45513449  1
  S  S29  1  0.81365678  0.49542041  0.54475198  1
  S  S30  1  0.43002956  0.47209689  0.79368721  1
  S  S31  1  0.56009582  0.50570344  0.19143074  1
  S  S32  1  0.92144338  0.50557312  0.99883297  1
  S  S33  1  0.08216547  0.47291503  0.02936512  1
  S  S34  1  0.68237867  0.57236823  0.91304888  1
  S  S35  1  0.33426833  0.44893349  0.10825943  1
  S  S36  1  0.60605938  0.99840423  0.67097470  1
  S  S37  1  0.40578364  0.05267084  0.34652179  1
  S  S38  1  0.24733580  0.54324036  0.32867983  1
  S  S39  1  0.77123802  0.47822851  0.69933296  1
  S  S40  1  0.66751950  0.99126673  0.44541716  1
  S  S41  1  0.33573621  0.92174288  0.55063865  1
