# generated using pymatgen
data_Pr2Mn3(SbS3)4
_symmetry_space_group_name_H-M   'P 1'
_cell_length_a   20.02960800
_cell_length_b   3.90410600
_cell_length_c   14.95364829
_cell_angle_alpha   90.00000000
_cell_angle_beta   126.33350609
_cell_angle_gamma   90.00000000
_symmetry_Int_Tables_number   1
_chemical_formula_structural   Pr2Mn3(SbS3)4
_chemical_formula_sum   'Pr4 Mn6 Sb8 S24'
_cell_volume   942.00006694
_cell_formula_units_Z   2
loop_
 _symmetry_equiv_pos_site_id
 _symmetry_equiv_pos_as_xyz
  1  'x, y, z'
loop_
 _atom_site_type_symbol
 _atom_site_label
 _atom_site_symmetry_multiplicity
 _atom_site_fract_x
 _atom_site_fract_y
 _atom_site_fract_z
 _atom_site_occupancy
  Pr  Pr0  1  0.27397993  0.47413458  0.87708151  1
  Pr  Pr1  1  0.73440684  0.51074063  0.14119853  1
  Pr  Pr2  1  0.76648802  0.07594736  0.88136442  1
  Pr  Pr3  1  0.23515368  0.90433321  0.12362915  1
  Mn  Mn4  1  0.29780132  0.39978582  0.60113769  1
  Mn  Mn5  1  0.68877954  0.48657045  0.35419292  1
  Mn  Mn6  1  0.00866842  0.97589638  0.02453734  1
  Mn  Mn7  1  0.79381545  0.97614102  0.63499593  1
  Mn  Mn8  1  0.21345393  0.05073053  0.39816109  1
  Mn  Mn9  1  0.47781005  0.48754801  0.97195767  1
  Sb  Sb10  1  0.88100417  0.86740142  0.45529323  1
  Sb  Sb11  1  0.11220096  0.96901923  0.54124949  1
  Sb  Sb12  1  0.03423529  0.50063387  0.82429711  1
  Sb  Sb13  1  0.96472266  0.46262524  0.20067569  1
  Sb  Sb14  1  0.41305661  0.57007007  0.46171153  1
  Sb  Sb15  1  0.59995846  0.57340658  0.53329723  1
  Sb  Sb16  1  0.53465757  0.93841234  0.80473233  1
  Sb  Sb17  1  0.46753476  0.97191222  0.18100572  1
  S  S18  1  0.93164880  0.98226211  0.80406314  1
  S  S19  1  0.06331994  0.02861761  0.20429750  1
  S  S20  1  0.41164447  0.99349402  0.97862220  1
  S  S21  1  0.57038800  0.00266416  0.00136067  1
  S  S22  1  0.16383632  0.95140999  0.88358752  1
  S  S23  1  0.83350001  0.05044671  0.11285230  1
  S  S24  1  0.09858632  0.47414026  0.64011975  1
  S  S25  1  0.89701265  0.44852835  0.35001713  1
  S  S26  1  0.72723146  0.97847707  0.30621787  1
  S  S27  1  0.26587199  0.93699176  0.68363636  1
  S  S28  1  0.16526032  0.48900157  0.45487450  1
  S  S29  1  0.81333498  0.49493852  0.54466269  1
  S  S30  1  0.43020461  0.47114994  0.79402331  1
  S  S31  1  0.56006465  0.50396758  0.19153872  1
  S  S32  1  0.92142354  0.50657727  0.99877481  1
  S  S33  1  0.08202699  0.47389606  0.02905875  1
  S  S34  1  0.68282901  0.57198396  0.91292867  1
  S  S35  1  0.33451627  0.44944883  0.10853653  1
  S  S36  1  0.60618891  0.99830859  0.67105782  1
  S  S37  1  0.40537996  0.05236220  0.34593490  1
  S  S38  1  0.24754322  0.54374162  0.32889616  1
  S  S39  1  0.77130443  0.47794838  0.70005623  1
  S  S40  1  0.66780357  0.99211679  0.44527318  1
  S  S41  1  0.33571699  0.92219258  0.55041556  1
