# generated using pymatgen
data_Pr2Mn3(SbS3)4
_symmetry_space_group_name_H-M   'P 1'
_cell_length_a   20.02960800
_cell_length_b   3.90410600
_cell_length_c   14.95364829
_cell_angle_alpha   90.00000000
_cell_angle_beta   126.33350609
_cell_angle_gamma   90.00000000
_symmetry_Int_Tables_number   1
_chemical_formula_structural   Pr2Mn3(SbS3)4
_chemical_formula_sum   'Pr4 Mn6 Sb8 S24'
_cell_volume   942.00006694
_cell_formula_units_Z   2
loop_
 _symmetry_equiv_pos_site_id
 _symmetry_equiv_pos_as_xyz
  1  'x, y, z'
loop_
 _atom_site_type_symbol
 _atom_site_label
 _atom_site_symmetry_multiplicity
 _atom_site_fract_x
 _atom_site_fract_y
 _atom_site_fract_z
 _atom_site_occupancy
  Pr  Pr0  1  0.27403912  0.47427019  0.87708263  1
  Pr  Pr1  1  0.73436242  0.51057204  0.14126170  1
  Pr  Pr2  1  0.76641414  0.07630923  0.88137939  1
  Pr  Pr3  1  0.23503899  0.90442903  0.12343641  1
  Mn  Mn4  1  0.29791488  0.40092838  0.60107434  1
  Mn  Mn5  1  0.68882641  0.48702002  0.35430490  1
  Mn  Mn6  1  0.00850473  0.97536626  0.02443808  1
  Mn  Mn7  1  0.79366154  0.97524414  0.63508930  1
  Mn  Mn8  1  0.21358481  0.05129780  0.39830281  1
  Mn  Mn9  1  0.47767401  0.48667587  0.97208395  1
  Sb  Sb10  1  0.88104029  0.86679884  0.45542996  1
  Sb  Sb11  1  0.11225938  0.96823792  0.54124896  1
  Sb  Sb12  1  0.03418112  0.50020010  0.82418271  1
  Sb  Sb13  1  0.96464264  0.46230138  0.20068547  1
  Sb  Sb14  1  0.41304692  0.56998778  0.46163805  1
  Sb  Sb15  1  0.59999257  0.57315892  0.53344480  1
  Sb  Sb16  1  0.53453742  0.93857040  0.80468170  1
  Sb  Sb17  1  0.46744952  0.97204171  0.18087796  1
  S  S18  1  0.93199872  0.98262668  0.80449891  1
  S  S19  1  0.06337735  0.02912185  0.20425046  1
  S  S20  1  0.41185391  0.99387843  0.97865869  1
  S  S21  1  0.57049420  0.00336469  0.00158399  1
  S  S22  1  0.16377762  0.95226269  0.88342309  1
  S  S23  1  0.83378889  0.04940730  0.11293729  1
  S  S24  1  0.09857186  0.47476819  0.63990867  1
  S  S25  1  0.89705741  0.44911044  0.34990569  1
  S  S26  1  0.72702585  0.97869300  0.30590049  1
  S  S27  1  0.26598284  0.93655408  0.68380555  1
  S  S28  1  0.16507603  0.48926646  0.45445612  1
  S  S29  1  0.81306748  0.49448238  0.54460795  1
  S  S30  1  0.43032241  0.47068063  0.79421962  1
  S  S31  1  0.55995630  0.50245691  0.19165994  1
  S  S32  1  0.92138494  0.50736805  0.99874035  1
  S  S33  1  0.08178443  0.47507235  0.02863196  1
  S  S34  1  0.68319139  0.57144904  0.91290606  1
  S  S35  1  0.33460814  0.45016774  0.10863901  1
  S  S36  1  0.60623997  0.99785704  0.67097538  1
  S  S37  1  0.40495710  0.05208370  0.34545239  1
  S  S38  1  0.24763188  0.54379794  0.32903772  1
  S  S39  1  0.77124975  0.47736951  0.70062253  1
  S  S40  1  0.66802229  0.99305096  0.44498689  1
  S  S41  1  0.33566119  0.92250351  0.55012558  1
