# generated using pymatgen
data_Pr2Mn3(SbS3)4
_symmetry_space_group_name_H-M   'P 1'
_cell_length_a   20.02960800
_cell_length_b   3.90410600
_cell_length_c   14.95364829
_cell_angle_alpha   90.00000000
_cell_angle_beta   126.33350609
_cell_angle_gamma   90.00000000
_symmetry_Int_Tables_number   1
_chemical_formula_structural   Pr2Mn3(SbS3)4
_chemical_formula_sum   'Pr4 Mn6 Sb8 S24'
_cell_volume   942.00006694
_cell_formula_units_Z   2
loop_
 _symmetry_equiv_pos_site_id
 _symmetry_equiv_pos_as_xyz
  1  'x, y, z'
loop_
 _atom_site_type_symbol
 _atom_site_label
 _atom_site_symmetry_multiplicity
 _atom_site_fract_x
 _atom_site_fract_y
 _atom_site_fract_z
 _atom_site_occupancy
  Pr  Pr0  1  0.27410972  0.47402882  0.87710067  1
  Pr  Pr1  1  0.73437673  0.51023011  0.14139810  1
  Pr  Pr2  1  0.76635147  0.07686363  0.88137797  1
  Pr  Pr3  1  0.23489600  0.90450680  0.12323349  1
  Mn  Mn4  1  0.29799435  0.40167016  0.60096103  1
  Mn  Mn5  1  0.68892765  0.48744057  0.35450208  1
  Mn  Mn6  1  0.00834783  0.97508107  0.02440118  1
  Mn  Mn7  1  0.79354504  0.97438024  0.63524220  1
  Mn  Mn8  1  0.21369889  0.05165163  0.39837990  1
  Mn  Mn9  1  0.47759617  0.48586198  0.97220433  1
  Sb  Sb10  1  0.88103442  0.86621933  0.45551121  1
  Sb  Sb11  1  0.11233994  0.96767407  0.54126782  1
  Sb  Sb12  1  0.03412562  0.49991835  0.82404710  1
  Sb  Sb13  1  0.96458004  0.46210615  0.20072310  1
  Sb  Sb14  1  0.41297229  0.57000712  0.46148506  1
  Sb  Sb15  1  0.60006822  0.57282755  0.53363472  1
  Sb  Sb16  1  0.53442051  0.93849678  0.80455261  1
  Sb  Sb17  1  0.46730194  0.97203048  0.18065453  1
  S  S18  1  0.93250459  0.98296190  0.80513544  1
  S  S19  1  0.06349356  0.02968410  0.20429453  1
  S  S20  1  0.41201827  0.99396377  0.97861144  1
  S  S21  1  0.57049912  0.00420339  0.00178713  1
  S  S22  1  0.16375164  0.95338786  0.88316271  1
  S  S23  1  0.83396046  0.04830052  0.11297769  1
  S  S24  1  0.09850434  0.47524570  0.63973551  1
  S  S25  1  0.89706452  0.44971561  0.34984600  1
  S  S26  1  0.72691022  0.97904149  0.30566601  1
  S  S27  1  0.26613612  0.93616621  0.68410289  1
  S  S28  1  0.16491662  0.48961190  0.45408226  1
  S  S29  1  0.81298402  0.49396702  0.54468716  1
  S  S30  1  0.43040504  0.47043788  0.79442604  1
  S  S31  1  0.55982304  0.50102022  0.19179457  1
  S  S32  1  0.92144725  0.50815419  0.99876000  1
  S  S33  1  0.08162619  0.47580004  0.02831773  1
  S  S34  1  0.68350650  0.57109640  0.91291252  1
  S  S35  1  0.33453845  0.45076698  0.10865037  1
  S  S36  1  0.60641513  0.99753545  0.67084730  1
  S  S37  1  0.40456433  0.05134874  0.34507198  1
  S  S38  1  0.24774760  0.54348849  0.32923397  1
  S  S39  1  0.77121217  0.47758023  0.70100895  1
  S  S40  1  0.66815997  0.99402461  0.44469086  1
  S  S41  1  0.33562918  0.92244753  0.54985703  1
