# generated using pymatgen
data_Pr2Mn3(SbS3)4
_symmetry_space_group_name_H-M   'P 1'
_cell_length_a   20.02960800
_cell_length_b   3.90410600
_cell_length_c   14.95364829
_cell_angle_alpha   90.00000000
_cell_angle_beta   126.33350609
_cell_angle_gamma   90.00000000
_symmetry_Int_Tables_number   1
_chemical_formula_structural   Pr2Mn3(SbS3)4
_chemical_formula_sum   'Pr4 Mn6 Sb8 S24'
_cell_volume   942.00006694
_cell_formula_units_Z   2
loop_
 _symmetry_equiv_pos_site_id
 _symmetry_equiv_pos_as_xyz
  1  'x, y, z'
loop_
 _atom_site_type_symbol
 _atom_site_label
 _atom_site_symmetry_multiplicity
 _atom_site_fract_x
 _atom_site_fract_y
 _atom_site_fract_z
 _atom_site_occupancy
  Pr  Pr0  1  0.26437650  0.47043511  0.86815482  1
  Pr  Pr1  1  0.73725411  0.52438221  0.13781593  1
  Pr  Pr2  1  0.76432045  0.01134160  0.86455829  1
  Pr  Pr3  1  0.23709375  0.00600905  0.13821587  1
  Mn  Mn4  1  0.29284570  0.48463794  0.60167165  1
  Mn  Mn5  1  0.69339987  0.51948373  0.38055156  1
  Mn  Mn6  1  0.00809562  0.99546915  0.01066322  1
  Mn  Mn7  1  0.80371479  0.00883856  0.61399756  1
  Mn  Mn8  1  0.19561097  0.97476611  0.37684394  1
  Mn  Mn9  1  0.49823319  0.45238125  0.98927136  1
  Sb  Sb10  1  0.89025584  0.99308041  0.45232327  1
  Sb  Sb11  1  0.11151433  0.96824274  0.55026971  1
  Sb  Sb12  1  0.03903615  0.51755412  0.81765701  1
  Sb  Sb13  1  0.96365785  0.51086435  0.18603205  1
  Sb  Sb14  1  0.39622336  0.50937624  0.45568044  1
  Sb  Sb15  1  0.60642830  0.48245378  0.54708588  1
  Sb  Sb16  1  0.53487571  0.01014220  0.81201085  1
  Sb  Sb17  1  0.46162289  0.01426098  0.18266728  1
  S  S18  1  0.93475391  0.98928833  0.80473259  1
  S  S19  1  0.06585657  0.97543866  0.18497330  1
  S  S20  1  0.41079457  0.00790810  0.97935341  1
  S  S21  1  0.59074997  0.99522768  0.02239973  1
  S  S22  1  0.17147693  0.99347252  0.89577739  1
  S  S23  1  0.82543534  0.01827212  0.09489413  1
  S  S24  1  0.08733584  0.48216652  0.64362900  1
  S  S25  1  0.90828175  0.46999352  0.35387181  1
  S  S26  1  0.73974054  0.96070445  0.29729539  1
  S  S27  1  0.25878095  0.99925710  0.70594102  1
  S  S28  1  0.17066419  0.47984431  0.44224691  1
  S  S29  1  0.82875129  0.48747375  0.54909867  1
  S  S30  1  0.43340164  0.50150180  0.79538157  1
  S  S31  1  0.56105973  0.51077913  0.18113582  1
  S  S32  1  0.91561808  0.50459654  0.99501566  1
  S  S33  1  0.08179068  0.49298908  0.01276625  1
  S  S34  1  0.66654228  0.48572801  0.88846336  1
  S  S35  1  0.32656888  0.50949967  0.09136432  1
  S  S36  1  0.59626011  0.99662137  0.66115427  1
  S  S37  1  0.40704018  0.97493394  0.34765582  1
  S  S38  1  0.24707506  0.44616578  0.31452763  1
  S  S39  1  0.76303046  0.50513354  0.70201935  1
  S  S40  1  0.67620309  0.02620190  0.45977273  1
  S  S41  1  0.32557656  0.97379991  0.54525892  1
