# generated using pymatgen
data_Pr2Mn3(SbS3)4
_symmetry_space_group_name_H-M   'P 1'
_cell_length_a   20.02960800
_cell_length_b   3.90410600
_cell_length_c   14.95364829
_cell_angle_alpha   90.00000000
_cell_angle_beta   126.33350609
_cell_angle_gamma   90.00000000
_symmetry_Int_Tables_number   1
_chemical_formula_structural   Pr2Mn3(SbS3)4
_chemical_formula_sum   'Pr4 Mn6 Sb8 S24'
_cell_volume   942.00006694
_cell_formula_units_Z   2
loop_
 _symmetry_equiv_pos_site_id
 _symmetry_equiv_pos_as_xyz
  1  'x, y, z'
loop_
 _atom_site_type_symbol
 _atom_site_label
 _atom_site_symmetry_multiplicity
 _atom_site_fract_x
 _atom_site_fract_y
 _atom_site_fract_z
 _atom_site_occupancy
  Pr  Pr0  1  0.27411640  0.47387509  0.87704370  1
  Pr  Pr1  1  0.73439172  0.51019851  0.14153863  1
  Pr  Pr2  1  0.76629284  0.07719856  0.88127464  1
  Pr  Pr3  1  0.23478179  0.90430949  0.12297220  1
  Mn  Mn4  1  0.29807280  0.40289132  0.60089063  1
  Mn  Mn5  1  0.68904334  0.48766184  0.35476833  1
  Mn  Mn6  1  0.00814044  0.97452987  0.02432395  1
  Mn  Mn7  1  0.79350142  0.97348860  0.63547135  1
  Mn  Mn8  1  0.21379150  0.05220001  0.39843464  1
  Mn  Mn9  1  0.47754343  0.48512453  0.97221213  1
  Sb  Sb10  1  0.88100871  0.86558966  0.45553462  1
  Sb  Sb11  1  0.11241644  0.96697061  0.54132930  1
  Sb  Sb12  1  0.03399454  0.49977422  0.82381041  1
  Sb  Sb13  1  0.96455651  0.46171832  0.20084410  1
  Sb  Sb14  1  0.41287638  0.56991664  0.46138093  1
  Sb  Sb15  1  0.60017059  0.57270321  0.53383467  1
  Sb  Sb16  1  0.53435096  0.93837170  0.80449937  1
  Sb  Sb17  1  0.46720153  0.97182107  0.18049601  1
  S  S18  1  0.93303408  0.98260305  0.80581733  1
  S  S19  1  0.06353263  0.03035765  0.20428721  1
  S  S20  1  0.41219907  0.99355913  0.97856488  1
  S  S21  1  0.57059515  0.00459797  0.00205554  1
  S  S22  1  0.16390568  0.95390638  0.88299148  1
  S  S23  1  0.83408119  0.04697481  0.11292045  1
  S  S24  1  0.09849052  0.47579205  0.63960991  1
  S  S25  1  0.89681130  0.44988150  0.34965591  1
  S  S26  1  0.72682691  0.97997101  0.30537247  1
  S  S27  1  0.26620508  0.93584356  0.68417316  1
  S  S28  1  0.16477094  0.48953381  0.45360632  1
  S  S29  1  0.81280041  0.49339973  0.54468870  1
  S  S30  1  0.43042621  0.47086752  0.79454539  1
  S  S31  1  0.55965595  0.49959088  0.19182982  1
  S  S32  1  0.92134890  0.50878004  0.99857781  1
  S  S33  1  0.08152586  0.47646826  0.02794059  1
  S  S34  1  0.68376080  0.57047640  0.91300978  1
  S  S35  1  0.33446316  0.45072210  0.10861690  1
  S  S36  1  0.60666429  0.99714820  0.67065819  1
  S  S37  1  0.40428951  0.05040435  0.34478349  1
  S  S38  1  0.24789514  0.54334702  0.32952644  1
  S  S39  1  0.77120442  0.47815914  0.70143229  1
  S  S40  1  0.66831658  0.99480271  0.44453322  1
  S  S41  1  0.33548335  0.92241534  0.54952281  1
