# generated using pymatgen
data_Pr2Mn3(SbS3)4
_symmetry_space_group_name_H-M   'P 1'
_cell_length_a   20.02960800
_cell_length_b   3.90410600
_cell_length_c   14.95364829
_cell_angle_alpha   90.00000000
_cell_angle_beta   126.33350609
_cell_angle_gamma   90.00000000
_symmetry_Int_Tables_number   1
_chemical_formula_structural   Pr2Mn3(SbS3)4
_chemical_formula_sum   'Pr4 Mn6 Sb8 S24'
_cell_volume   942.00006694
_cell_formula_units_Z   2
loop_
 _symmetry_equiv_pos_site_id
 _symmetry_equiv_pos_as_xyz
  1  'x, y, z'
loop_
 _atom_site_type_symbol
 _atom_site_label
 _atom_site_symmetry_multiplicity
 _atom_site_fract_x
 _atom_site_fract_y
 _atom_site_fract_z
 _atom_site_occupancy
  Pr  Pr0  1  0.27410919  0.47373992  0.87690568  1
  Pr  Pr1  1  0.73441890  0.51017709  0.14168226  1
  Pr  Pr2  1  0.76621839  0.07733704  0.88117983  1
  Pr  Pr3  1  0.23465655  0.90397859  0.12274109  1
  Mn  Mn4  1  0.29820839  0.40377744  0.60086928  1
  Mn  Mn5  1  0.68911221  0.48791591  0.35489876  1
  Mn  Mn6  1  0.00797485  0.97395692  0.02431416  1
  Mn  Mn7  1  0.79350143  0.97275882  0.63575435  1
  Mn  Mn8  1  0.21394846  0.05233886  0.39862147  1
  Mn  Mn9  1  0.47745146  0.48449815  0.97213152  1
  Sb  Sb10  1  0.88103984  0.86474249  0.45559033  1
  Sb  Sb11  1  0.11244566  0.96627789  0.54134510  1
  Sb  Sb12  1  0.03386529  0.49988476  0.82358180  1
  Sb  Sb13  1  0.96461851  0.46147388  0.20107078  1
  Sb  Sb14  1  0.41276108  0.56960274  0.46126150  1
  Sb  Sb15  1  0.60026557  0.57273469  0.53403035  1
  Sb  Sb16  1  0.53428051  0.93805214  0.80453301  1
  Sb  Sb17  1  0.46709829  0.97160119  0.18031590  1
  S  S18  1  0.93339210  0.98234394  0.80646235  1
  S  S19  1  0.06361168  0.03048031  0.20432306  1
  S  S20  1  0.41220224  0.99324797  0.97823872  1
  S  S21  1  0.57073947  0.00526878  0.00231762  1
  S  S22  1  0.16410409  0.95458951  0.88294909  1
  S  S23  1  0.83419646  0.04608896  0.11286635  1
  S  S24  1  0.09863865  0.47638446  0.63968152  1
  S  S25  1  0.89663228  0.44980882  0.34956252  1
  S  S26  1  0.72681747  0.98077615  0.30514514  1
  S  S27  1  0.26618769  0.93510546  0.68420248  1
  S  S28  1  0.16469527  0.48887226  0.45327185  1
  S  S29  1  0.81267792  0.49322074  0.54471467  1
  S  S30  1  0.43044144  0.47117135  0.79464965  1
  S  S31  1  0.55952062  0.49847289  0.19191404  1
  S  S32  1  0.92125377  0.50906921  0.99833496  1
  S  S33  1  0.08158846  0.47696945  0.02765810  1
  S  S34  1  0.68383185  0.56982890  0.91288544  1
  S  S35  1  0.33436544  0.45063813  0.10852954  1
  S  S36  1  0.60691801  0.99670587  0.67037976  1
  S  S37  1  0.40402263  0.04970521  0.34447576  1
  S  S38  1  0.24808783  0.54333252  0.32968350  1
  S  S39  1  0.77121929  0.47890113  0.70174813  1
  S  S40  1  0.66841695  0.99522151  0.44423464  1
  S  S41  1  0.33539966  0.92254474  0.54930369  1
