# generated using pymatgen
data_Pr2Mn3(SbS3)4
_symmetry_space_group_name_H-M   'P 1'
_cell_length_a   20.02960800
_cell_length_b   3.90410600
_cell_length_c   14.95364829
_cell_angle_alpha   90.00000000
_cell_angle_beta   126.33350609
_cell_angle_gamma   90.00000000
_symmetry_Int_Tables_number   1
_chemical_formula_structural   Pr2Mn3(SbS3)4
_chemical_formula_sum   'Pr4 Mn6 Sb8 S24'
_cell_volume   942.00006694
_cell_formula_units_Z   2
loop_
 _symmetry_equiv_pos_site_id
 _symmetry_equiv_pos_as_xyz
  1  'x, y, z'
loop_
 _atom_site_type_symbol
 _atom_site_label
 _atom_site_symmetry_multiplicity
 _atom_site_fract_x
 _atom_site_fract_y
 _atom_site_fract_z
 _atom_site_occupancy
  Pr  Pr0  1  0.27406909  0.47389687  0.87671525  1
  Pr  Pr1  1  0.73446255  0.51026915  0.14178154  1
  Pr  Pr2  1  0.76614893  0.07762520  0.88112347  1
  Pr  Pr3  1  0.23449524  0.90386217  0.12257828  1
  Mn  Mn4  1  0.29829302  0.40454087  0.60087462  1
  Mn  Mn5  1  0.68917831  0.48815485  0.35499935  1
  Mn  Mn6  1  0.00781053  0.97356508  0.02420571  1
  Mn  Mn7  1  0.79358802  0.97219067  0.63607850  1
  Mn  Mn8  1  0.21406770  0.05206388  0.39886864  1
  Mn  Mn9  1  0.47733404  0.48387789  0.97207859  1
  Sb  Sb10  1  0.88105093  0.86415442  0.45560170  1
  Sb  Sb11  1  0.11250480  0.96577694  0.54140740  1
  Sb  Sb12  1  0.03374995  0.50009200  0.82340772  1
  Sb  Sb13  1  0.96471810  0.46085165  0.20125758  1
  Sb  Sb14  1  0.41266775  0.56920673  0.46116761  1
  Sb  Sb15  1  0.60034288  0.57275315  0.53423994  1
  Sb  Sb16  1  0.53425866  0.93811426  0.80457836  1
  Sb  Sb17  1  0.46706522  0.97165155  0.18020377  1
  S  S18  1  0.93373629  0.98229358  0.80694253  1
  S  S19  1  0.06379497  0.03056302  0.20429664  1
  S  S20  1  0.41219198  0.99312129  0.97791409  1
  S  S21  1  0.57088976  0.00639820  0.00242184  1
  S  S22  1  0.16430649  0.95517963  0.88311307  1
  S  S23  1  0.83424049  0.04508694  0.11268519  1
  S  S24  1  0.09881810  0.47646696  0.63980037  1
  S  S25  1  0.89653338  0.44945699  0.34955648  1
  S  S26  1  0.72679001  0.98162874  0.30499237  1
  S  S27  1  0.26615894  0.93439680  0.68416223  1
  S  S28  1  0.16464868  0.48774347  0.45293673  1
  S  S29  1  0.81259907  0.49376754  0.54483049  1
  S  S30  1  0.43053749  0.47144047  0.79474423  1
  S  S31  1  0.55954745  0.49736961  0.19218556  1
  S  S32  1  0.92115110  0.50972630  0.99811665  1
  S  S33  1  0.08158870  0.47694251  0.02736133  1
  S  S34  1  0.68390210  0.56913504  0.91261616  1
  S  S35  1  0.33434833  0.45092617  0.10846850  1
  S  S36  1  0.60717299  0.99625742  0.67016397  1
  S  S37  1  0.40375160  0.04911435  0.34413015  1
  S  S38  1  0.24837588  0.54285961  0.32987736  1
  S  S39  1  0.77127021  0.47956130  0.70205504  1
  S  S40  1  0.66858261  0.99610190  0.44402513  1
  S  S41  1  0.33534373  0.92245477  0.54920209  1
