# generated using pymatgen
data_Pr2Mn3(SbS3)4
_symmetry_space_group_name_H-M   'P 1'
_cell_length_a   20.02960800
_cell_length_b   3.90410600
_cell_length_c   14.95364829
_cell_angle_alpha   90.00000000
_cell_angle_beta   126.33350609
_cell_angle_gamma   90.00000000
_symmetry_Int_Tables_number   1
_chemical_formula_structural   Pr2Mn3(SbS3)4
_chemical_formula_sum   'Pr4 Mn6 Sb8 S24'
_cell_volume   942.00006694
_cell_formula_units_Z   2
loop_
 _symmetry_equiv_pos_site_id
 _symmetry_equiv_pos_as_xyz
  1  'x, y, z'
loop_
 _atom_site_type_symbol
 _atom_site_label
 _atom_site_symmetry_multiplicity
 _atom_site_fract_x
 _atom_site_fract_y
 _atom_site_fract_z
 _atom_site_occupancy
  Pr  Pr0  1  0.27402117  0.47388376  0.87655901  1
  Pr  Pr1  1  0.73445139  0.51057923  0.14189707  1
  Pr  Pr2  1  0.76605326  0.07771829  0.88102543  1
  Pr  Pr3  1  0.23438269  0.90375171  0.12246864  1
  Mn  Mn4  1  0.29835836  0.40501917  0.60090363  1
  Mn  Mn5  1  0.68925027  0.48869661  0.35501301  1
  Mn  Mn6  1  0.00758331  0.97334651  0.02400455  1
  Mn  Mn7  1  0.79375993  0.97199485  0.63633899  1
  Mn  Mn8  1  0.21411434  0.05199809  0.39907278  1
  Mn  Mn9  1  0.47727198  0.48313470  0.97207093  1
  Sb  Sb10  1  0.88105755  0.86342235  0.45556138  1
  Sb  Sb11  1  0.11254901  0.96551819  0.54142570  1
  Sb  Sb12  1  0.03359334  0.50007134  0.82316997  1
  Sb  Sb13  1  0.96481445  0.46046683  0.20136403  1
  Sb  Sb14  1  0.41255556  0.56899323  0.46105770  1
  Sb  Sb15  1  0.60033827  0.57312817  0.53439169  1
  Sb  Sb16  1  0.53417762  0.93806437  0.80454925  1
  Sb  Sb17  1  0.46709528  0.97180516  0.18015494  1
  S  S18  1  0.93419149  0.98243686  0.80758416  1
  S  S19  1  0.06412456  0.03017227  0.20433282  1
  S  S20  1  0.41216972  0.99323326  0.97768572  1
  S  S21  1  0.57108221  0.00756127  0.00272385  1
  S  S22  1  0.16448418  0.95514326  0.88331586  1
  S  S23  1  0.83433226  0.04452311  0.11260286  1
  S  S24  1  0.09905639  0.47619233  0.64006243  1
  S  S25  1  0.89636709  0.44883420  0.34946364  1
  S  S26  1  0.72672383  0.98258008  0.30498417  1
  S  S27  1  0.26597717  0.93330080  0.68393352  1
  S  S28  1  0.16466030  0.48646858  0.45275941  1
  S  S29  1  0.81266203  0.49450020  0.54497330  1
  S  S30  1  0.43069962  0.47155235  0.79491579  1
  S  S31  1  0.55945464  0.49613631  0.19225680  1
  S  S32  1  0.92115287  0.51012089  0.99811457  1
  S  S33  1  0.08162087  0.47648045  0.02721856  1
  S  S34  1  0.68404721  0.56849617  0.91236615  1
  S  S35  1  0.33446354  0.45071378  0.10858856  1
  S  S36  1  0.60740799  0.99645332  0.66986855  1
  S  S37  1  0.40359242  0.04855370  0.34390590  1
  S  S38  1  0.24850883  0.54240489  0.32984520  1
  S  S39  1  0.77124783  0.47966717  0.70227843  1
  S  S40  1  0.66871738  0.99658796  0.44386854  1
  S  S41  1  0.33532234  0.92200139  0.54909253  1
