# generated using pymatgen
data_Pr2Mn3(SbS3)4
_symmetry_space_group_name_H-M   'P 1'
_cell_length_a   20.02960800
_cell_length_b   3.90410600
_cell_length_c   14.95364829
_cell_angle_alpha   90.00000000
_cell_angle_beta   126.33350609
_cell_angle_gamma   90.00000000
_symmetry_Int_Tables_number   1
_chemical_formula_structural   Pr2Mn3(SbS3)4
_chemical_formula_sum   'Pr4 Mn6 Sb8 S24'
_cell_volume   942.00006694
_cell_formula_units_Z   2
loop_
 _symmetry_equiv_pos_site_id
 _symmetry_equiv_pos_as_xyz
  1  'x, y, z'
loop_
 _atom_site_type_symbol
 _atom_site_label
 _atom_site_symmetry_multiplicity
 _atom_site_fract_x
 _atom_site_fract_y
 _atom_site_fract_z
 _atom_site_occupancy
  Pr  Pr0  1  0.27399255  0.47389070  0.87649271  1
  Pr  Pr1  1  0.73444970  0.51084233  0.14200903  1
  Pr  Pr2  1  0.76596951  0.07757472  0.88098171  1
  Pr  Pr3  1  0.23430012  0.90347069  0.12236100  1
  Mn  Mn4  1  0.29837032  0.40545753  0.60082122  1
  Mn  Mn5  1  0.68936944  0.48909449  0.35501462  1
  Mn  Mn6  1  0.00746782  0.97329349  0.02386172  1
  Mn  Mn7  1  0.79398204  0.97189238  0.63647935  1
  Mn  Mn8  1  0.21409781  0.05210647  0.39920816  1
  Mn  Mn9  1  0.47725670  0.48248930  0.97213188  1
  Sb  Sb10  1  0.88100879  0.86286280  0.45547413  1
  Sb  Sb11  1  0.11254540  0.96522357  0.54139612  1
  Sb  Sb12  1  0.03347122  0.49994698  0.82298545  1
  Sb  Sb13  1  0.96491448  0.46032827  0.20143958  1
  Sb  Sb14  1  0.41244698  0.56890788  0.46104352  1
  Sb  Sb15  1  0.60038684  0.57337826  0.53454290  1
  Sb  Sb16  1  0.53411347  0.93809778  0.80449184  1
  Sb  Sb17  1  0.46713083  0.97207812  0.18010060  1
  S  S18  1  0.93464943  0.98285231  0.80808833  1
  S  S19  1  0.06453260  0.02981904  0.20431831  1
  S  S20  1  0.41218162  0.99362141  0.97744039  1
  S  S21  1  0.57140413  0.00894707  0.00309070  1
  S  S22  1  0.16467737  0.95498998  0.88342964  1
  S  S23  1  0.83448200  0.04370532  0.11256459  1
  S  S24  1  0.09923425  0.47611099  0.64033088  1
  S  S25  1  0.89619052  0.44823566  0.34942973  1
  S  S26  1  0.72665791  0.98356798  0.30495634  1
  S  S27  1  0.26583724  0.93215231  0.68372552  1
  S  S28  1  0.16456047  0.48481197  0.45240007  1
  S  S29  1  0.81278978  0.49566022  0.54501826  1
  S  S30  1  0.43087766  0.47184462  0.79509688  1
  S  S31  1  0.55937245  0.49525370  0.19234812  1
  S  S32  1  0.92122613  0.51014246  0.99818727  1
  S  S33  1  0.08162228  0.47579800  0.02710434  1
  S  S34  1  0.68428717  0.56781421  0.91243386  1
  S  S35  1  0.33445259  0.45000351  0.10842771  1
  S  S36  1  0.60746642  0.99614980  0.66938223  1
  S  S37  1  0.40351672  0.04792191  0.34374202  1
  S  S38  1  0.24857158  0.54144495  0.32971324  1
  S  S39  1  0.77128980  0.48007017  0.70257201  1
  S  S40  1  0.66877241  0.99740578  0.44379133  1
  S  S41  1  0.33536830  0.92100862  0.54898114  1
