# generated using pymatgen
data_Pr2Mn3(SbS3)4
_symmetry_space_group_name_H-M   'P 1'
_cell_length_a   20.02960800
_cell_length_b   3.90410600
_cell_length_c   14.95364829
_cell_angle_alpha   90.00000000
_cell_angle_beta   126.33350609
_cell_angle_gamma   90.00000000
_symmetry_Int_Tables_number   1
_chemical_formula_structural   Pr2Mn3(SbS3)4
_chemical_formula_sum   'Pr4 Mn6 Sb8 S24'
_cell_volume   942.00006694
_cell_formula_units_Z   2
loop_
 _symmetry_equiv_pos_site_id
 _symmetry_equiv_pos_as_xyz
  1  'x, y, z'
loop_
 _atom_site_type_symbol
 _atom_site_label
 _atom_site_symmetry_multiplicity
 _atom_site_fract_x
 _atom_site_fract_y
 _atom_site_fract_z
 _atom_site_occupancy
  Pr  Pr0  1  0.27398056  0.47393736  0.87644237  1
  Pr  Pr1  1  0.73448362  0.51105893  0.14210656  1
  Pr  Pr2  1  0.76585006  0.07722131  0.88100472  1
  Pr  Pr3  1  0.23420498  0.90333019  0.12230195  1
  Mn  Mn4  1  0.29842192  0.40602674  0.60072757  1
  Mn  Mn5  1  0.68953256  0.48972812  0.35501082  1
  Mn  Mn6  1  0.00736845  0.97341752  0.02381538  1
  Mn  Mn7  1  0.79416404  0.97181429  0.63657198  1
  Mn  Mn8  1  0.21407291  0.05221413  0.39936607  1
  Mn  Mn9  1  0.47729389  0.48211118  0.97227953  1
  Sb  Sb10  1  0.88101130  0.86232724  0.45547743  1
  Sb  Sb11  1  0.11258222  0.96473897  0.54134768  1
  Sb  Sb12  1  0.03340804  0.49978972  0.82281506  1
  Sb  Sb13  1  0.96499509  0.46005476  0.20149228  1
  Sb  Sb14  1  0.41237784  0.56892866  0.46106145  1
  Sb  Sb15  1  0.60051901  0.57351586  0.53478918  1
  Sb  Sb16  1  0.53405610  0.93803420  0.80435697  1
  Sb  Sb17  1  0.46714403  0.97238752  0.17993545  1
  S  S18  1  0.93512882  0.98382411  0.80866693  1
  S  S19  1  0.06479599  0.02897653  0.20420674  1
  S  S20  1  0.41224862  0.99393254  0.97731076  1
  S  S21  1  0.57166944  0.01000142  0.00337526  1
  S  S22  1  0.16482633  0.95481375  0.88346397  1
  S  S23  1  0.83466936  0.04264867  0.11252002  1
  S  S24  1  0.09932366  0.47639264  0.64044000  1
  S  S25  1  0.89622288  0.44737286  0.34966579  1
  S  S26  1  0.72672786  0.98468216  0.30506108  1
  S  S27  1  0.26567956  0.93093034  0.68359973  1
  S  S28  1  0.16438799  0.48336849  0.45189612  1
  S  S29  1  0.81304067  0.49660063  0.54522403  1
  S  S30  1  0.43106417  0.47252410  0.79512449  1
  S  S31  1  0.55936125  0.49433275  0.19245816  1
  S  S32  1  0.92130760  0.50992637  0.99822672  1
  S  S33  1  0.08169423  0.47486547  0.02692030  1
  S  S34  1  0.68449257  0.56697406  0.91266518  1
  S  S35  1  0.33444148  0.44946929  0.10821062  1
  S  S36  1  0.60748195  0.99618285  0.66884189  1
  S  S37  1  0.40345536  0.04736252  0.34359380  1
  S  S38  1  0.24860741  0.54086604  0.32963653  1
  S  S39  1  0.77132846  0.47998479  0.70298902  1
  S  S40  1  0.66883562  0.99798293  0.44374157  1
  S  S41  1  0.33540403  0.91988640  0.54893676  1
