# generated using pymatgen
data_Pr2Mn3(SbS3)4
_symmetry_space_group_name_H-M   'P 1'
_cell_length_a   20.02960800
_cell_length_b   3.90410600
_cell_length_c   14.95364829
_cell_angle_alpha   90.00000000
_cell_angle_beta   126.33350609
_cell_angle_gamma   90.00000000
_symmetry_Int_Tables_number   1
_chemical_formula_structural   Pr2Mn3(SbS3)4
_chemical_formula_sum   'Pr4 Mn6 Sb8 S24'
_cell_volume   942.00006694
_cell_formula_units_Z   2
loop_
 _symmetry_equiv_pos_site_id
 _symmetry_equiv_pos_as_xyz
  1  'x, y, z'
loop_
 _atom_site_type_symbol
 _atom_site_label
 _atom_site_symmetry_multiplicity
 _atom_site_fract_x
 _atom_site_fract_y
 _atom_site_fract_z
 _atom_site_occupancy
  Pr  Pr0  1  0.27406220  0.47437754  0.87643551  1
  Pr  Pr1  1  0.73450591  0.51099384  0.14215973  1
  Pr  Pr2  1  0.76576478  0.07652473  0.88105814  1
  Pr  Pr3  1  0.23410019  0.90317757  0.12221367  1
  Mn  Mn4  1  0.29836666  0.40645016  0.60051567  1
  Mn  Mn5  1  0.68974404  0.49015913  0.35507704  1
  Mn  Mn6  1  0.00737553  0.97361907  0.02389211  1
  Mn  Mn7  1  0.79434813  0.97151717  0.63676311  1
  Mn  Mn8  1  0.21402257  0.05186818  0.39951856  1
  Mn  Mn9  1  0.47727236  0.48167435  0.97231074  1
  Sb  Sb10  1  0.88109631  0.86187246  0.45558788  1
  Sb  Sb11  1  0.11265238  0.96412717  0.54138959  1
  Sb  Sb12  1  0.03330080  0.49946806  0.82263316  1
  Sb  Sb13  1  0.96508969  0.45964789  0.20151955  1
  Sb  Sb14  1  0.41228810  0.56860183  0.46104236  1
  Sb  Sb15  1  0.60069545  0.57362024  0.53501754  1
  Sb  Sb16  1  0.53404589  0.93788907  0.80420208  1
  Sb  Sb17  1  0.46715122  0.97275743  0.17978150  1
  S  S18  1  0.93563919  0.98486635  0.80923784  1
  S  S19  1  0.06498002  0.02804610  0.20399909  1
  S  S20  1  0.41241959  0.99457619  0.97727434  1
  S  S21  1  0.57195493  0.01142169  0.00361658  1
  S  S22  1  0.16498561  0.95446142  0.88356915  1
  S  S23  1  0.83490120  0.04186822  0.11235635  1
  S  S24  1  0.09944604  0.47698991  0.64059923  1
  S  S25  1  0.89631978  0.44664633  0.34999724  1
  S  S26  1  0.72682769  0.98556195  0.30527081  1
  S  S27  1  0.26557300  0.92988367  0.68349338  1
  S  S28  1  0.16427543  0.48178521  0.45153028  1
  S  S29  1  0.81318277  0.49722537  0.54523182  1
  S  S30  1  0.43122062  0.47320207  0.79509903  1
  S  S31  1  0.55937114  0.49376632  0.19260427  1
  S  S32  1  0.92139352  0.50964551  0.99830707  1
  S  S33  1  0.08184340  0.47398428  0.02686557  1
  S  S34  1  0.68474635  0.56591173  0.91284751  1
  S  S35  1  0.33445933  0.44859655  0.10800035  1
  S  S36  1  0.60730051  0.99642075  0.66818948  1
  S  S37  1  0.40347803  0.04674014  0.34352802  1
  S  S38  1  0.24865107  0.54005307  0.32967455  1
  S  S39  1  0.77127976  0.47959506  0.70333873  1
  S  S40  1  0.66883520  0.99885814  0.44368169  1
  S  S41  1  0.33547644  0.91885335  0.54886588  1
