# generated using pymatgen
data_Pr2Mn3(SbS3)4
_symmetry_space_group_name_H-M   'P 1'
_cell_length_a   20.02960800
_cell_length_b   3.90410600
_cell_length_c   14.95364829
_cell_angle_alpha   90.00000000
_cell_angle_beta   126.33350609
_cell_angle_gamma   90.00000000
_symmetry_Int_Tables_number   1
_chemical_formula_structural   Pr2Mn3(SbS3)4
_chemical_formula_sum   'Pr4 Mn6 Sb8 S24'
_cell_volume   942.00006694
_cell_formula_units_Z   2
loop_
 _symmetry_equiv_pos_site_id
 _symmetry_equiv_pos_as_xyz
  1  'x, y, z'
loop_
 _atom_site_type_symbol
 _atom_site_label
 _atom_site_symmetry_multiplicity
 _atom_site_fract_x
 _atom_site_fract_y
 _atom_site_fract_z
 _atom_site_occupancy
  Pr  Pr0  1  0.27422073  0.47465709  0.87651624  1
  Pr  Pr1  1  0.73451198  0.51094568  0.14217749  1
  Pr  Pr2  1  0.76577433  0.07571331  0.88113703  1
  Pr  Pr3  1  0.23403351  0.90301789  0.12218905  1
  Mn  Mn4  1  0.29824930  0.40686938  0.60023051  1
  Mn  Mn5  1  0.68994316  0.49041220  0.35518622  1
  Mn  Mn6  1  0.00737910  0.97363359  0.02400121  1
  Mn  Mn7  1  0.79448647  0.97145820  0.63702942  1
  Mn  Mn8  1  0.21409517  0.05159361  0.39984355  1
  Mn  Mn9  1  0.47727379  0.48129928  0.97229091  1
  Sb  Sb10  1  0.88119387  0.86137841  0.45565127  1
  Sb  Sb11  1  0.11278100  0.96372265  0.54148701  1
  Sb  Sb12  1  0.03321001  0.49933949  0.82248645  1
  Sb  Sb13  1  0.96518488  0.45921705  0.20154814  1
  Sb  Sb14  1  0.41218822  0.56834010  0.46093991  1
  Sb  Sb15  1  0.60084777  0.57370155  0.53524963  1
  Sb  Sb16  1  0.53403219  0.93797785  0.80397218  1
  Sb  Sb17  1  0.46710766  0.97298903  0.17967157  1
  S  S18  1  0.93601581  0.98591097  0.80965357  1
  S  S19  1  0.06503511  0.02764482  0.20371654  1
  S  S20  1  0.41244315  0.99540590  0.97708515  1
  S  S21  1  0.57216646  0.01311932  0.00370121  1
  S  S22  1  0.16509915  0.95388035  0.88349308  1
  S  S23  1  0.83498271  0.04089541  0.11210997  1
  S  S24  1  0.09951186  0.47753723  0.64075538  1
  S  S25  1  0.89628706  0.44561476  0.35019585  1
  S  S26  1  0.72685119  0.98653841  0.30538029  1
  S  S27  1  0.26544259  0.92889527  0.68313624  1
  S  S28  1  0.16421263  0.48010802  0.45130759  1
  S  S29  1  0.81337034  0.49784947  0.54520982  1
  S  S30  1  0.43142609  0.47372859  0.79512880  1
  S  S31  1  0.55934887  0.49294172  0.19272573  1
  S  S32  1  0.92145416  0.50965320  0.99834601  1
  S  S33  1  0.08196587  0.47313178  0.02654983  1
  S  S34  1  0.68489259  0.56480908  0.91308044  1
  S  S35  1  0.33435920  0.44769155  0.10774119  1
  S  S36  1  0.60716947  0.99671798  0.66761235  1
  S  S37  1  0.40350013  0.04649667  0.34346317  1
  S  S38  1  0.24854223  0.53967561  0.32962371  1
  S  S39  1  0.77118182  0.47988331  0.70365257  1
  S  S40  1  0.66871416  0.99959789  0.44351347  1
  S  S41  1  0.33554182  0.91818544  0.54886747  1
