# generated using pymatgen
data_Pr2Mn3(SbS3)4
_symmetry_space_group_name_H-M   'P 1'
_cell_length_a   20.02960800
_cell_length_b   3.90410600
_cell_length_c   14.95364829
_cell_angle_alpha   90.00000000
_cell_angle_beta   126.33350609
_cell_angle_gamma   90.00000000
_symmetry_Int_Tables_number   1
_chemical_formula_structural   Pr2Mn3(SbS3)4
_chemical_formula_sum   'Pr4 Mn6 Sb8 S24'
_cell_volume   942.00006694
_cell_formula_units_Z   2
loop_
 _symmetry_equiv_pos_site_id
 _symmetry_equiv_pos_as_xyz
  1  'x, y, z'
loop_
 _atom_site_type_symbol
 _atom_site_label
 _atom_site_symmetry_multiplicity
 _atom_site_fract_x
 _atom_site_fract_y
 _atom_site_fract_z
 _atom_site_occupancy
  Pr  Pr0  1  0.27442490  0.47484372  0.87662708  1
  Pr  Pr1  1  0.73451102  0.51070515  0.14216712  1
  Pr  Pr2  1  0.76584527  0.07496154  0.88129106  1
  Pr  Pr3  1  0.23397251  0.90283035  0.12213851  1
  Mn  Mn4  1  0.29810296  0.40732583  0.59992622  1
  Mn  Mn5  1  0.69015401  0.49075633  0.35526428  1
  Mn  Mn6  1  0.00737164  0.97355960  0.02411478  1
  Mn  Mn7  1  0.79454895  0.97121435  0.63725067  1
  Mn  Mn8  1  0.21415024  0.05133573  0.40014735  1
  Mn  Mn9  1  0.47742047  0.48102249  0.97241368  1
  Sb  Sb10  1  0.88128521  0.86108497  0.45575756  1
  Sb  Sb11  1  0.11289355  0.96341753  0.54152671  1
  Sb  Sb12  1  0.03311513  0.49928384  0.82235444  1
  Sb  Sb13  1  0.96530284  0.45868646  0.20153444  1
  Sb  Sb14  1  0.41207486  0.56812896  0.46085964  1
  Sb  Sb15  1  0.60102816  0.57373151  0.53544876  1
  Sb  Sb16  1  0.53406507  0.93789222  0.80383910  1
  Sb  Sb17  1  0.46708342  0.97330074  0.17955527  1
  S  S18  1  0.93637188  0.98731530  0.81016813  1
  S  S19  1  0.06509157  0.02695897  0.20336368  1
  S  S20  1  0.41249054  0.99645010  0.97702720  1
  S  S21  1  0.57228362  0.01424101  0.00364363  1
  S  S22  1  0.16528153  0.95374964  0.88363268  1
  S  S23  1  0.83509823  0.04025768  0.11181278  1
  S  S24  1  0.09964307  0.47781410  0.64108475  1
  S  S25  1  0.89632744  0.44437797  0.35024685  1
  S  S26  1  0.72684806  0.98709398  0.30542193  1
  S  S27  1  0.26533670  0.92819349  0.68283051  1
  S  S28  1  0.16415231  0.47808142  0.45107582  1
  S  S29  1  0.81353574  0.49816766  0.54510091  1
  S  S30  1  0.43171519  0.47460538  0.79527290  1
  S  S31  1  0.55920416  0.49231273  0.19276662  1
  S  S32  1  0.92141609  0.50969460  0.99835433  1
  S  S33  1  0.08211945  0.47246270  0.02624517  1
  S  S34  1  0.68502847  0.56389125  0.91335142  1
  S  S35  1  0.33428770  0.44689614  0.10740327  1
  S  S36  1  0.60703651  0.99714247  0.66710358  1
  S  S37  1  0.40353044  0.04648285  0.34347803  1
  S  S38  1  0.24846560  0.53915958  0.32969660  1
  S  S39  1  0.77107928  0.48010447  0.70394017  1
  S  S40  1  0.66857853  0.00020524  0.44343996  1
  S  S41  1  0.33553512  0.91742347  0.54898036  1
