# generated using pymatgen
data_Pr2Mn3(SbS3)4
_symmetry_space_group_name_H-M   'P 1'
_cell_length_a   20.02960800
_cell_length_b   3.90410600
_cell_length_c   14.95364829
_cell_angle_alpha   90.00000000
_cell_angle_beta   126.33350609
_cell_angle_gamma   90.00000000
_symmetry_Int_Tables_number   1
_chemical_formula_structural   Pr2Mn3(SbS3)4
_chemical_formula_sum   'Pr4 Mn6 Sb8 S24'
_cell_volume   942.00006694
_cell_formula_units_Z   2
loop_
 _symmetry_equiv_pos_site_id
 _symmetry_equiv_pos_as_xyz
  1  'x, y, z'
loop_
 _atom_site_type_symbol
 _atom_site_label
 _atom_site_symmetry_multiplicity
 _atom_site_fract_x
 _atom_site_fract_y
 _atom_site_fract_z
 _atom_site_occupancy
  Pr  Pr0  1  0.27457573  0.47470100  0.87673996  1
  Pr  Pr1  1  0.73447993  0.51068493  0.14212299  1
  Pr  Pr2  1  0.76591419  0.07410290  0.88144510  1
  Pr  Pr3  1  0.23395385  0.90268812  0.12215221  1
  Mn  Mn4  1  0.29795176  0.40757270  0.59956733  1
  Mn  Mn5  1  0.69025578  0.49117227  0.35529818  1
  Mn  Mn6  1  0.00738869  0.97330058  0.02425342  1
  Mn  Mn7  1  0.79465310  0.97075027  0.63758629  1
  Mn  Mn8  1  0.21413486  0.05143421  0.40037648  1
  Mn  Mn9  1  0.47752877  0.48072626  0.97250104  1
  Sb  Sb10  1  0.88133217  0.86084484  0.45583567  1
  Sb  Sb11  1  0.11294659  0.96287293  0.54163263  1
  Sb  Sb12  1  0.03303149  0.49936798  0.82227163  1
  Sb  Sb13  1  0.96542149  0.45841322  0.20154460  1
  Sb  Sb14  1  0.41192052  0.56817695  0.46078743  1
  Sb  Sb15  1  0.60121929  0.57372625  0.53567808  1
  Sb  Sb16  1  0.53407206  0.93788117  0.80371108  1
  Sb  Sb17  1  0.46706407  0.97362613  0.17943460  1
  S  S18  1  0.93658925  0.98819344  0.81053149  1
  S  S19  1  0.06512965  0.02674604  0.20304378  1
  S  S20  1  0.41239166  0.99720662  0.97701383  1
  S  S21  1  0.57234300  0.01592555  0.00351551  1
  S  S22  1  0.16545255  0.95358601  0.88377360  1
  S  S23  1  0.83528204  0.03998153  0.11161869  1
  S  S24  1  0.09975306  0.47803611  0.64136890  1
  S  S25  1  0.89640169  0.44317952  0.35017555  1
  S  S26  1  0.72684546  0.98804049  0.30537823  1
  S  S27  1  0.26517925  0.92766794  0.68246402  1
  S  S28  1  0.16404965  0.47561133  0.45074080  1
  S  S29  1  0.81362639  0.49864532  0.54490317  1
  S  S30  1  0.43203003  0.47557707  0.79541201  1
  S  S31  1  0.55898066  0.49228602  0.19266933  1
  S  S32  1  0.92128422  0.50952132  0.99831138  1
  S  S33  1  0.08231566  0.47181395  0.02599560  1
  S  S34  1  0.68503706  0.56283643  0.91348837  1
  S  S35  1  0.33421083  0.44589117  0.10696577  1
  S  S36  1  0.60688568  0.99843802  0.66663797  1
  S  S37  1  0.40339468  0.04647653  0.34336698  1
  S  S38  1  0.24838228  0.53848643  0.32969366  1
  S  S39  1  0.77097377  0.48005131  0.70410716  1
  S  S40  1  0.66844077  0.00012872  0.44329050  1
  S  S41  1  0.33564975  0.91693950  0.54907042  1
